@<TRIPOS>MOLECULE
tmp/4d7dA01.pdb
 207 196 0 0 0
SMALL
GASTEIGER

@<TRIPOS>ATOM
      1  N        -16.6820    9.6520    7.3190 N.3    77  ARG77      -0.1245
      2  CA       -17.7350    9.7890    8.3300 C.3    77  ARG77       0.1563
      3  C        -18.8630    8.8380    7.9940 C.2    77  ARG77       0.2260
      4  O        -18.8270    8.1630    6.9690 O.2    77  ARG77      -0.2867
      5  CB       -18.2190   11.2270    8.4370 C.3    77  ARG77       0.0307
      6  CG       -17.0910   12.1870    8.7850 C.3    77  ARG77       0.0489
      7  CD       -17.5890   13.6100    8.9400 C.3    77  ARG77       0.2205
      8  NE       -16.4880   14.4920    9.3030 N.pl3  77  ARG77      -0.0865
      9  CZ       -15.8370   15.2930    8.4530 C.cat  77  ARG77       0.5346
     10  NH1      -16.1700   15.3430    7.1700 N.pl3  77  ARG77       0.1354
     11  NH2      -14.8440   16.0600    8.8950 N.pl3  77  ARG77       0.1354
     12  N        -24.4930    9.9110    5.2460 N.3    80  PHE80      -0.1241
     13  CA       -25.2690   11.0390    5.7920 C.3    80  PHE80       0.1605
     14  C        -26.7970   10.8500    5.9100 C.2    80  PHE80       0.2264
     15  O        -27.3970   11.0600    6.9890 O.2    80  PHE80      -0.2867
     16  CB       -24.9680   12.2680    4.9270 C.3    80  PHE80       0.0534
     17  CG       -25.1740   13.5650    5.6270 C.ar   80  PHE80      -0.0203
     18  CD1      -24.2050   14.0580    6.5030 C.ar   80  PHE80      -0.0042
     19  CD2      -26.3280   14.3020    5.4130 C.ar   80  PHE80      -0.0042
     20  CE1      -24.3910   15.2620    7.1620 C.ar   80  PHE80      -0.0003
     21  CE2      -26.5210   15.5060    6.0680 C.ar   80  PHE80      -0.0003
     22  CZ       -25.5530   15.9850    6.9440 C.ar   80  PHE80      -0.0000
     23  N        -28.4610   12.2910   -0.4250 N.3    83  VAL83      -0.1245
     24  CA       -27.7640   13.5340   -0.7560 C.3    83  VAL83       0.1561
     25  C        -27.6500   13.8490   -2.2380 C.2    83  VAL83       0.2260
     26  O        -27.1360   14.9160   -2.6000 O.2    83  VAL83      -0.2867
     27  CB       -26.3540   13.5900   -0.1320 C.3    83  VAL83       0.0252
     28  CG1      -26.4510   13.9010    1.3570 C.3    83  VAL83       0.0019
     29  CG2      -25.5720   12.3030   -0.4110 C.3    83  VAL83       0.0019
     30  N        -25.1190   16.1950   -3.9990 N.3    86  MET86      -0.1245
     31  CA       -24.2460   16.5790   -2.8970 C.3    86  MET86       0.1570
     32  C        -23.3190   15.4660   -2.4250 C.2    86  MET86       0.2261
     33  O        -22.5220   15.6780   -1.5110 O.2    86  MET86      -0.2867
     34  CB       -25.0400   17.0990   -1.6900 C.3    86  MET86       0.0387
     35  CG       -25.5660   18.5140   -1.8320 C.3    86  MET86       0.0595
     36  SD       -24.2710   19.7240   -2.1220 S.3    86  MET86      -0.1393
     37  CE       -24.0570   20.4140   -0.4820 C.3    86  MET86       0.0692
     38  N        -17.1720   17.2630    2.6050 N.3    91  SER91      -0.1202
     39  CA       -17.5030   16.8030    3.9570 C.3    91  SER91       0.2020
     40  C        -18.1910   15.4350    3.9300 C.2    91  SER91       0.2618
     41  O        -18.2950   14.7540    4.9420 O.2    91  SER91      -0.2717
     42  CB       -18.3820   17.8470    4.6720 C.3    91  SER91       0.2103
     43  OG       -19.4510   18.2950    3.8500 O.3    91  SER91      -0.2182
     44  N        -18.6430   15.0410    2.7470 N.am   92  ILE92      -0.1979
     45  CA       -19.4340   13.8520    2.5800 C.3    92  ILE92       0.1595
     46  C        -18.6520   12.8040    1.8020 C.2    92  ILE92       0.2287
     47  O        -18.8650   11.6230    1.9900 O.2    92  ILE92      -0.2864
     48  CB       -20.7800   14.1970    1.9020 C.3    92  ILE92       0.0276
     49  CG1      -21.7530   14.7350    2.9510 C.3    92  ILE92       0.0022
     50  CG2      -21.3960   12.9830    1.2190 C.3    92  ILE92       0.0022
     51  CD1      -22.8940   15.5730    2.4000 C.3    92  ILE92       0.0001
     52  N        -32.0780   25.0280    4.8670 N.3   182  LEU182     -0.1231
     53  CA       -31.2820   23.8840    4.3890 C.3   182  LEU182      0.1693
     54  C        -31.3530   22.5710    5.2040 C.2   182  LEU182      0.2591
     55  O        -31.4770   21.4960    4.6160 O.2   182  LEU182     -0.2718
     56  CB       -29.8190   24.3270    4.1870 C.3   182  LEU182      0.0284
     57  CG       -28.7550   23.4700    3.4820 C.3   182  LEU182      0.0019
     58  CD1      -29.3620   22.4280    2.5550 C.3   182  LEU182      0.0001
     59  CD2      -27.7860   24.3510    2.7060 C.3   182  LEU182      0.0001
     60  N        -31.2720   22.6420    6.5320 N.am  183  LEU183     -0.1980
     61  CA       -31.2130   21.4110    7.3360 C.3   183  LEU183      0.1596
     62  C        -32.4600   21.0080    8.1470 C.2   183  LEU183      0.2287
     63  O        -33.1340   21.8530    8.7400 O.2   183  LEU183     -0.2864
     64  CB       -29.9570   21.3890    8.2170 C.3   183  LEU183      0.0297
     65  CG       -28.8420   20.4960    7.6660 C.3   183  LEU183      0.0022
     66  CD1      -27.5470   20.7710    8.3950 C.3   183  LEU183      0.0001
     67  CD2      -29.2050   19.0190    7.7620 C.3   183  LEU183      0.0001
     68  N        -32.1600   18.1540   10.4150 N.3   185  PHE185     -0.1241
     69  CA       -31.4430   17.0720   11.1420 C.3   185  PHE185      0.1605
     70  C        -31.9700   16.7260   12.5450 C.2   185  PHE185      0.2264
     71  O        -31.4340   15.8260   13.1990 O.2   185  PHE185     -0.2867
     72  CB       -29.9200   17.3510   11.2040 C.3   185  PHE185      0.0534
     73  CG       -29.0840   16.1640   11.6600 C.ar  185  PHE185     -0.0203
     74  CD1      -28.7040   15.1740   10.7520 C.ar  185  PHE185     -0.0042
     75  CD2      -28.6630   16.0390   12.9850 C.ar  185  PHE185     -0.0042
     76  CE1      -27.9360   14.0840   11.1550 C.ar  185  PHE185     -0.0003
     77  CE2      -27.9020   14.9510   13.3940 C.ar  185  PHE185     -0.0003
     78  CZ       -27.5350   13.9730   12.4770 C.ar  185  PHE185     -0.0000
     79  N        -32.5010   15.8500    1.3960 N.3   212  VAL212     -0.1231
     80  CA       -32.6500   16.5130    2.7130 C.3   212  VAL212      0.1692
     81  C        -32.8920   18.0350    2.5660 C.2   212  VAL212      0.2592
     82  O        -32.8620   18.7890    3.5500 O.2   212  VAL212     -0.2718
     83  CB       -31.4840   16.1740    3.6940 C.3   212  VAL212      0.0266
     84  CG1      -31.3110   14.6670    3.8300 C.3   212  VAL212      0.0020
     85  CG2      -30.1690   16.8100    3.2630 C.3   212  VAL212      0.0020
     86  N        -33.1580   18.4470    1.3200 N.am  213  PHE213     -0.1976
     87  CA       -33.4570   19.8260    0.9040 C.3   213  PHE213      0.1639
     88  C        -34.2730   19.7910   -0.4020 C.2   213  PHE213      0.2290
     89  O        -33.9430   20.5060   -1.3530 O.2   213  PHE213     -0.2864
     90  CB       -32.1480   20.5960    0.6740 C.3   213  PHE213      0.0560
     91  CG       -31.0410   19.7550    0.0800 C.ar  213  PHE213     -0.0200
     92  CD1      -31.0690   19.3750   -1.2620 C.ar  213  PHE213     -0.0042
     93  CD2      -29.9700   19.3370    0.8660 C.ar  213  PHE213     -0.0042
     94  CE1      -30.0540   18.5960   -1.8010 C.ar  213  PHE213     -0.0003
     95  CE2      -28.9520   18.5610    0.3310 C.ar  213  PHE213     -0.0003
     96  CZ       -28.9970   18.1870   -1.0020 C.ar  213  PHE213     -0.0000
     97  N        -21.7020   25.1040   -1.9220 N.3   262  ILE262     -0.1231
     98  CA       -22.8050   24.9800   -0.9750 C.3   262  ILE262      0.1692
     99  C        -22.2900   24.6430    0.4190 C.2   262  ILE262      0.2591
    100  O        -22.6690   25.3060    1.3830 O.2   262  ILE262     -0.2718
    101  CB       -23.8900   24.0000   -1.4490 C.3   262  ILE262      0.0266
    102  CG1      -24.5640   24.5480   -2.7130 C.3   262  ILE262      0.0019
    103  CG2      -24.9260   23.8020   -0.3540 C.3   262  ILE262      0.0020
    104  CD1      -25.3500   23.5210   -3.4910 C.3   262  ILE262      0.0001
    105  N        -21.4000   23.6580    0.5230 N.am  263  ILE263     -0.1980
    106  CA       -20.8670   23.2730    1.8370 C.3   263  ILE263      0.1595
    107  C        -20.3190   24.5060    2.5600 C.2   263  ILE263      0.2287
    108  O        -20.5940   24.7240    3.7600 O.2   263  ILE263     -0.2864
    109  CB       -19.8070   22.1400    1.7570 C.3   263  ILE263      0.0276
    110  CG1      -20.3960   20.9150    1.0670 C.3   263  ILE263      0.0022
    111  CG2      -19.3460   21.6980    3.1410 C.3   263  ILE263      0.0022
    112  CD1      -21.6170   20.3330    1.7420 C.3   263  ILE263      0.0001
    113  N        -23.1280   27.0760    3.5760 N.3   266  PHE266     -0.1227
    114  CA       -23.7030   26.6450    4.8290 C.3   266  PHE266      0.1736
    115  C        -22.7880   26.7950    6.0500 C.2   266  PHE266      0.2595
    116  O        -23.1120   27.5460    6.9590 O.2   266  PHE266     -0.2718
    117  CB       -24.1670   25.2040    4.7880 C.3   266  PHE266      0.0547
    118  CG       -25.0010   24.8300    5.9660 C.ar  266  PHE266     -0.0202
    119  CD1      -26.2950   25.3300    6.1040 C.ar  266  PHE266     -0.0042
    120  CD2      -24.4910   24.0040    6.9620 C.ar  266  PHE266     -0.0042
    121  CE1      -27.0820   24.9950    7.2000 C.ar  266  PHE266     -0.0003
    122  CE2      -25.2730   23.6640    8.0650 C.ar  266  PHE266     -0.0003
    123  CZ       -26.5710   24.1600    8.1820 C.ar  266  PHE266     -0.0000
    124  N        -21.6540   26.1030    6.0710 N.am  267  ALA267     -0.1980
    125  CA       -20.6820   26.2570    7.1530 C.3   267  ALA267      0.1597
    126  C        -20.5010   27.7360    7.5550 C.2   267  ALA267      0.2287
    127  O        -20.8080   28.1220    8.6840 O.2   267  ALA267     -0.2864
    128  CB       -19.3650   25.6680    6.6840 C.3   267  ALA267      0.0319
    129  N        -23.9140   29.3660    9.1220 N.3   270  GLU270     -0.1231
    130  CA       -24.5540   28.7920   10.3130 C.3   270  GLU270      0.1699
    131  C        -23.6260   28.5920   11.5240 C.2   270  GLU270      0.2592
    132  O        -23.9760   28.9450   12.6560 O.2   270  GLU270     -0.2718
    133  CB       -25.2850   27.4920    9.9480 C.3   270  GLU270      0.0402
    134  CG       -25.4370   26.4610   11.0690 C.3   270  GLU270      0.1161
    135  CD       -26.1360   26.9820   12.3170 C.2   270  GLU270      0.3649
    136  OE1      -27.0210   27.8580   12.1960 O.co2 270  GLU270     -0.2457
    137  OE2      -25.7910   26.5050   13.4210 O.co2 270  GLU270     -0.2457
    138  N        -22.4560   28.0150   11.2780 N.am  271  THR271     -0.1953
    139  CA       -21.4940   27.7930   12.3260 C.3   271  THR271      0.1897
    140  C        -21.1920   29.1330   12.9600 C.2   271  THR271      0.2313
    141  O        -21.3800   29.3010   14.1550 O.2   271  THR271     -0.2863
    142  CB       -20.2050   27.1140   11.7930 C.3   271  THR271      0.1794
    143  OG1      -19.4540   28.0150   10.9590 O.3   271  THR271     -0.2208
    144  CG2      -20.5580   25.8940   10.9910 C.3   271  THR271      0.0378
    145  N        -19.8910   22.9220   18.6820 N.3   331  ILE331     -0.1231
    146  CA       -21.0640   22.8920   17.8030 C.3   331  ILE331      0.1692
    147  C        -21.2990   21.5850   17.0130 C.2   331  ILE331      0.2591
    148  O        -22.4350   21.2320   16.7480 O.2   331  ILE331     -0.2718
    149  CB       -21.0480   24.1700   16.9240 C.3   331  ILE331      0.0266
    150  CG1      -22.3670   24.8850   17.0070 C.3   331  ILE331      0.0019
    151  CG2      -20.4970   23.9950   15.5120 C.3   331  ILE331      0.0020
    152  CD1      -22.2910   25.9810   18.0450 C.3   331  ILE331      0.0001
    153  N        -20.2280   20.8680   16.6720 N.am  332  ALA332     -0.1980
    154  CA       -20.3230   19.5260   16.0720 C.3   332  ALA332      0.1597
    155  C        -20.8940   18.4450   17.0260 C.2   332  ALA332      0.2287
    156  O        -21.4460   17.4400   16.5510 O.2   332  ALA332     -0.2864
    157  CB       -18.9660   19.0850   15.5230 C.3   332  ALA332      0.0319
    158  N        -20.2250   15.7780   18.3730 N.3   334  ARG334     -0.1231
    159  CA       -19.5340   14.4900   18.2470 C.3   334  ARG334      0.1694
    160  C        -18.6370   14.4490   17.0180 C.2   334  ARG334      0.2592
    161  O        -19.0290   14.9440   15.9710 O.2   334  ARG334     -0.2718
    162  CB       -20.6290   13.4600   18.0200 C.3   334  ARG334      0.0321
    163  CG       -21.5190   13.1600   19.2120 C.3   334  ARG334      0.0489
    164  CD       -22.5040   12.0790   18.8090 C.3   334  ARG334      0.2205
    165  NE       -23.3010   11.6040   19.9210 N.pl3 334  ARG334     -0.0865
    166  CZ       -24.3110   10.7460   19.8080 C.cat 334  ARG334      0.5346
    167  NH1      -24.6610   10.2720   18.6090 N.pl3 334  ARG334      0.1354
    168  NH2      -24.9810   10.3590   20.9020 N.pl3 334  ARG334      0.1354
    169  N        -17.4450   13.8730   17.1240 N.am  335  LEU335     -0.1966
    170  CA       -16.6790   13.4900   15.9220 C.3   335  LEU335      0.1728
    171  C        -16.9530   12.0140   15.6530 C.2   335  LEU335      0.2616
    172  O        -17.1500   11.2470   16.5900 O.2   335  LEU335     -0.2715
    173  CB       -15.1790   13.7490   16.0930 C.3   335  LEU335      0.0311
    174  CG       -14.8120   15.0790   16.7940 C.3   335  LEU335      0.0022
    175  CD1      -13.3280   15.1960   17.1700 C.3   335  LEU335      0.0001
    176  CD2      -15.2460   16.3100   16.0040 C.3   335  LEU335      0.0001
    177  N        -16.9710   11.6290   14.3820 N.am  336  GLU336     -0.1977
    178  CA       -17.3110   10.2690   13.9540 C.3   336  GLU336      0.1602
    179  C        -16.3950    9.7790   12.8150 C.2   336  GLU336      0.2287
    180  O        -16.0660   10.5640   11.9060 O.2   336  GLU336     -0.2864
    181  CB       -18.7740   10.2350   13.5070 C.3   336  GLU336      0.0415
    182  CG       -19.7810   10.2310   14.6660 C.3   336  GLU336      0.1163
    183  CD       -21.2180    9.8760   14.2380 C.2   336  GLU336      0.3649
    184  OE1      -21.4770    9.6540   13.0250 O.co2 336  GLU336     -0.2457
    185  OE2      -22.1180    9.8380   15.1160 O.co2 336  GLU336     -0.2457
    186  N        -11.4470   20.4150   10.8780 N.3   404  CYS404     -0.1235
    187  CA       -12.1870   21.5000   10.2230 C.3   404  CYS404      0.1677
    188  C        -11.3190   22.3140    9.2960 C.2   404  CYS404      0.2270
    189  O        -10.4690   23.1040    9.7290 O.2   404  CYS404     -0.2867
    190  CB       -12.8620   22.4500   11.2070 C.3   404  CYS404      0.0956
    191  SG       -13.5670   23.8320   10.2830 S.3   404  CYS404     -0.0801
    192  N        -29.6270   19.6780   16.7770 N.3   444  LEU444     -0.1231
    193  CA       -28.5840   20.6970   16.7130 C.3   444  LEU444      0.1693
    194  C        -28.2390   21.2280   18.0870 C.2   444  LEU444      0.2591
    195  O        -29.0840   21.2630   18.9880 O.2   444  LEU444     -0.2718
    196  CB       -28.9970   21.8640   15.8260 C.3   444  LEU444      0.0284
    197  CG       -29.2120   21.5840   14.3470 C.3   444  LEU444      0.0019
    198  CD1      -30.7080   21.5480   14.0650 C.3   444  LEU444      0.0001
    199  CD2      -28.5310   22.6790   13.5370 C.3   444  LEU444      0.0001
    200  N        -26.9910   21.6450   18.2540 N.am  445  LEU445     -0.1980
    201  CA       -26.6220   22.3380   19.4780 C.3   445  LEU445      0.1596
    202  C        -27.0280   23.7820   19.3040 C.2   445  LEU445      0.2287
    203  O        -26.2650   24.6030   18.8010 O.2   445  LEU445     -0.2864
    204  CB       -25.1400   22.2190   19.7760 C.3   445  LEU445      0.0297
    205  CG       -24.7920   22.7040   21.1700 C.3   445  LEU445      0.0022
    206  CD1      -25.4760   21.8330   22.2000 C.3   445  LEU445      0.0001
    207  CD2      -23.2910   22.6840   21.3500 C.3   445  LEU445      0.0001
@<TRIPOS>BOND
     1    30    31    1
     2   104   102    1
     3    31    32    1
     4    31    34    1
     5   102   101    1
     6    26    25    2
     7    32    33    2
     8    25    24    1
     9    36    35    1
    10    36    37    1
    11    97    98    1
    12    35    34    1
    13    94    92   ar
    14    94    96   ar
    15   101    98    1
    16   101   103    1
    17    89    88    2
    18    92    91   ar
    19    96    95   ar
    20    98    99    1
    21    24    23    1
    22    24    27    1
    23    29    27    1
    24    88    87    1
    25    27    28    1
    26    91    90    1
    27    91    93   ar
    28    95    93   ar
    29    99   105   am
    30    99   100    2
    31   105   106    1
    32    90    87    1
    33    87    86    1
    34   110   112    1
    35   110   109    1
    36    50    48    1
    37    86    81   am
    38    79    80    1
    39   109   106    1
    40   109   111    1
    41    46    47    2
    42    46    45    1
    43   106   107    1
    44    48    45    1
    45    48    49    1
    46    51    49    1
    47    58    57    1
    48   107   108    2
    49    81    80    1
    50    81    82    2
    51    45    44    1
    52    38    39    1
    53    59    57    1
    54    80    83    1
    55    44    40   am
    56    85    83    1
    57    57    56    1
    58   113   114    1
    59    83    84    1
    60    43    42    1
    61    40    39    1
    62    40    41    2
    63    39    42    1
    64    56    53    1
    65    53    52    1
    66    53    54    1
    67    55    54    2
    68   117   114    1
    69   117   118    1
    70   114   115    1
    71    16    17    1
    72    16    13    1
    73    54    60   am
    74    12    13    1
    75    19    17   ar
    76    19    21   ar
    77    17    18   ar
    78    13    14    1
    79    14    15    2
    80   118   119   ar
    81   118   120   ar
    82   115   124   am
    83   115   116    2
    84    21    22   ar
    85   124   125    1
    86   119   121   ar
    87    18    20   ar
    88    60    61    1
    89   128   125    1
    90    22    20   ar
    91   120   122   ar
    92     4     3    2
    93   125   126    1
    94    10     9    1
    95   121   123   ar
    96     1     2    1
    97    61    62    1
    98    61    64    1
    99   126   127    2
   100    65    67    1
   101    65    64    1
   102    65    66    1
   103     3     2    1
   104   122   123   ar
   105    62    63    2
   106     2     5    1
   107     5     6    1
   108     9    11    1
   109     9     8    2
   110     6     7    1
   111     7     8    1
   112   129   130    1
   113   188   189    2
   114   188   187    1
   115   133   130    1
   116   133   134    1
   117   187   186    1
   118   187   190    1
   119   191   190    1
   120   130   131    1
   121    68    69    1
   122    74    76   ar
   123    74    73   ar
   124   143   142    1
   125   144   142    1
   126   134   135    1
   127    69    72    1
   128    69    70    1
   129    76    78   ar
   130    72    73    1
   131   138   131   am
   132   138   139    1
   133   131   132    2
   134    73    75   ar
   135   142   139    1
   136   180   179    2
   137   136   135   ar
   138   135   137   ar
   139   139   140    1
   140    78    77   ar
   141    70    71    2
   142   179   178    1
   143   140   141    2
   144    75    77   ar
   145   184   183   ar
   146   181   178    1
   147   181   182    1
   148   199   197    1
   149   178   177    1
   150   198   197    1
   151   183   182    1
   152   183   185   ar
   153   197   196    1
   154   177   171   am
   155   151   149    1
   156   157   154    1
   157   171   170    1
   158   171   172    2
   159   196   193    1
   160   170   173    1
   161   170   169    1
   162   161   160    2
   163   176   174    1
   164   154   153    1
   165   154   155    1
   166   173   174    1
   167   156   155    2
   168   153   147   am
   169   193   192    1
   170   193   194    1
   171   148   147    2
   172   174   175    1
   173   149   150    1
   174   149   146    1
   175   150   152    1
   176   147   146    1
   177   160   169   am
   178   160   159    1
   179   146   145    1
   180   162   159    1
   181   162   163    1
   182   194   200   am
   183   194   195    2
   184   159   158    1
   185   200   201    1
   186   167   166    1
   187   203   202    2
   188   164   163    1
   189   164   165    1
   190   202   201    1
   191   201   204    1
   192   204   205    1
   193   166   165    2
   194   166   168    1
   195   205   207    1
   196   205   206    1
