@<TRIPOS>MOLECULE
tmp/4d7fA00.pdb
 214 213 0 0 0
SMALL
GASTEIGER

@<TRIPOS>ATOM
      1  N        -36.6780  -57.6050   -3.5130 N.3    26  ARG26      -0.1231
      2  CA       -35.3180  -57.0860   -3.3220 C.3    26  ARG26       0.1694
      3  C        -35.0300  -55.7320   -4.0340 C.2    26  ARG26       0.2592
      4  O        -35.6710  -55.3400   -5.0430 O.2    26  ARG26      -0.2718
      5  CB       -34.3070  -58.1100   -3.8290 C.3    26  ARG26       0.0321
      6  CG       -34.3150  -58.2300   -5.3440 C.3    26  ARG26       0.0489
      7  CD       -33.7860  -59.5750   -5.8100 C.3    26  ARG26       0.2205
      8  NE       -34.4700  -60.6770   -5.1470 N.pl3  26  ARG26      -0.0865
      9  CZ       -34.3490  -61.9520   -5.4970 C.cat  26  ARG26       0.5346
     10  NH1      -33.5770  -62.2950   -6.5170 N.pl3  26  ARG26       0.1354
     11  NH2      -35.0110  -62.8830   -4.8280 N.pl3  26  ARG26       0.1354
     12  N        -34.0470  -55.0170   -3.5010 N.am   27  HIS27      -0.1962
     13  CA       -33.5700  -53.7970   -4.1300 C.3    27  HIS27       0.1787
     14  C        -33.0060  -54.1500   -5.4970 C.2    27  HIS27       0.2620
     15  O        -32.2450  -55.1070   -5.6350 O.2    27  HIS27      -0.2715
     16  CB       -32.5100  -53.1540   -3.2480 C.3    27  HIS27       0.0785
     17  CG       -31.7190  -52.0910   -3.9270 C.ar   27  HIS27       0.0821
     18  ND1      -32.1020  -50.7640   -3.9290 N.ar   27  HIS27      -0.2267
     19  CD2      -30.5470  -52.1500   -4.5990 C.ar   27  HIS27       0.1154
     20  CE1      -31.2100  -50.0580   -4.5990 C.ar   27  HIS27       0.1986
     21  NE2      -30.2620  -50.8770   -5.0250 N.ar   27  HIS27      -0.2212
     22  N        -33.3850  -53.3660   -6.4960 N.am   28  LEU28      -0.1963
     23  CA       -32.9080  -53.5240   -7.8600 C.3    28  LEU28       0.1728
     24  C        -31.9270  -52.4290   -8.2760 C.2    28  LEU28       0.2616
     25  O        -30.8610  -52.7080   -8.8180 O.2    28  LEU28      -0.2715
     26  CB       -34.1120  -53.5290   -8.7920 C.3    28  LEU28       0.0311
     27  CG       -33.8370  -53.6230  -10.2860 C.3    28  LEU28       0.0022
     28  CD1      -33.1940  -54.9570  -10.6030 C.3    28  LEU28       0.0001
     29  CD2      -35.1250  -53.4690  -11.0750 C.3    28  LEU28       0.0001
     30  N        -32.2980  -51.1710   -8.0560 N.am   29  CYS29      -0.1968
     31  CA       -31.5160  -50.0410   -8.5420 C.3    29  CYS29       0.1712
     32  C        -31.8430  -48.8020   -7.7460 C.2    29  CYS29       0.2296
     33  O        -32.8490  -48.7650   -7.0490 O.2    29  CYS29      -0.2864
     34  CB       -31.8380  -49.7510  -10.0000 C.3    29  CYS29       0.0983
     35  SG       -30.8920  -50.7780  -11.1490 S.3    29  CYS29      -0.0798
     36  N        -30.4370  -49.8700  -18.0200 N.3    44  HIS44      -0.1226
     37  CA       -29.9670  -51.2450  -17.8330 C.3    44  HIS44       0.1752
     38  C        -30.6000  -51.9400  -16.6360 C.2    44  HIS44       0.2596
     39  O        -30.5690  -53.1610  -16.5350 O.2    44  HIS44      -0.2718
     40  CB       -28.4500  -51.2980  -17.7400 C.3    44  HIS44       0.0759
     41  CG       -27.9130  -50.8200  -16.4300 C.ar   44  HIS44       0.0818
     42  ND1      -27.2660  -49.6150  -16.2960 N.ar   44  HIS44      -0.2268
     43  CD2      -27.9230  -51.3840  -15.2010 C.ar   44  HIS44       0.1154
     44  CE1      -26.8890  -49.4580  -15.0390 C.ar   44  HIS44       0.1986
     45  NE2      -27.2820  -50.5150  -14.3530 N.ar   44  HIS44      -0.2212
     46  N        -31.1720  -51.1700  -15.7170 N.am   45  CYS45      -0.1970
     47  CA       -31.8740  -51.7490  -14.5680 C.3    45  CYS45       0.1712
     48  C        -33.0310  -52.6730  -14.9320 C.2    45  CYS45       0.2296
     49  O        -33.4080  -53.5300  -14.1370 O.2    45  CYS45      -0.2864
     50  CB       -32.4010  -50.6330  -13.6720 C.3    45  CYS45       0.0983
     51  SG       -31.0620  -49.7610  -12.8720 S.3    45  CYS45      -0.0798
     52  N        -33.3070  -54.8880  -17.4700 N.3    47  TYR47      -0.1241
     53  CA       -32.9910  -56.0970  -18.2220 C.3    47  TYR47       0.1605
     54  C        -33.8900  -57.2240  -17.7400 C.2    47  TYR47       0.2264
     55  O        -33.9580  -57.5000  -16.5570 O.2    47  TYR47      -0.2867
     56  CB       -31.5310  -56.5010  -18.0410 C.3    47  TYR47       0.0534
     57  CG       -31.2510  -57.8130  -18.7250 C.ar   47  TYR47      -0.0201
     58  CD1      -31.0480  -57.8560  -20.0920 C.ar   47  TYR47      -0.0009
     59  CD2      -31.2450  -59.0070  -18.0120 C.ar   47  TYR47      -0.0009
     60  CE1      -30.8210  -59.0500  -20.7390 C.ar   47  TYR47       0.0417
     61  CE2      -31.0170  -60.2170  -18.6560 C.ar   47  TYR47       0.0417
     62  CZ       -30.8050  -60.2160  -20.0210 C.ar   47  TYR47       0.1957
     63  OH       -30.5800  -61.3870  -20.7020 O.3    47  TYR47      -0.2866
     64  N        -22.9680  -52.4570   -3.1460 N.3   134  TYR134     -0.1241
     65  CA       -21.8410  -53.1380   -2.5130 C.3   134  TYR134      0.1605
     66  C        -20.7840  -52.1510   -2.0230 C.2   134  TYR134      0.2264
     67  O        -20.5960  -51.0990   -2.6140 O.2   134  TYR134     -0.2867
     68  CB       -21.1520  -54.0230   -3.5460 C.3   134  TYR134      0.0534
     69  CG       -21.9080  -55.2170   -4.0770 C.ar  134  TYR134     -0.0201
     70  CD1      -23.2710  -55.4150   -3.8460 C.ar  134  TYR134     -0.0009
     71  CD2      -21.2320  -56.1540   -4.8500 C.ar  134  TYR134     -0.0009
     72  CE1      -23.9310  -56.5110   -4.3740 C.ar  134  TYR134      0.0417
     73  CE2      -21.8780  -57.2460   -5.3760 C.ar  134  TYR134      0.0417
     74  CZ       -23.2220  -57.4240   -5.1440 C.ar  134  TYR134      0.1957
     75  OH       -23.8370  -58.5230   -5.6870 O.3   134  TYR134     -0.2866
     76  N        -22.6350  -57.2670   -0.8760 N.3   140  LYS140     -0.1231
     77  CA       -24.0830  -57.3710   -0.8720 C.3   140  LYS140      0.1693
     78  C        -24.6840  -55.9870   -0.7030 C.2   140  LYS140      0.2591
     79  O        -23.9750  -55.0210   -0.4320 O.2   140  LYS140     -0.2718
     80  CB       -24.5470  -58.2640    0.2720 C.3   140  LYS140      0.0285
     81  CG       -24.1650  -57.7440    1.6490 C.3   140  LYS140      0.0035
     82  CD       -24.5570  -58.7320    2.7310 C.3   140  LYS140      0.0206
     83  CE       -23.8650  -58.4180    4.0460 C.3   140  LYS140      0.1093
     84  NZ       -24.0190  -59.5420    5.0090 N.3   140  LYS140     -0.1314
     85  N        -25.9980  -55.9180   -0.8740 N.am  141  ILE141     -0.1980
     86  CA       -26.7390  -54.6670   -0.7110 C.3   141  ILE141      0.1595
     87  C        -26.6790  -54.2430    0.7560 C.2   141  ILE141      0.2287
     88  O        -26.8940  -55.0550    1.6620 O.2   141  ILE141     -0.2864
     89  CB       -28.2000  -54.8310   -1.1860 C.3   141  ILE141      0.0276
     90  CG1      -28.2550  -55.1830   -2.6860 C.3   141  ILE141      0.0022
     91  CG2      -29.0410  -53.5870   -0.8960 C.3   141  ILE141      0.0022
     92  CD1      -27.4590  -54.2850   -3.6180 C.3   141  ILE141      0.0001
     93  N        -16.0310  -45.0700   -5.1350 N.3   182  ASP182     -0.1225
     94  CA       -16.7520  -45.2990   -6.3810 C.3   182  ASP182      0.1805
     95  C        -18.1390  -45.8420   -6.0690 C.2   182  ASP182      0.2598
     96  O        -18.3990  -46.3230   -4.9720 O.2   182  ASP182     -0.2718
     97  CB       -15.9610  -46.3180   -7.2380 C.3   182  ASP182      0.1424
     98  CG       -16.3600  -46.3350   -8.7190 C.2   182  ASP182      0.3668
     99  OD1      -17.1960  -45.5240   -9.1710 O.co2 182  ASP182     -0.2456
    100  OD2      -15.8010  -47.1930   -9.4650 O.co2 182  ASP182     -0.2456
    101  N        -19.0310  -45.7500   -7.0460 N.am  183  ALA183     -0.1966
    102  CA       -20.2420  -46.5540   -7.0410 C.3   183  ALA183      0.1728
    103  C        -19.8550  -48.0130   -7.2930 C.2   183  ALA183      0.2616
    104  O        -18.7940  -48.2830   -7.8610 O.2   183  ALA183     -0.2715
    105  CB       -21.1860  -46.0740   -8.1250 C.3   183  ALA183      0.0334
    106  N        -20.7090  -48.9360   -6.8680 N.am  184  CYS184     -0.1954
    107  CA       -20.5450  -50.3650   -7.1470 C.3   184  CYS184      0.1843
    108  C        -21.9110  -51.0110   -7.3730 C.2   184  CYS184      0.2625
    109  O        -22.9220  -50.3150   -7.5310 O.2   184  CYS184     -0.2714
    110  CB       -19.7920  -51.0560   -6.0140 C.3   184  CYS184      0.0997
    111  SG       -18.9450  -52.6010   -6.4750 S.3   184  CYS184     -0.0797
    112  N        -21.9420  -52.3380   -7.3740 N.am  185  LYS185     -0.1963
    113  CA       -23.1510  -53.0690   -7.7350 C.3   185  LYS185      0.1728
    114  C        -24.3210  -52.7410   -6.8180 C.2   185  LYS185      0.2616
    115  O        -24.1920  -52.8000   -5.6080 O.2   185  LYS185     -0.2715
    116  CB       -22.8940  -54.5640   -7.7350 C.3   185  LYS185      0.0311
    117  CG       -21.7450  -54.9320   -8.6590 C.3   185  LYS185      0.0038
    118  CD       -21.9670  -56.2490   -9.3750 C.3   185  LYS185      0.0206
    119  CE       -22.3430  -57.3650   -8.4260 C.3   185  LYS185      0.1093
    120  NZ       -22.3690  -58.6990   -9.0850 N.3   185  LYS185     -0.1314
    121  N        -25.4480  -52.3660   -7.4140 N.am  186  GLY186     -0.1955
    122  CA       -26.6230  -51.9670   -6.6460 C.3   186  GLY186      0.1869
    123  C        -26.8050  -50.4600   -6.5850 C.2   186  GLY186      0.2309
    124  O        -27.8910  -49.9770   -6.2200 O.2   186  GLY186     -0.2863
    125  N        -26.3720  -48.5380   -9.3020 N.3   188  SER188     -0.1217
    126  CA       -26.6970  -48.0420  -10.6190 C.3   188  SER188      0.1889
    127  C        -28.1130  -47.4830  -10.6390 C.2   188  SER188      0.2288
    128  O        -28.9720  -47.9060   -9.8510 O.2   188  SER188     -0.2866
    129  CB       -26.5130  -49.1040  -11.6900 C.3   188  SER188      0.2089
    130  OG       -27.5050  -50.0860  -11.6130 O.3   188  SER188     -0.2183
    131  N        -25.6410  -43.0260  -12.3670 N.3   206  THR206     -0.1203
    132  CA       -24.6740  -44.1160  -12.2040 C.3   206  THR206      0.1994
    133  C        -24.9170  -45.2140  -13.2290 C.2   206  THR206      0.2619
    134  O        -26.0060  -45.7840  -13.3070 O.2   206  THR206     -0.2717
    135  CB       -24.7520  -44.6620  -10.7840 C.3   206  THR206      0.1784
    136  OG1      -24.4570  -43.5980   -9.8680 O.3   206  THR206     -0.2211
    137  CG2      -23.7550  -45.8000  -10.5670 C.3   206  THR206      0.0376
    138  N        -23.8940  -45.5240  -14.0190 N.am  207  SER207     -0.1937
    139  CA       -24.1190  -46.3430  -15.2030 C.3   207  SER207      0.2055
    140  C        -23.2140  -47.5780  -15.2410 C.2   207  SER207      0.2643
    141  O        -23.7030  -48.7100  -15.0880 O.2   207  SER207     -0.2714
    142  CB       -23.9720  -45.4960  -16.4500 C.3   207  SER207      0.2130
    143  OG       -24.2910  -46.2400  -17.6150 O.3   207  SER207     -0.2179
    144  N        -21.9130  -47.3610  -15.4150 N.am  208  TRP208     -0.1959
    145  CA       -20.9770  -48.4820  -15.5530 C.3   208  TRP208      0.1771
    146  C        -19.5480  -48.1290  -15.1790 C.2   208  TRP208      0.2620
    147  O        -19.2180  -46.9800  -14.9010 O.2   208  TRP208     -0.2715
    148  CB       -21.0270  -49.0550  -16.9860 C.3   208  TRP208      0.0590
    149  CG       -20.5530  -48.1350  -18.0730 C.ar  208  TRP208      0.0006
    150  CD1      -21.2890  -47.1770  -18.7060 C.ar  208  TRP208      0.0946
    151  CD2      -19.2500  -48.1020  -18.6840 C.ar  208  TRP208      0.0152
    152  NE1      -20.5340  -46.5390  -19.6490 N.ar  208  TRP208     -0.2442
    153  CE2      -19.2800  -47.0940  -19.6650 C.ar  208  TRP208      0.0810
    154  CE3      -18.0660  -48.8350  -18.4980 C.ar  208  TRP208      0.0012
    155  CZ2      -18.1670  -46.7810  -20.4600 C.ar  208  TRP208      0.0191
    156  CZ3      -16.9570  -48.5210  -19.2940 C.ar  208  TRP208      0.0001
    157  CH2      -17.0210  -47.5060  -20.2550 C.ar  208  TRP208      0.0015
    158  N        -18.7050  -49.1550  -15.1610 N.am  209  GLY209     -0.1940
    159  CA       -17.2780  -48.9670  -14.9660 C.3   209  GLY209      0.2014
    160  C        -16.6140  -50.3250  -14.8980 C.2   209  GLY209      0.2639
    161  O        -17.2990  -51.3480  -14.8410 O.2   209  GLY209     -0.2714
    162  N        -15.2830  -50.3420  -14.9100 N.am  210  GLU210     -0.1963
    163  CA       -14.5490  -51.6040  -14.8340 C.3   210  GLU210      0.1733
    164  C        -14.2980  -51.9730  -13.3880 C.2   210  GLU210      0.2617
    165  O        -13.4180  -51.4080  -12.7420 O.2   210  GLU210     -0.2715
    166  CB       -13.2110  -51.5340  -15.5780 C.3   210  GLU210      0.0429
    167  CG       -12.4760  -52.8770  -15.5910 C.3   210  GLU210      0.1163
    168  CD       -13.2820  -53.9860  -16.2650 C.2   210  GLU210      0.3649
    169  OE1      -13.6040  -53.8120  -17.4550 O.co2 210  GLU210     -0.2457
    170  OE2      -13.5990  -55.0220  -15.6230 O.co2 210  GLU210     -0.2457
    171  N        -15.0600  -52.9300  -12.8820 N.am  211  GLY211     -0.1940
    172  CA       -15.0130  -53.2780  -11.4770 C.3   211  GLY211      0.2014
    173  C        -15.5400  -52.0990  -10.6770 C.2   211  GLY211      0.2639
    174  O        -16.3770  -51.3380  -11.1720 O.2   211  GLY211     -0.2714
    175  N        -15.0410  -51.9340   -9.4610 N.am  212  CYS212     -0.1967
    176  CA       -15.4480  -50.8180   -8.6020 C.3   212  CYS212      0.1712
    177  C        -14.2490  -50.2400   -7.8670 C.2   212  CYS212      0.2296
    178  O        -13.5370  -50.9750   -7.1950 O.2   212  CYS212     -0.2864
    179  CB       -16.4600  -51.3010   -7.5590 C.3   212  CYS212      0.0983
    180  SG       -17.9250  -52.1450   -8.2080 S.3   212  CYS212     -0.0798
    181  N         -9.5110  -46.0860  -13.1180 N.3   217  ARG217     -0.1245
    182  CA       -10.7470  -46.5660  -13.7200 C.3   217  ARG217      0.1563
    183  C        -11.8920  -45.7650  -13.0970 C.2   217  ARG217      0.2260
    184  O        -12.5590  -46.2510  -12.1950 O.2   217  ARG217     -0.2867
    185  CB       -10.9590  -48.0590  -13.4650 C.3   217  ARG217      0.0307
    186  CG        -9.9880  -48.9930  -14.1840 C.3   217  ARG217      0.0489
    187  CD       -10.1860  -49.0100  -15.6920 C.3   217  ARG217      0.2205
    188  NE        -9.5770  -50.2090  -16.2760 N.pl3 217  ARG217     -0.0865
    189  CZ        -9.8050  -50.6750  -17.5010 C.cat 217  ARG217      0.5346
    190  NH1      -10.6360  -50.0520  -18.3290 N.pl3 217  ARG217      0.1354
    191  NH2       -9.2020  -51.7940  -17.9040 N.pl3 217  ARG217      0.1354
    192  N        -15.5790  -44.0310  -12.5460 N.3   219  GLY219     -0.1210
    193  CA       -16.9530  -44.4330  -12.8330 C.3   219  GLY219      0.1956
    194  C        -17.4980  -43.6460  -14.0040 C.2   219  GLY219      0.2612
    195  O        -17.1510  -42.4740  -14.1920 O.2   219  GLY219     -0.2717
    196  N        -18.3500  -44.2890  -14.7960 N.am  220  VAL220     -0.1965
    197  CA       -18.9650  -43.6520  -15.9400 C.3   220  VAL220      0.1727
    198  C        -20.4490  -43.4740  -15.6580 C.2   220  VAL220      0.2616
    199  O        -21.1170  -44.3970  -15.1880 O.2   220  VAL220     -0.2715
    200  CB       -18.7390  -44.4480  -17.2420 C.3   220  VAL220      0.0290
    201  CG1      -19.1760  -43.6310  -18.4460 C.3   220  VAL220      0.0023
    202  CG2      -17.2750  -44.8390  -17.3730 C.3   220  VAL220      0.0023
    203  N        -20.9320  -42.2700  -15.9560 N.am  221  TYR221     -0.1974
    204  CA       -22.2920  -41.8410  -15.6490 C.3   221  TYR221      0.1639
    205  C        -22.9240  -41.2870  -16.9030 C.2   221  TYR221      0.2290
    206  O        -22.2450  -40.7180  -17.7550 O.2   221  TYR221     -0.2864
    207  CB       -22.2830  -40.7380  -14.5710 C.3   221  TYR221      0.0560
    208  CG       -21.6530  -41.1740  -13.2730 C.ar  221  TYR221     -0.0198
    209  CD1      -20.2680  -41.2580  -13.1360 C.ar  221  TYR221     -0.0009
    210  CD2      -22.4360  -41.5040  -12.1770 C.ar  221  TYR221     -0.0009
    211  CE1      -19.6910  -41.6910  -11.9520 C.ar  221  TYR221      0.0417
    212  CE2      -21.8680  -41.9320  -10.9980 C.ar  221  TYR221      0.0417
    213  CZ       -20.4990  -42.0120  -10.8810 C.ar  221  TYR221      0.1957
    214  OH       -19.9780  -42.4520   -9.6830 O.3   221  TYR221     -0.2866
@<TRIPOS>BOND
     1    60    58   ar
     2    60    62   ar
     3    63    62    1
     4   155   157   ar
     5   155   153   ar
     6   157   156   ar
     7    58    57   ar
     8    62    61   ar
     9   153   152   ar
    10   153   151   ar
    11   152   150   ar
    12   156   154   ar
    13    57    56    1
    14    57    59   ar
    15   150   149   ar
    16   151   154   ar
    17   151   149   ar
    18    61    59   ar
    19   201   200    1
    20   190   189    1
    21    53    56    1
    22    53    54    1
    23    53    52    1
    24   149   148    1
    25    36    37    1
    26   191   189    1
    27    37    40    1
    28    37    38    1
    29   206   205    2
    30    54    55    2
    31    40    41    1
    32   143   142    1
    33   189   188    2
    34   169   168   ar
    35   202   200    1
    36   200   197    1
    37   148   145    1
    38   205   204    1
    39    38    39    2
    40    38    46   am
    41   142   139    1
    42    41    42   ar
    43    41    43   ar
    44    42    44   ar
    45   188   187    1
    46   168   170   ar
    47   168   167    1
    48   203   198   am
    49   203   204    1
    50   197   198    1
    51   197   196    1
    52    46    47    1
    53   187   186    1
    54   198   199    2
    55   204   207    1
    56   167   166    1
    57   166   163    1
    58   145   144    1
    59   145   146    1
    60   144   140   am
    61   140   139    1
    62   140   141    2
    63   139   138    1
    64    43    45   ar
    65   146   158   am
    66   146   147    2
    67   158   159    1
    68    44    45   ar
    69   159   160    1
    70    48    47    1
    71    48    49    2
    72   162   160   am
    73   162   163    1
    74   160   161    2
    75   163   164    1
    76   196   194   am
    77   207   208    1
    78    47    50    1
    79   195   194    2
    80   186   185    1
    81   138   133   am
    82   194   193    1
    83   182   185    1
    84   182   181    1
    85   182   183    1
    86    50    51    1
    87   164   171   am
    88   164   165    2
    89   134   133    2
    90   208   209   ar
    91   208   210   ar
    92   133   132    1
    93   209   211   ar
    94   183   184    2
    95   171   172    1
    96    51    35    1
    97   193   192    1
    98   131   132    1
    99   132   135    1
   100   210   212   ar
   101   211   213   ar
   102   129   130    1
   103   129   126    1
   104   172   173    1
   105   174   173    2
   106    35    34    1
   107    29    27    1
   108   212   213   ar
   109   213   214    1
   110   135   137    1
   111   135   136    1
   112   173   175   am
   113   127   126    1
   114   127   128    2
   115   126   125    1
   116    28    27    1
   117    27    26    1
   118    34    31    1
   119   100    98   ar
   120   175   176    1
   121   118   117    1
   122   118   119    1
   123    99    98   ar
   124   120   119    1
   125    25    24    2
   126    26    23    1
   127    98    97    1
   128   117   116    1
   129   176   177    1
   130   176   179    1
   131    31    30    1
   132    31    32    1
   133    24    30   am
   134    24    23    1
   135   180   179    1
   136   180   111    1
   137   105   102    1
   138   177   178    2
   139   104   103    2
   140    23    22    1
   141    32    33    2
   142   113   116    1
   143   113   112    1
   144   113   114    1
   145   109   108    2
   146   121   114   am
   147   121   122    1
   148   112   108   am
   149   108   107    1
   150   103   102    1
   151   103   106   am
   152    97    94    1
   153   107   106    1
   154   107   110    1
   155   101   102    1
   156   101    95   am
   157   114   115    2
   158   122   123    1
   159   123   124    2
   160    10     9    1
   161    22    14   am
   162   111   110    1
   163    94    95    1
   164    94    93    1
   165    95    96    2
   166     7     6    1
   167     7     8    1
   168    75    74    1
   169    15    14    2
   170     9     8    2
   171     9    11    1
   172    14    13    1
   173    73    74   ar
   174    73    71   ar
   175     6     5    1
   176    74    72   ar
   177     4     3    2
   178    21    20   ar
   179    21    19   ar
   180    71    69   ar
   181    20    18   ar
   182    19    17   ar
   183    72    70   ar
   184    13    12    1
   185    13    16    1
   186    69    70   ar
   187    69    68    1
   188     3    12   am
   189     3     2    1
   190    18    17   ar
   191    17    16    1
   192     5     2    1
   193    92    90    1
   194    68    65    1
   195     1     2    1
   196    64    65    1
   197    90    89    1
   198    67    66    2
   199    65    66    1
   200    89    91    1
   201    89    86    1
   202    76    77    1
   203    85    86    1
   204    85    78   am
   205    77    78    1
   206    77    80    1
   207    86    87    1
   208    78    79    2
   209    80    81    1
   210    87    88    2
   211    81    82    1
   212    82    83    1
   213    83    84    1
