@<TRIPOS>MOLECULE
tmp/4d7gA00.pdb
 194 193 0 0 0
SMALL
GASTEIGER

@<TRIPOS>ATOM
      1  N        -57.3330   37.0350   -3.5610 N.3    26  ARG26      -0.1231
      2  CA       -56.8950   35.6610   -3.3730 C.3    26  ARG26       0.1694
      3  C        -55.5010   35.3970   -4.0230 C.2    26  ARG26       0.2592
      4  O        -55.0980   36.0810   -4.9790 O.2    26  ARG26      -0.2718
      5  CB       -57.9780   34.6730   -3.9080 C.3    26  ARG26       0.0321
      6  CG       -58.0770   34.5880   -5.4460 C.3    26  ARG26       0.0489
      7  CD       -59.2970   33.8110   -5.9250 C.3    26  ARG26       0.2205
      8  NE       -60.5160   34.6330   -5.8990 N.pl3  26  ARG26      -0.0865
      9  CZ       -61.4840   34.5340   -4.9890 C.cat  26  ARG26       0.5346
     10  NH1      -61.4070   33.6270   -4.0200 N.pl3  26  ARG26       0.1354
     11  NH2      -62.5370   35.3370   -5.0450 N.pl3  26  ARG26       0.1354
     12  N        -54.8170   34.3540   -3.5250 N.am   27  HIS27      -0.1962
     13  CA       -53.5540   33.8540   -4.0590 C.3    27  HIS27       0.1787
     14  C        -53.8930   33.2490   -5.3810 C.2    27  HIS27       0.2620
     15  O        -54.9010   32.5530   -5.5010 O.2    27  HIS27      -0.2715
     16  CB       -52.9200   32.7970   -3.1190 C.3    27  HIS27       0.0785
     17  CG       -51.8560   31.9570   -3.7630 C.ar   27  HIS27       0.0821
     18  ND1      -50.4980   32.2870   -3.6590 N.ar   27  HIS27      -0.2267
     19  CD2      -51.9790   30.8250   -4.4980 C.ar   27  HIS27       0.1154
     20  CE1      -49.8590   31.3670   -4.3550 C.ar   27  HIS27       0.1986
     21  NE2      -50.7100   30.4610   -4.8750 N.ar   27  HIS27      -0.2212
     22  N        -53.0430   33.5160   -6.3790 N.am   28  LEU28      -0.1963
     23  CA       -53.1590   33.0340   -7.7320 C.3    28  LEU28       0.1728
     24  C        -52.0450   32.0470   -8.0750 C.2    28  LEU28       0.2616
     25  O        -52.3310   30.9580   -8.5650 O.2    28  LEU28      -0.2715
     26  CB       -53.0890   34.2590   -8.6810 C.3    28  LEU28       0.0311
     27  CG       -53.1990   33.9960  -10.1790 C.3    28  LEU28       0.0022
     28  CD1      -54.5310   33.3420  -10.5110 C.3    28  LEU28       0.0001
     29  CD2      -53.0770   35.2770  -10.9460 C.3    28  LEU28       0.0001
     30  N        -50.7730   32.4660   -7.9020 N.am   29  CYS29      -0.1968
     31  CA       -49.6050   31.7160   -8.3110 C.3    29  CYS29       0.1712
     32  C        -48.4150   31.9540   -7.4340 C.2    29  CYS29       0.2296
     33  O        -48.3590   32.9390   -6.7090 O.2    29  CYS29      -0.2864
     34  CB       -49.2730   32.0380   -9.7640 C.3    29  CYS29       0.0983
     35  SG       -50.2010   31.0420  -10.9550 S.3    29  CYS29      -0.0798
     36  N        -49.3600   30.3620  -17.7870 N.3    44  HIS44      -0.1226
     37  CA       -50.7370   29.8810  -17.5940 C.3    44  HIS44       0.1752
     38  C        -51.4690   30.5670  -16.4740 C.2    44  HIS44       0.2596
     39  O        -52.7020   30.5590  -16.4360 O.2    44  HIS44      -0.2718
     40  CB       -50.7640   28.3520  -17.4140 C.3    44  HIS44       0.0759
     41  CG       -50.2370   27.8670  -16.1030 C.ar   44  HIS44       0.0818
     42  ND1      -49.0180   27.2130  -16.0150 N.ar   44  HIS44      -0.2268
     43  CD2      -50.7970   27.9130  -14.8740 C.ar   44  HIS44       0.1154
     44  CE1      -48.8690   26.9080  -14.7440 C.ar   44  HIS44       0.1986
     45  NE2      -49.9080   27.3280  -14.0160 N.ar   44  HIS44      -0.2212
     46  N        -50.7010   31.1520  -15.5520 N.am   45  CYS45      -0.1970
     47  CA       -51.1640   31.8940  -14.3950 C.3    45  CYS45       0.1712
     48  C        -52.0430   33.0880  -14.7650 C.2    45  CYS45       0.2296
     49  O        -52.9070   33.4860  -13.9670 O.2    45  CYS45      -0.2864
     50  CB       -49.9580   32.3500  -13.5790 C.3    45  CYS45       0.0983
     51  SG       -49.1340   31.0280  -12.6580 S.3    45  CYS45      -0.0798
     52  N        -54.2320   33.4910  -17.4250 N.3    47  TYR47      -0.1241
     53  CA       -55.4180   33.2060  -18.2260 C.3    47  TYR47       0.1605
     54  C        -56.5900   34.0690  -17.6950 C.2    47  TYR47       0.2264
     55  O        -56.9320   34.0000  -16.5230 O.2    47  TYR47      -0.2867
     56  CB       -55.7700   31.6840  -18.2210 C.3    47  TYR47       0.0534
     57  CG       -57.0880   31.4070  -18.9140 C.ar   47  TYR47      -0.0201
     58  CD1      -57.1550   31.2720  -20.3000 C.ar   47  TYR47      -0.0009
     59  CD2      -58.2830   31.4050  -18.2030 C.ar   47  TYR47      -0.0009
     60  CE1      -58.3800   31.1220  -20.9550 C.ar   47  TYR47       0.0417
     61  CE2      -59.5100   31.2790  -18.8470 C.ar   47  TYR47       0.0417
     62  CZ       -59.5540   31.1240  -20.2220 C.ar   47  TYR47       0.1957
     63  OH       -60.7750   30.9880  -20.8440 O.3    47  TYR47      -0.2866
     64  N        -52.4160   23.2410   -2.6020 N.3   134  TYR134     -0.1241
     65  CA       -53.1530   22.1050   -2.0350 C.3   134  TYR134      0.1605
     66  C        -52.2110   21.0370   -1.4490 C.2   134  TYR134      0.2264
     67  O        -51.1480   20.7830   -2.0140 O.2   134  TYR134     -0.2867
     68  CB       -53.9630   21.4680   -3.1510 C.3   134  TYR134      0.0534
     69  CG       -55.2400   22.1650   -3.5520 C.ar  134  TYR134     -0.0201
     70  CD1      -55.3670   23.5500   -3.4600 C.ar  134  TYR134     -0.0009
     71  CD2      -56.2700   21.4580   -4.1680 C.ar  134  TYR134     -0.0009
     72  CE1      -56.5000   24.2050   -3.9300 C.ar  134  TYR134      0.0417
     73  CE2      -57.4170   22.0960   -4.6110 C.ar  134  TYR134      0.0417
     74  CZ       -57.5270   23.4700   -4.4990 C.ar  134  TYR134      0.1957
     75  OH       -58.6700   24.0790   -4.9400 O.3   134  TYR134     -0.2866
     76  N        -57.5580   23.1640   -0.2730 N.3   140  LYS140     -0.1231
     77  CA       -57.5730   24.6150   -0.2900 C.3   140  LYS140      0.1693
     78  C        -56.1310   25.1490   -0.1840 C.2   140  LYS140      0.2591
     79  O        -55.2330   24.4040    0.2090 O.2   140  LYS140     -0.2718
     80  CB       -58.4380   25.1350    0.8910 C.3   140  LYS140      0.0285
     81  CG       -58.0320   24.6140    2.2740 C.3   140  LYS140      0.0035
     82  CD       -58.8290   25.2800    3.3840 C.3   140  LYS140      0.0206
     83  CE       -58.5120   24.6880    4.7370 C.3   140  LYS140      0.1093
     84  NZ       -59.2150   25.4130    5.8310 N.3   140  LYS140     -0.1314
     85  N        -55.9240   26.4500   -0.5170 N.am  141  ILE141     -0.1980
     86  CA       -54.6400   27.1680   -0.4000 C.3   141  ILE141      0.1595
     87  C        -54.2330   27.1140    1.0780 C.2   141  ILE141      0.2287
     88  O        -55.0900   27.2510    1.9650 O.2   141  ILE141     -0.2864
     89  CB       -54.7660   28.6380   -0.9590 C.3   141  ILE141      0.0276
     90  CG1      -55.0080   28.6520   -2.4880 C.3   141  ILE141      0.0022
     91  CG2      -53.5650   29.5520   -0.5780 C.3   141  ILE141      0.0022
     92  CD1      -54.1280   27.7410   -3.4050 C.3   141  ILE141      0.0001
     93  N        -45.2620   16.0940   -4.3570 N.3   182  ASP182     -0.1225
     94  CA       -45.3720   16.8970   -5.5710 C.3   182  ASP182      0.1805
     95  C        -45.9980   18.2660   -5.3110 C.2   182  ASP182      0.2598
     96  O        -46.6620   18.4860   -4.2980 O.2   182  ASP182     -0.2718
     97  CB       -46.3220   16.1250   -6.5390 C.3   182  ASP182      0.1424
     98  CG       -46.4780   16.5360   -8.0130 C.2   182  ASP182      0.3668
     99  OD1      -45.6030   17.3020   -8.5320 O.co2 182  ASP182     -0.2456
    100  OD2      -47.4540   16.0660   -8.6580 O.co2 182  ASP182     -0.2456
    101  N        -45.9000   19.1410   -6.3140 N.am  183  ALA183     -0.1966
    102  CA       -46.6290   20.3950   -6.3610 C.3   183  ALA183      0.1728
    103  C        -48.1200   20.0290   -6.6110 C.2   183  ALA183      0.2616
    104  O        -48.4180   18.9520   -7.1000 O.2   183  ALA183     -0.2715
    105  CB       -46.1060   21.2350   -7.5150 C.3   183  ALA183      0.0334
    106  N        -49.0470   20.8990   -6.2540 N.am  184  CYS184     -0.1954
    107  CA       -50.4600   20.6820   -6.5170 C.3   184  CYS184      0.1843
    108  C        -51.1020   22.0330   -6.8280 C.2   184  CYS184      0.2625
    109  O        -50.3650   22.9890   -7.0500 O.2   184  CYS184     -0.2714
    110  CB       -51.1590   19.9340   -5.3790 C.3   184  CYS184      0.0997
    111  SG       -52.7400   19.1750   -5.8570 S.3   184  CYS184     -0.0797
    112  N        -52.4380   22.1190   -6.9130 N.am  185  LYS185     -0.1963
    113  CA       -53.1350   23.3530   -7.2600 C.3   185  LYS185      0.1728
    114  C        -52.7060   24.5040   -6.3380 C.2   185  LYS185      0.2616
    115  O        -52.7500   24.3640   -5.1220 O.2   185  LYS185     -0.2715
    116  CB       -54.6540   23.1570   -7.2530 C.3   185  LYS185      0.0311
    117  CG       -55.1660   22.1300   -8.2580 C.3   185  LYS185      0.0038
    118  CD       -56.6740   21.8640   -8.1210 C.3   185  LYS185      0.0206
    119  CE       -57.5340   22.7310   -9.0240 C.3   185  LYS185      0.1093
    120  NZ       -58.7740   23.2070   -8.3410 N.3   185  LYS185     -0.1314
    121  N        -52.2120   25.5810   -6.9270 N.am  186  GLY186     -0.1955
    122  CA       -51.7640   26.7380   -6.1700 C.3   186  GLY186      0.1869
    123  C        -50.2610   26.9370   -6.1150 C.2   186  GLY186      0.2309
    124  O        -49.8290   28.0140   -5.7280 O.2   186  GLY186     -0.2863
    125  N        -48.2060   26.3320   -8.9380 N.3   188  SER188     -0.1217
    126  CA       -47.6920   26.7220  -10.2600 C.3   188  SER188      0.1889
    127  C        -47.0860   28.1390  -10.2770 C.2   188  SER188      0.2288
    128  O        -47.4770   29.0100   -9.4930 O.2   188  SER188     -0.2866
    129  CB       -48.7430   26.5430  -11.3470 C.3   188  SER188      0.2089
    130  OG       -49.7760   27.5020  -11.1910 O.3   188  SER188     -0.2183
    131  N        -42.7830   25.5230  -11.6360 N.3   206  THR206     -0.1203
    132  CA       -43.9340   24.6180  -11.5490 C.3   206  THR206      0.1994
    133  C        -44.9430   24.9410  -12.6560 C.2   206  THR206      0.2619
    134  O        -45.5010   26.0410  -12.7070 O.2   206  THR206     -0.2717
    135  CB       -44.5230   24.5830  -10.1480 C.3   206  THR206      0.1784
    136  OG1      -43.5050   24.2510   -9.2170 O.3   206  THR206     -0.2211
    137  CG2      -45.6670   23.5840  -10.0280 C.3   206  THR206      0.0376
    138  N        -45.1330   23.9650  -13.5530 N.am  207  SER207     -0.1937
    139  CA       -45.9480   24.0560  -14.7620 C.3   207  SER207      0.2055
    140  C        -47.1910   23.1390  -14.7780 C.2   207  SER207      0.2643
    141  O        -48.3020   23.6490  -14.6680 O.2   207  SER207     -0.2714
    142  CB       -45.0730   23.8060  -15.9810 C.3   207  SER207      0.2130
    143  OG       -45.7990   24.0980  -17.1540 O.3   207  SER207     -0.2179
    144  N        -47.0230   21.8050  -14.9200 N.am  208  TRP208     -0.1959
    145  CA       -48.1800   20.8980  -14.9800 C.3   208  TRP208      0.1771
    146  C        -47.8790   19.4720  -14.5210 C.2   208  TRP208      0.2620
    147  O        -46.7420   19.1350  -14.2110 O.2   208  TRP208     -0.2715
    148  CB       -48.7730   20.8710  -16.4150 C.3   208  TRP208      0.0590
    149  CG       -47.8370   20.3790  -17.4840 C.ar  208  TRP208      0.0006
    150  CD1      -46.8660   21.0920  -18.1140 C.ar  208  TRP208      0.0946
    151  CD2      -47.8060   19.0600  -18.0610 C.ar  208  TRP208      0.0152
    152  NE1      -46.2030   20.2970  -19.0210 N.ar  208  TRP208     -0.2442
    153  CE2      -46.7760   19.0510  -19.0280 C.ar  208  TRP208      0.0810
    154  CE3      -48.5640   17.8850  -17.8650 C.ar  208  TRP208      0.0012
    155  CZ2      -46.4940   17.9200  -19.8140 C.ar  208  TRP208      0.0191
    156  CZ3      -48.2520   16.7540  -18.6090 C.ar  208  TRP208      0.0001
    157  CH2      -47.2510   16.7840  -19.5930 C.ar  208  TRP208      0.0015
    158  N        -48.9160   18.6440  -14.5490 N.am  209  GLY209     -0.1954
    159  CA       -48.8760   17.2230  -14.2360 C.3   209  GLY209      0.1869
    160  C        -50.2650   16.6390  -14.2950 C.2   209  GLY209      0.2309
    161  O        -51.2430   17.3780  -14.3060 O.2   209  GLY209     -0.2863
    162  N        -52.8940   15.2050  -12.3080 N.3   211  GLY211     -0.1210
    163  CA       -53.2470   15.1750  -10.8940 C.3   211  GLY211      0.1956
    164  C        -52.0940   15.6580  -10.0280 C.2   211  GLY211      0.2612
    165  O        -51.2200   16.4020  -10.4980 O.2   211  GLY211     -0.2717
    166  N        -52.0640   15.2330   -8.7580 N.am  212  CYS212     -0.1970
    167  CA       -50.9830   15.6470   -7.8590 C.3   212  CYS212      0.1712
    168  C        -50.4030   14.4480   -7.1380 C.2   212  CYS212      0.2296
    169  O        -51.1480   13.7350   -6.4850 O.2   212  CYS212     -0.2864
    170  CB       -51.4560   16.7060   -6.8590 C.3   212  CYS212      0.0983
    171  SG       -52.3130   18.1420   -7.5810 S.3   212  CYS212     -0.0798
    172  N        -44.0800   15.4960  -11.7510 N.3   219  GLY219     -0.1210
    173  CA       -44.5100   16.8490  -12.0510 C.3   219  GLY219      0.1956
    174  C        -43.6410   17.3600  -13.1680 C.2   219  GLY219      0.2612
    175  O        -42.4970   16.9220  -13.3000 O.2   219  GLY219     -0.2717
    176  N        -44.1910   18.2250  -14.0290 N.am  220  VAL220     -0.1965
    177  CA       -43.4440   18.7760  -15.1660 C.3   220  VAL220      0.1727
    178  C        -43.1430   20.2580  -14.9270 C.2   220  VAL220      0.2616
    179  O        -44.0190   21.0420  -14.5730 O.2   220  VAL220     -0.2715
    180  CB       -44.1120   18.4770  -16.5460 C.3   220  VAL220      0.0290
    181  CG1      -43.1960   18.8580  -17.7000 C.3   220  VAL220      0.0023
    182  CG2      -44.5170   16.9980  -16.6560 C.3   220  VAL220      0.0023
    183  N        -41.8890   20.6170  -15.0790 N.am  221  TYR221     -0.1974
    184  CA       -41.4090   21.9650  -14.8460 C.3   221  TYR221      0.1639
    185  C        -40.7990   22.5160  -16.1020 C.2   221  TYR221      0.2290
    186  O        -40.2590   21.7660  -16.8890 O.2   221  TYR221     -0.2864
    187  CB       -40.3350   21.9670  -13.7200 C.3   221  TYR221      0.0560
    188  CG       -40.8260   21.3780  -12.4200 C.ar  221  TYR221     -0.0198
    189  CD1      -40.9400   19.9990  -12.2550 C.ar  221  TYR221     -0.0009
    190  CD2      -41.2040   22.1960  -11.3620 C.ar  221  TYR221     -0.0009
    191  CE1      -41.4850   19.4540  -11.0950 C.ar  221  TYR221      0.0417
    192  CE2      -41.7350   21.6610  -10.1910 C.ar  221  TYR221      0.0417
    193  CZ       -41.8530   20.2860  -10.0530 C.ar  221  TYR221      0.1957
    194  OH       -42.3370   19.7430   -8.8930 O.3   221  TYR221     -0.2866
@<TRIPOS>BOND
     1    60    58   ar
     2    60    62   ar
     3    63    62    1
     4    58    57   ar
     5    62    61   ar
     6   155   157   ar
     7   155   153   ar
     8   157   156   ar
     9   153   152   ar
    10   153   151   ar
    11   152   150   ar
    12    57    56    1
    13    57    59   ar
    14    61    59   ar
    15   156   154   ar
    16    53    56    1
    17    53    54    1
    18    53    52    1
    19   150   149   ar
    20   151   154   ar
    21   151   149   ar
    22    36    37    1
    23   181   180    1
    24    54    55    2
    25    37    40    1
    26    37    38    1
    27   149   148    1
    28    40    41    1
    29   143   142    1
    30   186   185    2
    31   182   180    1
    32   180   177    1
    33    38    39    2
    34    38    46   am
    35   148   145    1
    36    41    42   ar
    37    41    43   ar
    38   185   184    1
    39    42    44   ar
    40   142   139    1
    41    46    47    1
    42   177   178    1
    43   177   176    1
    44   183   178   am
    45   183   184    1
    46   145   144    1
    47   145   146    1
    48   178   179    2
    49   144   140   am
    50    43    45   ar
    51   184   187    1
    52   140   139    1
    53   140   141    2
    54    48    47    1
    55    48    49    2
    56   139   138    1
    57    44    45   ar
    58   158   146   am
    59   158   159    1
    60   146   147    2
    61    47    50    1
    62   161   160    2
    63   160   159    1
    64   176   174   am
    65   187   188    1
    66    50    51    1
    67   138   133   am
    68   175   174    2
    69   174   173    1
    70   134   133    2
    71    51    35    1
    72   133   132    1
    73   188   189   ar
    74   188   190   ar
    75   162   163    1
    76   189   191   ar
    77   173   172    1
    78   131   132    1
    79   132   135    1
    80   190   192   ar
    81   129   130    1
    82   129   126    1
    83   191   193   ar
    84    35    34    1
    85    29    27    1
    86   163   164    1
    87    28    27    1
    88   165   164    2
    89   127   126    1
    90   127   128    2
    91   126   125    1
    92   192   193   ar
    93    27    26    1
    94   135   137    1
    95   135   136    1
    96   193   194    1
    97   164   166   am
    98    34    31    1
    99   119   120    1
   100   119   118    1
   101   166   167    1
   102    26    23    1
   103   100    98   ar
   104    25    24    2
   105    99    98   ar
   106    31    30    1
   107    31    32    1
   108   117   118    1
   109   117   116    1
   110    24    30   am
   111    24    23    1
   112    98    97    1
   113   167   168    1
   114   167   170    1
   115    23    22    1
   116   171   170    1
   117   171   111    1
   118   105   102    1
   119    32    33    2
   120   113   116    1
   121   113   112    1
   122   113   114    1
   123   168   169    2
   124   104   103    2
   125   109   108    2
   126   121   114   am
   127   121   122    1
   128   112   108   am
   129   108   107    1
   130   103   102    1
   131   103   106   am
   132    97    94    1
   133   107   106    1
   134   107   110    1
   135    22    14   am
   136   102   101    1
   137   114   115    2
   138   101    95   am
   139   122   123    1
   140   123   124    2
   141     7     8    1
   142     7     6    1
   143     8     9    2
   144   111   110    1
   145    94    95    1
   146    94    93    1
   147    15    14    2
   148     6     5    1
   149    14    13    1
   150    95    96    2
   151    11     9    1
   152     9    10    1
   153     4     3    2
   154    75    74    1
   155    21    19   ar
   156    21    20   ar
   157    73    74   ar
   158    73    71   ar
   159    74    72   ar
   160    19    17   ar
   161    20    18   ar
   162    71    69   ar
   163    13    12    1
   164    13    16    1
   165     3    12   am
   166     3     2    1
   167    72    70   ar
   168     5     2    1
   169    17    18   ar
   170    17    16    1
   171     1     2    1
   172    69    70   ar
   173    69    68    1
   174    92    90    1
   175    68    65    1
   176    64    65    1
   177    90    89    1
   178    65    66    1
   179    67    66    2
   180    89    91    1
   181    89    86    1
   182    85    86    1
   183    85    78   am
   184    86    87    1
   185    77    76    1
   186    77    78    1
   187    77    80    1
   188    78    79    2
   189    80    81    1
   190    87    88    2
   191    81    82    1
   192    82    83    1
   193    83    84    1
