@<TRIPOS>MOLECULE
tmp/4d7hA02.pdb
 151 150 0 0 0
SMALL
GASTEIGER

@<TRIPOS>ATOM
      1  N         -1.6220   13.1920   19.2670 N.3    65  CYS65      -0.1235
      2  CA        -1.9870   14.0060   20.4280 C.3    65  CYS65       0.1677
      3  C         -3.3400   13.6580   21.0590 C.2    65  CYS65       0.2270
      4  O         -4.3750   13.7210   20.4030 O.2    65  CYS65      -0.2867
      5  CB        -1.9830   15.4870   20.0720 C.3    65  CYS65       0.0956
      6  SG        -2.4850   16.5110   21.4610 S.3    65  CYS65      -0.0801
      7  N         15.0980   21.3180   22.0980 N.3   127  HIS127     -0.1226
      8  CA        13.9620   20.4230   21.8920 C.3   127  HIS127      0.1752
      9  C         12.7580   21.0470   22.5920 C.2   127  HIS127      0.2595
     10  O         11.6890   21.1890   22.0070 O.2   127  HIS127     -0.2718
     11  CB        14.2270   19.0140   22.4410 C.3   127  HIS127      0.0759
     12  CG        12.9830   18.1910   22.5730 C.ar  127  HIS127      0.0818
     13  ND1       12.2000   17.8500   21.4880 N.ar  127  HIS127     -0.2268
     14  CD2       12.3530   17.6860   23.6610 C.ar  127  HIS127      0.1154
     15  CE1       11.1550   17.1520   21.9010 C.ar  127  HIS127      0.1986
     16  NE2       11.2230   17.0390   23.2160 N.ar  127  HIS127     -0.2212
     17  N         12.9490   21.4400   23.8490 N.am  128  GLN128     -0.1979
     18  CA        11.9520   22.2320   24.5690 C.3   128  GLN128      0.1601
     19  C         12.5980   23.5180   25.1160 C.2   128  GLN128      0.2287
     20  O         13.7920   23.5210   25.4130 O.2   128  GLN128     -0.2864
     21  CB        11.3520   21.4250   25.7110 C.3   128  GLN128      0.0394
     22  CG        10.3770   20.2990   25.2440 C.3   128  GLN128      0.0908
     23  CD         9.8670   19.4210   26.3810 C.2   128  GLN128      0.2608
     24  OE1        9.5790   19.9020   27.4780 O.2   128  GLN128     -0.2717
     25  NE2        9.7610   18.1180   26.1210 N.am  128  GLN128     -0.0878
     26  N         14.2270   22.5540   29.5710 N.3   131  ARG131     -0.1245
     27  CA        14.6490   21.1650   29.6710 C.3   131  ARG131      0.1563
     28  C         15.9880   21.0580   30.4020 C.2   131  ARG131      0.2260
     29  O         16.7660   22.0180   30.4430 O.2   131  ARG131     -0.2867
     30  CB        14.7530   20.5250   28.2860 C.3   131  ARG131      0.0307
     31  CG        14.1410   19.1330   28.2120 C.3   131  ARG131      0.0489
     32  CD        14.5560   18.3970   26.9530 C.3   131  ARG131      0.2205
     33  NE        13.8640   17.1170   26.8350 N.pl3 131  ARG131     -0.0865
     34  CZ        14.2530   16.1200   26.0460 C.cat 131  ARG131      0.5346
     35  NH1       15.3510   16.2470   25.3120 N.pl3 131  ARG131      0.1354
     36  NH2       13.5470   14.9900   26.0000 N.pl3 131  ARG131      0.1354
     37  N          5.7530   22.0290   29.3720 N.3   215  PRO215     -0.2116
     38  CA         6.4890   21.4530   28.2460 C.3   215  PRO215      0.1372
     39  C          6.2720   22.3120   27.0080 C.2   215  PRO215      0.2244
     40  O          5.1490   22.4190   26.5240 O.2   215  PRO215     -0.2868
     41  CB         5.8610   20.0630   28.0820 C.3   215  PRO215      0.0268
     42  CG         4.4410   20.2140   28.6010 C.3   215  PRO215      0.0207
     43  CD         4.4090   21.4320   29.5260 C.3   215  PRO215      0.0892
     44  N          7.4340   22.5290   23.3840 N.3   217  ILE217     -0.1245
     45  CA         8.1540   21.8490   22.2960 C.3   217  ILE217      0.1561
     46  C          8.5810   22.8880   21.2660 C.2   217  ILE217      0.2260
     47  O          7.7430   23.6260   20.7330 O.2   217  ILE217     -0.2867
     48  CB         7.2550   20.8150   21.5880 C.3   217  ILE217      0.0252
     49  CG1        6.6130   19.8530   22.6010 C.3   217  ILE217      0.0019
     50  CG2        7.9870   20.1330   20.4320 C.3   217  ILE217      0.0019
     51  CD1        7.5220   19.2550   23.6140 C.3   217  ILE217      0.0001
     52  N          9.8090   21.4970   16.2970 N.3   220  MET220     -0.1245
     53  CA         8.9800   20.9620   15.2140 C.3   220  MET220      0.1570
     54  C          8.5810   22.0240   14.1960 C.2   220  MET220      0.2261
     55  O          8.5090   23.2030   14.5180 O.2   220  MET220     -0.2867
     56  CB         7.7380   20.2740   15.7820 C.3   220  MET220      0.0387
     57  CG         8.0520   19.0380   16.5970 C.3   220  MET220      0.0595
     58  SD         6.5250   18.2100   17.0960 S.3   220  MET220     -0.1393
     59  CE         6.0070   17.5680   15.5160 C.3   220  MET220      0.0692
     60  N          5.4210   25.6600   20.8240 N.3   234  PHE234     -0.1227
     61  CA         4.0680   25.5740   21.3470 C.3   234  PHE234      0.1736
     62  C          4.0380   24.7580   22.6260 C.2   234  PHE234      0.2595
     63  O          4.9760   24.0180   22.9180 O.2   234  PHE234     -0.2718
     64  CB         3.1330   24.9900   20.2930 C.3   234  PHE234      0.0547
     65  CG         3.5290   23.6120   19.8240 C.ar  234  PHE234     -0.0202
     66  CD1        3.2240   22.4870   20.5870 C.ar  234  PHE234     -0.0042
     67  CD2        4.1970   23.4380   18.6200 C.ar  234  PHE234     -0.0042
     68  CE1        3.5690   21.2100   20.1450 C.ar  234  PHE234     -0.0003
     69  CE2        4.5630   22.1650   18.1830 C.ar  234  PHE234     -0.0003
     70  CZ         4.2500   21.0520   18.9500 C.ar  234  PHE234     -0.0000
     71  N          2.9570   24.8890   23.3830 N.am  235  ASN235     -0.1960
     72  CA         2.8270   24.1510   24.6270 C.3   235  ASN235      0.1819
     73  C          1.3970   23.8270   24.9740 C.2   235  ASN235      0.2622
     74  O          0.4590   24.5120   24.5630 O.2   235  ASN235     -0.2715
     75  CB         3.4070   24.9390   25.7980 C.3   235  ASN235      0.1195
     76  CG         2.5600   26.1450   26.1580 C.2   235  ASN235      0.2630
     77  OD1        2.5910   27.1500   25.4650 O.2   235  ASN235     -0.2716
     78  ND2        1.7970   26.0460   27.2410 N.am  235  ASN235     -0.0877
     79  N          1.2540   22.7830   25.7720 N.am  236  GLY236     -0.1940
     80  CA         0.0160   22.4790   26.4510 C.3   236  GLY236      0.2014
     81  C          0.4010   22.4210   27.9100 C.2   236  GLY236      0.2639
     82  O          1.3950   23.0540   28.3170 O.2   236  GLY236     -0.2714
     83  N         -0.3770   21.6760   28.6920 N.am  237  TRP237     -0.1959
     84  CA         0.0390   21.2650   30.0240 C.3   237  TRP237      0.1771
     85  C          0.3620   19.7720   29.9440 C.2   237  TRP237      0.2620
     86  O         -0.0060   19.1050   28.9870 O.2   237  TRP237     -0.2715
     87  CB        -1.0530   21.5220   31.0530 C.3   237  TRP237      0.0590
     88  CG        -2.3770   20.9740   30.6150 C.ar  237  TRP237      0.0006
     89  CD1       -2.7770   19.6700   30.6350 C.ar  237  TRP237      0.0946
     90  CD2       -3.4660   21.7250   30.0650 C.ar  237  TRP237      0.0152
     91  NE1       -4.0620   19.5570   30.1360 N.ar  237  TRP237     -0.2442
     92  CE2       -4.5060   20.8090   29.7850 C.ar  237  TRP237      0.0810
     93  CE3       -3.6650   23.0870   29.7900 C.ar  237  TRP237      0.0012
     94  CZ2       -5.7130   21.2050   29.2260 C.ar  237  TRP237      0.0191
     95  CZ3       -4.8760   23.4860   29.2430 C.ar  237  TRP237      0.0001
     96  CH2       -5.8880   22.5430   28.9720 C.ar  237  TRP237      0.0015
     97  N          1.0610   19.2600   30.9430 N.am  238  TYR238     -0.1960
     98  CA         1.4700   17.8630   30.9590 C.3   238  TYR238      0.1771
     99  C          0.3180   16.9010   31.2730 C.2   238  TYR238      0.2619
    100  O         -0.5650   17.2180   32.0710 O.2   238  TYR238     -0.2715
    101  CB         2.5140   17.6800   32.0440 C.3   238  TYR238      0.0574
    102  CG         3.9430   17.7740   31.5700 C.ar  238  TYR238     -0.0198
    103  CD1        4.4470   16.8730   30.6370 C.ar  238  TYR238     -0.0009
    104  CD2        4.8040   18.7300   32.0950 C.ar  238  TYR238     -0.0009
    105  CE1        5.7680   16.9300   30.2240 C.ar  238  TYR238      0.0417
    106  CE2        6.1330   18.7940   31.6940 C.ar  238  TYR238      0.0417
    107  CZ         6.6110   17.9020   30.7590 C.ar  238  TYR238      0.1957
    108  OH         7.9240   17.9830   30.3510 O.3   238  TYR238     -0.2866
    109  N          0.3460   15.7300   30.6420 N.am  239  MET239     -0.1977
    110  CA        -0.3380   14.5500   31.1760 C.3   239  MET239      0.1605
    111  C          0.6450   13.8710   32.1140 C.2   239  MET239      0.2287
    112  O          1.8040   13.6930   31.7560 O.2   239  MET239     -0.2864
    113  CB        -0.7350   13.5960   30.0610 C.3   239  MET239      0.0413
    114  CG        -1.5950   12.4370   30.5330 C.3   239  MET239      0.0598
    115  SD        -2.4700   11.7050   29.1490 S.3   239  MET239     -0.1393
    116  CE        -1.1800   10.8330   28.2970 C.3   239  MET239      0.0692
    117  N          3.5070   11.3400   31.2210 N.3   242  GLU242     -0.1245
    118  CA         4.6790   11.8090   30.4920 C.3   242  GLU242      0.1567
    119  C          5.8660   11.9620   31.4280 C.2   242  GLU242      0.2260
    120  O          7.0080   11.7210   31.0560 O.2   242  GLU242     -0.2867
    121  CB         4.3930   13.1500   29.8200 C.3   242  GLU242      0.0388
    122  CG         3.3970   13.0640   28.6750 C.3   242  GLU242      0.1160
    123  CD         3.2120   14.4100   27.9900 C.2   242  GLU242      0.3649
    124  OE1        2.3390   15.2000   28.4270 O.co2 242  GLU242     -0.2457
    125  OE2        3.9410   14.6710   27.0100 O.co2 242  GLU242     -0.2457
    126  N          0.6160    5.8880   19.8880 N.3   328  TRP328     -0.1241
    127  CA         0.9860    7.0400   20.7110 C.3   328  TRP328      0.1605
    128  C         -0.1620    7.5710   21.5780 C.2   328  TRP328      0.2264
    129  O          0.0750    8.1530   22.6370 O.2   328  TRP328     -0.2867
    130  CB         1.5390    8.1740   19.8340 C.3   328  TRP328      0.0550
    131  CG         2.9780    8.0260   19.5040 C.ar  328  TRP328      0.0003
    132  CD1        3.5670    6.9990   18.8130 C.ar  328  TRP328      0.0946
    133  CD2        4.0270    8.9430   19.8330 C.ar  328  TRP328      0.0152
    134  NE1        4.9160    7.2180   18.7040 N.ar  328  TRP328     -0.2442
    135  CE2        5.2270    8.4040   19.3180 C.ar  328  TRP328      0.0810
    136  CE3        4.0670   10.1740   20.5010 C.ar  328  TRP328      0.0012
    137  CZ2        6.4580    9.0520   19.4570 C.ar  328  TRP328      0.0191
    138  CZ3        5.2930   10.8080   20.6510 C.ar  328  TRP328      0.0001
    139  CH2        6.4690   10.2480   20.1300 C.ar  328  TRP328      0.0015
    140  N          8.3200   16.6390   12.2490 N.3   356  TYR356     -0.1241
    141  CA         9.7020   16.5370   12.6470 C.3   356  TYR356      0.1605
    142  C         10.5410   17.2110   11.5720 C.2   356  TYR356      0.2264
    143  O         10.1530   17.2480   10.4050 O.2   356  TYR356     -0.2867
    144  CB        10.1130   15.0730   12.7670 C.3   356  TYR356      0.0534
    145  CG         9.5950   14.3540   13.9940 C.ar  356  TYR356     -0.0201
    146  CD1        9.0940   15.0570   15.0910 C.ar  356  TYR356     -0.0009
    147  CD2        9.6300   12.9640   14.0610 C.ar  356  TYR356     -0.0009
    148  CE1        8.6200   14.3850   16.2250 C.ar  356  TYR356      0.0417
    149  CE2        9.1690   12.2820   15.1820 C.ar  356  TYR356      0.0417
    150  CZ         8.6690   12.9920   16.2560 C.ar  356  TYR356      0.1957
    151  OH         8.2290   12.3010   17.3600 O.3   356  TYR356     -0.2866
@<TRIPOS>BOND
     1   143   142    2
     2   142   141    1
     3   140   141    1
     4   141   144    1
     5   144   145    1
     6   145   147   ar
     7   145   146   ar
     8   147   149   ar
     9    54    55    2
    10    54    53    1
    11   146   148   ar
    12   149   150   ar
    13    53    56    1
    14    53    52    1
    15    59    58    1
    16    56    57    1
    17   148   150   ar
    18   150   151    1
    19    57    58    1
    20    69    67   ar
    21    69    70   ar
    22    67    65   ar
    23   134   132   ar
    24   134   135   ar
    25   132   131   ar
    26    70    68   ar
    27     1     2    1
    28   135   137   ar
    29   135   133   ar
    30   137   139   ar
    31   131   133   ar
    32   131   130    1
    33    65    64    1
    34    65    66   ar
    35   133   136   ar
    36   130   127    1
    37   126   127    1
    38     5     2    1
    39     5     6    1
    40   139   138   ar
    41    68    66   ar
    42    64    61    1
    43     4     3    2
    44     2     3    1
    45    50    48    1
    46   136   138   ar
    47   127   128    1
    48    47    46    2
    49    60    61    1
    50    46    45    1
    51    61    62    1
    52    13    15   ar
    53    13    12   ar
    54   128   129    2
    55    48    45    1
    56    48    49    1
    57     8     7    1
    58     8    11    1
    59     8     9    1
    60    15    16   ar
    61    10     9    2
    62    45    44    1
    63    11    12    1
    64    12    14   ar
    65     9    17   am
    66    49    51    1
    67    62    63    2
    68    62    71   am
    69    16    14   ar
    70    71    72    1
    71    17    18    1
    72    74    73    2
    73    18    19    1
    74    18    21    1
    75    72    73    1
    76    72    75    1
    77    73    79   am
    78    19    20    2
    79    22    21    1
    80    22    23    1
    81    35    34    1
    82    77    76    2
    83    79    80    1
    84    75    76    1
    85    36    34    1
    86    34    33    2
    87    25    23   am
    88    76    78   am
    89    23    24    2
    90    80    81    1
    91    40    39    2
    92    33    32    1
    93    32    31    1
    94    39    38    1
    95   125   123   ar
    96    81    82    2
    97    81    83   am
    98   123   124   ar
    99   123   122    1
   100    41    38    1
   101    41    42    1
   102    31    30    1
   103    38    37    1
   104    30    27    1
   105   116   115    1
   106    42    43    1
   107   122   121    1
   108    83    84    1
   109    96    94   ar
   110    96    95   ar
   111    86    85    2
   112   115   114    1
   113    94    92   ar
   114    95    93   ar
   115    37    43    1
   116    26    27    1
   117    27    28    1
   118    92    90   ar
   119    92    91   ar
   120    93    90   ar
   121   121   118    1
   122    85    84    1
   123    85    97   am
   124    84    87    1
   125   113   114    1
   126   113   110    1
   127    90    88   ar
   128    91    89   ar
   129   105   103   ar
   130   105   107   ar
   131   108   107    1
   132    28    29    2
   133   118   117    1
   134   118   119    1
   135    88    89   ar
   136    88    87    1
   137   103   102   ar
   138   109   110    1
   139   109    99   am
   140   107   106   ar
   141    97    98    1
   142    98    99    1
   143    98   101    1
   144   120   119    2
   145   110   111    1
   146    99   100    2
   147   102   101    1
   148   102   104   ar
   149   106   104   ar
   150   112   111    2
