@<TRIPOS>MOLECULE
tmp/4d7jA02.pdb
 159 159 0 0 0
SMALL
GASTEIGER

@<TRIPOS>ATOM
      1  N         -2.9430   21.5020   15.2320 N.3    59  TRP59      -0.1241
      2  CA        -3.0790   20.7710   16.4900 C.3    59  TRP59       0.1605
      3  C         -4.1790   19.7260   16.3420 C.2    59  TRP59       0.2264
      4  O         -3.9890   18.5600   16.6990 O.2    59  TRP59      -0.2867
      5  CB        -3.3610   21.7480   17.6380 C.3    59  TRP59       0.0550
      6  CG        -3.4790   21.1260   19.0140 C.ar   59  TRP59       0.0003
      7  CD1       -3.2060   19.8320   19.3680 C.ar   59  TRP59       0.0946
      8  CD2       -3.9100   21.7890   20.2100 C.ar   59  TRP59       0.0152
      9  NE1       -3.4390   19.6510   20.7140 N.ar   59  TRP59      -0.2442
     10  CE2       -3.8700   20.8350   21.2530 C.ar   59  TRP59       0.0810
     11  CE3       -4.3150   23.0980   20.5020 C.ar   59  TRP59       0.0012
     12  CZ2       -4.2410   21.1470   22.5680 C.ar   59  TRP59       0.0191
     13  CZ3       -4.6700   23.4130   21.8070 C.ar   59  TRP59       0.0001
     14  CH2       -4.6290   22.4350   22.8250 C.ar   59  TRP59       0.0015
     15  N         -1.4610   13.1250   19.5110 N.3    65  CYS65      -0.1235
     16  CA        -1.8190   13.9450   20.6640 C.3    65  CYS65       0.1677
     17  C         -3.1970   13.6290   21.2440 C.2    65  CYS65       0.2270
     18  O         -4.2380   13.7630   20.5690 O.2    65  CYS65      -0.2867
     19  CB        -1.7780   15.4240   20.2860 C.3    65  CYS65       0.0956
     20  SG        -2.2660   16.5250   21.6240 S.3    65  CYS65      -0.0801
     21  N         15.1050   21.2930   22.1630 N.3   127  HIS127     -0.1226
     22  CA        13.9730   20.3830   21.9580 C.3   127  HIS127      0.1752
     23  C         12.7340   20.9680   22.6300 C.2   127  HIS127      0.2595
     24  O         11.6530   21.0030   22.0450 O.2   127  HIS127     -0.2718
     25  CB        14.2860   19.0000   22.5300 C.3   127  HIS127      0.0759
     26  CG        13.0690   18.1520   22.7480 C.ar  127  HIS127      0.0818
     27  ND1       12.1900   17.8370   21.7370 N.ar  127  HIS127     -0.2268
     28  CD2       12.5890   17.5540   23.8670 C.ar  127  HIS127      0.1154
     29  CE1       11.2120   17.0890   22.2250 C.ar  127  HIS127      0.1986
     30  NE2       11.4310   16.8990   23.5120 N.ar  127  HIS127     -0.2212
     31  N         12.8920   21.4120   23.8720 N.am  128  GLN128     -0.1979
     32  CA        11.8590   22.1800   24.5520 C.3   128  GLN128      0.1601
     33  C         12.5030   23.4320   25.1370 C.2   128  GLN128      0.2287
     34  O         13.6940   23.4200   25.4400 O.2   128  GLN128     -0.2864
     35  CB        11.1780   21.3560   25.6480 C.3   128  GLN128      0.0394
     36  CG        10.4130   20.1280   25.1210 C.3   128  GLN128      0.0908
     37  CD         9.7880   19.2960   26.2210 C.2   128  GLN128      0.2608
     38  OE1        9.4530   19.8130   27.2880 O.2   128  GLN128     -0.2717
     39  NE2        9.6400   17.9880   25.9690 N.am  128  GLN128     -0.0878
     40  N         18.6180   12.1610   27.6210 N.3   146  ALA146     -0.1245
     41  CA        18.0810   12.5710   26.3250 C.3   146  ALA146      0.1562
     42  C         18.6350   13.9270   25.8770 C.2   146  ALA146      0.2260
     43  O         18.5560   14.2700   24.6970 O.2   146  ALA146     -0.2867
     44  CB        16.5600   12.6070   26.3650 C.3   146  ALA146      0.0290
     45  N          5.6640   21.9710   29.4180 N.3   215  PRO215     -0.2116
     46  CA         6.3560   21.3900   28.2570 C.3   215  PRO215      0.1372
     47  C          6.1610   22.3100   27.0480 C.2   215  PRO215      0.2244
     48  O          5.0250   22.5460   26.6340 O.2   215  PRO215     -0.2868
     49  CB         5.6330   20.0430   28.0450 C.3   215  PRO215      0.0268
     50  CG         4.2370   20.2900   28.5670 C.3   215  PRO215      0.0207
     51  CD         4.3770   21.2990   29.7020 C.3   215  PRO215      0.0892
     52  N          7.3590   22.5250   23.3320 N.3   217  ILE217     -0.1245
     53  CA         8.0620   21.8980   22.2040 C.3   217  ILE217      0.1561
     54  C          8.5520   22.9570   21.2270 C.2   217  ILE217      0.2260
     55  O          7.7570   23.7330   20.6890 O.2   217  ILE217     -0.2867
     56  CB         7.1410   20.9300   21.4440 C.3   217  ILE217      0.0252
     57  CG1        6.6730   19.8110   22.3700 C.3   217  ILE217      0.0019
     58  CG2        7.8580   20.3430   20.2170 C.3   217  ILE217      0.0019
     59  CD1        7.8110   19.0400   23.0070 C.3   217  ILE217      0.0001
     60  N          9.7520   21.4470   16.3970 N.3   220  MET220     -0.1245
     61  CA         8.9150   20.9230   15.3230 C.3   220  MET220      0.1570
     62  C          8.5160   22.0160   14.3430 C.2   220  MET220      0.2261
     63  O          8.4570   23.1980   14.6970 O.2   220  MET220     -0.2867
     64  CB         7.6790   20.2200   15.8920 C.3   220  MET220      0.0387
     65  CG         8.0430   18.9590   16.6600 C.3   220  MET220      0.0595
     66  SD         6.6150   18.0520   17.3160 S.3   220  MET220     -0.1393
     67  CE         6.0000   17.3270   15.8060 C.3   220  MET220      0.0692
     68  N          5.3860   25.5900   20.8030 N.3   234  PHE234     -0.1227
     69  CA         4.0300   25.4810   21.3430 C.3   234  PHE234      0.1736
     70  C          4.0250   24.7140   22.6630 C.2   234  PHE234      0.2595
     71  O          4.8940   23.8710   22.9000 O.2   234  PHE234     -0.2718
     72  CB         3.0890   24.8270   20.3240 C.3   234  PHE234      0.0547
     73  CG         3.5210   23.4540   19.8830 C.ar  234  PHE234     -0.0202
     74  CD1        3.2080   22.3340   20.6450 C.ar  234  PHE234     -0.0042
     75  CD2        4.2340   23.2830   18.6990 C.ar  234  PHE234     -0.0042
     76  CE1        3.6060   21.0610   20.2340 C.ar  234  PHE234     -0.0003
     77  CE2        4.6340   22.0230   18.2850 C.ar  234  PHE234     -0.0003
     78  CZ         4.3230   20.9100   19.0500 C.ar  234  PHE234     -0.0000
     79  N          3.0420   24.9890   23.5180 N.am  235  ASN235     -0.1960
     80  CA         2.9760   24.3100   24.8070 C.3   235  ASN235      0.1819
     81  C          1.5550   23.9490   25.1770 C.2   235  ASN235      0.2622
     82  O          0.5870   24.5410   24.6760 O.2   235  ASN235     -0.2715
     83  CB         3.5120   25.2000   25.9180 C.3   235  ASN235      0.1195
     84  CG         2.5610   26.3320   26.2480 C.2   235  ASN235      0.2630
     85  OD1        2.5390   27.3530   25.5560 O.2   235  ASN235     -0.2716
     86  ND2        1.7430   26.1460   27.2910 N.am  235  ASN235     -0.0877
     87  N          1.4470   22.9960   26.0920 N.am  236  GLY236     -0.1940
     88  CA         0.1840   22.6930   26.7390 C.3   236  GLY236      0.2014
     89  C          0.5150   22.5060   28.2020 C.2   236  GLY236      0.2639
     90  O          1.5240   23.0520   28.6830 O.2   236  GLY236     -0.2714
     91  N         -0.3310   21.7720   28.9190 N.am  237  TRP237     -0.1959
     92  CA         0.0420   21.2510   30.2270 C.3   237  TRP237      0.1771
     93  C          0.3910   19.7770   30.0620 C.2   237  TRP237      0.2620
     94  O          0.0360   19.1500   29.0600 O.2   237  TRP237     -0.2715
     95  CB        -1.0870   21.3980   31.2470 C.3   237  TRP237      0.0590
     96  CG        -2.3970   20.9000   30.7460 C.ar  237  TRP237      0.0006
     97  CD1       -2.8420   19.5990   30.7420 C.ar  237  TRP237      0.0946
     98  CD2       -3.4450   21.6900   30.1730 C.ar  237  TRP237      0.0152
     99  NE1       -4.1160   19.5390   30.1990 N.ar  237  TRP237     -0.2442
    100  CE2       -4.4950   20.8060   29.8340 C.ar  237  TRP237      0.0810
    101  CE3       -3.5900   23.0600   29.9010 C.ar  237  TRP237      0.0012
    102  CZ2       -5.6810   21.2530   29.2490 C.ar  237  TRP237      0.0191
    103  CZ3       -4.7660   23.5080   29.3240 C.ar  237  TRP237      0.0001
    104  CH2       -5.8010   22.6030   29.0010 C.ar  237  TRP237      0.0015
    105  N          1.0790   19.2260   31.0520 N.am  238  TYR238     -0.1960
    106  CA         1.4810   17.8210   31.0220 C.3   238  TYR238      0.1771
    107  C          0.3280   16.8730   31.2760 C.2   238  TYR238      0.2619
    108  O         -0.6280   17.2030   31.9980 O.2   238  TYR238     -0.2715
    109  CB         2.5480   17.5630   32.0960 C.3   238  TYR238      0.0574
    110  CG         3.9690   17.6790   31.6080 C.ar  238  TYR238     -0.0198
    111  CD1        4.4680   16.7670   30.6850 C.ar  238  TYR238     -0.0009
    112  CD2        4.8130   18.6830   32.0820 C.ar  238  TYR238     -0.0009
    113  CE1        5.7810   16.8530   30.2380 C.ar  238  TYR238      0.0417
    114  CE2        6.1430   18.7710   31.6370 C.ar  238  TYR238      0.0417
    115  CZ         6.5990   17.8500   30.7210 C.ar  238  TYR238      0.1957
    116  OH         7.8970   17.9190   30.2660 O.3   238  TYR238     -0.2866
    117  N          0.4090   15.6930   30.6680 N.am  239  MET239     -0.1977
    118  CA        -0.3300   14.5350   31.1750 C.3   239  MET239      0.1605
    119  C          0.6260   13.8450   32.1340 C.2   239  MET239      0.2287
    120  O          1.8170   13.7060   31.8390 O.2   239  MET239     -0.2864
    121  CB        -0.7430   13.5810   30.0530 C.3   239  MET239      0.0413
    122  CG        -1.6020   12.4130   30.5270 C.3   239  MET239      0.0598
    123  SD        -2.4640   11.5860   29.1710 S.3   239  MET239     -0.1393
    124  CE        -1.1370   10.5880   28.4740 C.3   239  MET239      0.0692
    125  N          3.5170   11.3410   31.2790 N.3   242  GLU242     -0.1245
    126  CA         4.6970   11.7600   30.5270 C.3   242  GLU242      0.1567
    127  C          5.8490   11.9280   31.4890 C.2   242  GLU242      0.2260
    128  O          7.0060   11.6200   31.1620 O.2   242  GLU242     -0.2867
    129  CB         4.4470   13.0910   29.8050 C.3   242  GLU242      0.0388
    130  CG         3.4290   13.0030   28.6860 C.3   242  GLU242      0.1160
    131  CD         3.1310   14.3690   28.0970 C.2   242  GLU242      0.3649
    132  OE1        3.8470   14.7640   27.1490 O.co2 242  GLU242     -0.2457
    133  OE2        2.1970   15.0510   28.5890 O.co2 242  GLU242     -0.2457
    134  N          0.5990    5.8390   19.9970 N.3   328  TRP328     -0.1241
    135  CA         0.9720    7.0010   20.7980 C.3   328  TRP328      0.1605
    136  C         -0.1540    7.5150   21.6910 C.2   328  TRP328      0.2264
    137  O          0.1090    8.1070   22.7330 O.2   328  TRP328     -0.2867
    138  CB         1.4990    8.1280   19.9010 C.3   328  TRP328      0.0550
    139  CG         2.9370    7.9340   19.5290 C.ar  328  TRP328      0.0003
    140  CD1        3.4730    6.8910   18.8250 C.ar  328  TRP328      0.0946
    141  CD2        4.0260    8.8030   19.8550 C.ar  328  TRP328      0.0152
    142  NE1        4.8340    7.0630   18.6920 N.ar  328  TRP328     -0.2442
    143  CE2        5.1940    8.2320   19.3110 C.ar  328  TRP328      0.0810
    144  CE3        4.1240   10.0190   20.5360 C.ar  328  TRP328      0.0012
    145  CZ2        6.4510    8.8350   19.4410 C.ar  328  TRP328      0.0191
    146  CZ3        5.3700   10.6120   20.6630 C.ar  328  TRP328      0.0001
    147  CH2        6.5120   10.0180   20.1190 C.ar  328  TRP328      0.0015
    148  N          8.2810   16.5720   12.5270 N.3   356  TYR356     -0.1241
    149  CA         9.6870   16.5230   12.9130 C.3   356  TYR356      0.1605
    150  C         10.5290   17.1750   11.8230 C.2   356  TYR356      0.2264
    151  O         10.1540   17.1730   10.6480 O.2   356  TYR356     -0.2867
    152  CB        10.1410   15.0700   13.0530 C.3   356  TYR356      0.0534
    153  CG         9.5960   14.3180   14.2510 C.ar  356  TYR356     -0.0201
    154  CD1        9.0870   14.9820   15.3610 C.ar  356  TYR356     -0.0009
    155  CD2        9.6340   12.9280   14.2820 C.ar  356  TYR356     -0.0009
    156  CE1        8.5990   14.2710   16.4590 C.ar  356  TYR356      0.0417
    157  CE2        9.1520   12.2190   15.3680 C.ar  356  TYR356      0.0417
    158  CZ         8.6450   12.8900   16.4520 C.ar  356  TYR356      0.1957
    159  OH         8.1810   12.1610   17.5290 O.3   356  TYR356     -0.2866
@<TRIPOS>BOND
     1   151   150    2
     2   150   149    1
     3   148   149    1
     4   149   152    1
     5   152   153    1
     6   153   155   ar
     7   153   154   ar
     8   155   157   ar
     9    62    63    2
    10    62    61    1
    11     1     2    1
    12    61    64    1
    13    61    60    1
    14   154   156   ar
    15   157   158   ar
    16    67    66    1
    17    64    65    1
    18     3     2    1
    19     3     4    2
    20   158   156   ar
    21   158   159    1
    22     2     5    1
    23    65    66    1
    24     5     6    1
    25    77    75   ar
    26    77    78   ar
    27   142   140   ar
    28   142   143   ar
    29    75    73   ar
    30   140   139   ar
    31     6     7   ar
    32     6     8   ar
    33    78    76   ar
    34   143   145   ar
    35   143   141   ar
    36     7     9   ar
    37   145   147   ar
    38    15    16    1
    39   139   141   ar
    40   139   138    1
    41   141   144   ar
    42    73    72    1
    43    73    74   ar
    44   138   135    1
    45   134   135    1
    46   147   146   ar
    47     8    11   ar
    48     8    10   ar
    49    58    56    1
    50    76    74   ar
    51    19    16    1
    52    19    20    1
    53    72    69    1
    54    11    13   ar
    55   144   146   ar
    56    18    17    2
    57    16    17    1
    58    55    54    2
    59     9    10   ar
    60   135   136    1
    61    68    69    1
    62    54    53    1
    63    10    12   ar
    64    69    70    1
    65    56    53    1
    66    56    57    1
    67   136   137    2
    68    27    29   ar
    69    27    26   ar
    70    13    14   ar
    71    22    21    1
    72    22    25    1
    73    22    23    1
    74    24    23    2
    75    53    52    1
    76    29    30   ar
    77    57    59    1
    78    25    26    1
    79    12    14   ar
    80    23    31   am
    81    70    71    2
    82    70    79   am
    83    26    28   ar
    84    30    28   ar
    85    79    80    1
    86    31    32    1
    87    32    33    1
    88    32    35    1
    89    82    81    2
    90    43    42    2
    91    80    81    1
    92    80    83    1
    93    36    35    1
    94    36    37    1
    95    33    34    2
    96    81    87   am
    97    85    84    2
    98    42    41    1
    99    83    84    1
   100    39    37   am
   101    87    88    1
   102    37    38    2
   103    84    86   am
   104    41    44    1
   105    41    40    1
   106    48    47    2
   107    88    89    1
   108    47    46    1
   109   132   131   ar
   110    49    46    1
   111    49    50    1
   112   131   133   ar
   113   131   130    1
   114    89    90    2
   115    89    91   am
   116    46    45    1
   117   124   123    1
   118    50    51    1
   119   130   129    1
   120    91    92    1
   121   104   102   ar
   122   104   103   ar
   123    94    93    2
   124   123   122    1
   125   102   100   ar
   126   103   101   ar
   127    45    51    1
   128   129   126    1
   129   100    98   ar
   130   100    99   ar
   131   101    98   ar
   132   121   122    1
   133   121   118    1
   134    93    92    1
   135    93   105   am
   136    98    96   ar
   137    99    97   ar
   138    92    95    1
   139   113   111   ar
   140   113   115   ar
   141   116   115    1
   142   126   125    1
   143   126   127    1
   144   117   118    1
   145   117   107   am
   146   111   110   ar
   147   115   114   ar
   148    97    96   ar
   149    96    95    1
   150   106   105    1
   151   106   107    1
   152   106   109    1
   153   128   127    2
   154   118   119    1
   155   107   108    2
   156   110   112   ar
   157   110   109    1
   158   114   112   ar
   159   120   119    2
