@<TRIPOS>MOLECULE
tmp/4d7mA00.pdb
 172 163 0 0 0
SMALL
GASTEIGER

@<TRIPOS>ATOM
      1  N         17.9220   26.2610   27.1340 N.3    59  LEU59      -0.1245
      2  CA        17.4900   26.1590   28.5420 C.3    59  LEU59       0.1561
      3  C         16.1250   25.5290   28.6630 C.2    59  LEU59       0.2260
      4  O         15.8500   24.7380   29.5810 O.2    59  LEU59      -0.2867
      5  CB        17.5490   27.5360   29.2270 C.3    59  LEU59       0.0270
      6  CG        18.8750   28.2420   29.2220 C.3    59  LEU59       0.0019
      7  CD1       18.8590   29.5420   30.0150 C.3    59  LEU59       0.0001
      8  CD2       19.9720   27.3720   29.7450 C.3    59  LEU59       0.0001
      9  N         17.5470   22.6700   30.7890 N.3    63  HIS63      -0.1241
     10  CA        17.7810   23.3440   32.0930 C.3    63  HIS63       0.1621
     11  C         16.6690   23.0380   33.0280 C.2    63  HIS63       0.2264
     12  O         15.5950   23.6720   33.0050 O.2    63  HIS63      -0.2867
     13  CB        17.9790   24.8350   31.8600 C.3    63  HIS63       0.0745
     14  CG        18.1690   25.6450   33.0820 C.ar   63  HIS63       0.0817
     15  ND1       18.9770   25.2590   34.1180 N.ar   63  HIS63      -0.2268
     16  CD2       17.7820   26.9100   33.3570 C.ar   63  HIS63       0.1154
     17  CE1       18.9890   26.2090   35.0470 C.ar   63  HIS63       0.1986
     18  NE2       18.3060   27.2440   34.5700 N.ar   63  HIS63      -0.2212
     19  N         15.2710   25.2490   37.3450 N.3    66  SER66      -0.1217
     20  CA        15.1970   26.7070   37.1980 C.3    66  SER66       0.1889
     21  C         14.4410   27.4050   38.3120 C.2    66  SER66       0.2288
     22  O         14.4370   28.6660   38.3820 O.2    66  SER66      -0.2866
     23  CB        14.5340   27.0360   35.8890 C.3    66  SER66       0.2089
     24  OG        13.2400   26.4280   35.7850 O.3    66  SER66      -0.2183
     25  N         19.3980   26.2290   46.2790 N.3    77  PHE77      -0.1227
     26  CA        18.7810   26.6180   45.0030 C.3    77  PHE77       0.1736
     27  C         19.8840   27.1090   44.0460 C.2    77  PHE77       0.2595
     28  O         19.9230   26.6010   42.8880 O.2    77  PHE77      -0.2718
     29  CB        17.7780   27.7290   45.1300 C.3    77  PHE77       0.0547
     30  CG        17.3840   28.2540   43.7820 C.ar   77  PHE77      -0.0202
     31  CD1       16.7990   27.3930   42.8890 C.ar   77  PHE77      -0.0042
     32  CD2       17.7560   29.5000   43.3600 C.ar   77  PHE77      -0.0042
     33  CE1       16.4800   27.8590   41.5900 C.ar   77  PHE77      -0.0003
     34  CE2       17.4600   29.9490   42.0950 C.ar   77  PHE77      -0.0003
     35  CZ        16.8240   29.1290   41.2380 C.ar   77  PHE77      -0.0000
     36  N         20.8140   27.9480   44.5110 N.am   78  LEU78      -0.1980
     37  CA        21.8600   28.3950   43.6080 C.3    78  LEU78       0.1596
     38  C         22.7330   27.2170   43.1170 C.2    78  LEU78       0.2287
     39  O         23.0930   27.1670   41.9770 O.2    78  LEU78      -0.2864
     40  CB        22.6870   29.4240   44.2860 C.3    78  LEU78       0.0297
     41  CG        22.0460   30.7930   44.4480 C.3    78  LEU78       0.0022
     42  CD1       23.1740   31.6640   45.0640 C.3    78  LEU78       0.0001
     43  CD2       21.4720   31.3470   43.1700 C.3    78  LEU78       0.0001
     44  N         20.5960   25.0550   40.6590 N.3    81  ASN81      -0.1240
     45  CA        20.3950   25.8810   39.5080 C.3    81  ASN81       0.1653
     46  C         21.6650   25.9570   38.7130 C.2    81  ASN81       0.2266
     47  O         21.6420   25.8740   37.4540 O.2    81  ASN81      -0.2867
     48  CB        19.9310   27.2500   39.9460 C.3    81  ASN81       0.1155
     49  CG        19.6510   28.1580   38.7840 C.2    81  ASN81       0.2627
     50  OD1       20.4200   29.0600   38.5410 O.2    81  ASN81      -0.2716
     51  ND2       18.5400   27.9530   38.1290 N.am   81  ASN81      -0.0877
     52  N         22.2360   24.6070   34.9770 N.3    85  PHE85      -0.1241
     53  CA        22.6300   25.5720   33.9360 C.3    85  PHE85       0.1605
     54  C         23.8320   25.0230   33.2140 C.2    85  PHE85       0.2264
     55  O         23.9050   24.9840   31.9800 O.2    85  PHE85      -0.2867
     56  CB        22.8510   26.9070   34.5850 C.3    85  PHE85       0.0534
     57  CG        23.1820   28.0670   33.6480 C.ar   85  PHE85      -0.0203
     58  CD1       22.3930   28.3310   32.5500 C.ar   85  PHE85      -0.0042
     59  CD2       24.2780   28.8890   33.8880 C.ar   85  PHE85      -0.0042
     60  CE1       22.6880   29.4610   31.7550 C.ar   85  PHE85      -0.0003
     61  CE2       24.5310   30.0100   33.1190 C.ar   85  PHE85      -0.0003
     62  CZ        23.7470   30.2490   32.0260 C.ar   85  PHE85      -0.0000
     63  N         24.7780   31.6100   24.6000 N.3    99  HIS99      -0.1241
     64  CA        24.1150   32.3410   25.6500 C.3    99  HIS99       0.1621
     65  C         24.6900   33.7490   25.8570 C.2    99  HIS99       0.2264
     66  O         24.0290   34.6480   26.3170 O.2    99  HIS99      -0.2867
     67  CB        24.3350   31.5910   26.9710 C.3    99  HIS99       0.0745
     68  CG        23.5230   32.1660   28.0710 C.ar   99  HIS99       0.0817
     69  ND1       22.2600   31.6980   28.3130 N.ar   99  HIS99      -0.2268
     70  CD2       23.6880   33.2440   28.8620 C.ar   99  HIS99       0.1154
     71  CE1       21.7250   32.4150   29.2970 C.ar   99  HIS99       0.1986
     72  NE2       22.5680   33.3610   29.6280 N.ar   99  HIS99      -0.2212
     73  N         23.1050   37.5750   26.1240 N.3   102  THR102     -0.1203
     74  CA        21.6610   37.5710   26.0810 C.3   102  THR102      0.1994
     75  C         21.0960   38.1740   27.3190 C.2   102  THR102      0.2618
     76  O         21.7580   38.3130   28.3320 O.2   102  THR102     -0.2717
     77  CB        21.0500   36.1790   25.8100 C.3   102  THR102      0.1784
     78  OG1       21.4630   35.2780   26.8110 O.3   102  THR102     -0.2211
     79  CG2       21.5490   35.5400   24.4810 C.3   102  THR102      0.0376
     80  N         19.8600   38.6140   27.1930 N.am  103  ARG103     -0.1965
     81  CA        19.0000   39.0330   28.3050 C.3   103  ARG103      0.1714
     82  C         17.7260   38.2020   28.3440 C.2   103  ARG103      0.2458
     83  O         17.2240   37.7700   27.2930 O.2   103  ARG103     -0.2730
     84  CB        18.6130   40.5050   28.0920 C.3   103  ARG103      0.0347
     85  CG        19.7930   41.4720   28.2440 C.3   103  ARG103      0.0492
     86  CD        20.1480   41.6740   29.7080 C.3   103  ARG103      0.2205
     87  NE        21.2870   42.5590   29.9100 N.pl3 103  ARG103     -0.0865
     88  CZ        22.5630   42.1580   29.9090 C.cat 103  ARG103      0.5346
     89  NH1       22.8970   40.8750   29.6350 N.pl3 103  ARG103      0.1354
     90  NH2       23.5250   43.0420   30.1570 N.pl3 103  ARG103      0.1354
     91  N         17.1590   37.9690   29.5430 N.am  104  PRO104     -0.2727
     92  CA        16.0370   37.0680   29.6050 C.3   104  PRO104      0.1402
     93  C         14.9560   37.3930   28.6110 C.2   104  PRO104      0.2269
     94  O         14.6150   38.5690   28.3900 O.2   104  PRO104     -0.2865
     95  CB        15.5320   37.2340   31.0590 C.3   104  PRO104      0.0296
     96  CG        16.7970   37.4610   31.7920 C.3   104  PRO104      0.0237
     97  CD        17.5660   38.4190   30.9110 C.3   104  PRO104      0.0939
     98  N         10.9670   33.6710   29.5250 N.3   108  GLN108     -0.1245
     99  CA        11.6680   33.3710   30.7640 C.3   108  GLN108      0.1566
    100  C         11.3680   34.3600   31.8650 C.2   108  GLN108      0.2260
    101  O         11.9420   34.2230   32.9780 O.2   108  GLN108     -0.2867
    102  CB        13.1750   33.4260   30.5170 C.3   108  GLN108      0.0367
    103  CG        13.6900   32.4190   29.4630 C.3   108  GLN108      0.0905
    104  CD        15.1430   32.6710   29.0610 C.2   108  GLN108      0.2608
    105  OE1       15.5840   33.8280   28.9690 O.2   108  GLN108     -0.2717
    106  NE2       15.8470   31.6410   28.7500 N.am  108  GLN108     -0.0878
    107  N         10.0590   32.9950   35.2890 N.3   111  THR111     -0.1203
    108  CA        11.1000   32.2400   35.9700 C.3   111  THR111      0.1994
    109  C         12.1650   33.1110   36.6010 C.2   111  THR111      0.2617
    110  O         12.4550   32.9690   37.7790 O.2   111  THR111     -0.2717
    111  CB        11.7280   31.2520   35.0220 C.3   111  THR111      0.1784
    112  OG1       10.7230   30.2770   34.6790 O.3   111  THR111     -0.2211
    113  CG2       12.9330   30.4910   35.6120 C.3   111  THR111      0.0376
    114  N         12.6760   34.0340   35.8420 N.am  112  VAL112     -0.1979
    115  CA        13.7930   34.8460   36.3750 C.3   112  VAL112      0.1595
    116  C         13.2280   35.7810   37.4550 C.2   112  VAL112      0.2287
    117  O         13.9570   36.0900   38.4040 O.2   112  VAL112     -0.2864
    118  CB        14.6340   35.5630   35.2840 C.3   112  VAL112      0.0276
    119  CG1       15.1510   34.5040   34.3380 C.3   112  VAL112      0.0022
    120  CG2       13.8740   36.6980   34.6010 C.3   112  VAL112      0.0022
    121  N         13.1550   33.8380   40.5050 N.3   115  GLN115     -0.1231
    122  CA        14.5070   33.7050   41.0390 C.3   115  GLN115      0.1698
    123  C         14.9200   34.9480   41.8090 C.2   115  GLN115      0.2592
    124  O         15.5290   34.8830   42.8970 O.2   115  GLN115     -0.2718
    125  CB        15.4930   33.3960   39.9320 C.3   115  GLN115      0.0381
    126  CG        15.2710   32.0890   39.2720 C.3   115  GLN115      0.0905
    127  CD        16.1360   31.8780   38.0590 C.2   115  GLN115      0.2608
    128  OE1       16.9970   32.7150   37.7190 O.2   115  GLN115     -0.2717
    129  NE2       16.0580   30.6940   37.5210 N.am  115  GLN115     -0.0878
    130  N         14.6680   36.0950   41.2540 N.am  116  LEU116     -0.1980
    131  CA        15.0970   37.3400   41.8570 C.3   116  LEU116      0.1596
    132  C         14.3050   37.5310   43.1430 C.2   116  LEU116      0.2287
    133  O         14.8950   37.9180   44.1600 O.2   116  LEU116     -0.2864
    134  CB        14.8870   38.4700   40.8890 C.3   116  LEU116      0.0297
    135  CG        15.8140   38.5130   39.7000 C.3   116  LEU116      0.0022
    136  CD1       15.3290   39.4290   38.6300 C.3   116  LEU116      0.0001
    137  CD2       17.2230   38.9320   40.1520 C.3   116  LEU116      0.0001
    138  N         20.9460   39.9060   42.6600 N.3   130  LEU130     -0.1245
    139  CA        21.3620   39.9370   41.2660 C.3   130  LEU130      0.1561
    140  C         22.8360   39.7130   41.1120 C.2   130  LEU130      0.2260
    141  O         23.2570   38.9480   40.2310 O.2   130  LEU130     -0.2867
    142  CB        20.9060   41.2460   40.6260 C.3   130  LEU130      0.0270
    143  CG        21.3570   41.4700   39.2060 C.3   130  LEU130      0.0019
    144  CD1       20.7320   40.5120   38.2050 C.3   130  LEU130      0.0001
    145  CD2       21.1440   42.9250   38.8250 C.3   130  LEU130      0.0001
    146  N         23.3990   35.9820   41.5360 N.3   133  ILE133     -0.1231
    147  CA        22.9370   35.2660   40.3780 C.3   133  ILE133      0.1692
    148  C         23.8590   35.5480   39.2050 C.2   133  ILE133      0.2592
    149  O         24.1920   34.5450   38.4770 O.2   133  ILE133     -0.2718
    150  CB        21.5390   35.7280   40.0310 C.3   133  ILE133      0.0266
    151  CG1       20.5610   35.0940   41.0420 C.3   133  ILE133      0.0019
    152  CG2       21.1400   35.3470   38.6170 C.3   133  ILE133      0.0020
    153  CD1       19.1850   35.6850   40.9860 C.3   133  ILE133      0.0001
    154  N         24.2840   36.7710   39.0120 N.am  134  SER134     -0.1952
    155  CA        25.2350   37.0770   37.9140 C.3   134  SER134      0.1924
    156  C         26.5390   36.3460   38.0410 C.2   134  SER134      0.2314
    157  O         27.0990   35.8290   37.1310 O.2   134  SER134     -0.2863
    158  CB        25.4660   38.5820   37.7870 C.3   134  SER134      0.2116
    159  OG        24.2460   39.0900   37.3000 O.3   134  SER134     -0.2180
    160  N         27.1750   33.5720   39.7380 N.3   136  VAL136     -0.1231
    161  CA        26.9810   32.1380   39.4450 C.3   136  VAL136      0.1692
    162  C         26.9210   31.9060   37.9160 C.2   136  VAL136      0.2592
    163  O         27.5720   30.9980   37.3910 O.2   136  VAL136     -0.2718
    164  CB        25.6860   31.6180   40.1160 C.3   136  VAL136      0.0266
    165  CG1       25.3410   30.2430   39.5860 C.3   136  VAL136      0.0020
    166  CG2       25.8600   31.6040   41.6330 C.3   136  VAL136      0.0020
    167  N         26.1690   32.7500   37.2320 N.am  137  SER137     -0.1952
    168  CA        26.0100   32.6300   35.7970 C.3   137  SER137      0.1924
    169  C         27.3330   32.8060   35.1110 C.2   137  SER137      0.2314
    170  O         27.6630   32.0190   34.2130 O.2   137  SER137     -0.2863
    171  CB        25.0160   33.6040   35.2320 C.3   137  SER137      0.2116
    172  OG        23.7580   33.4300   35.8460 O.3   137  SER137     -0.2180
@<TRIPOS>BOND
     1    79    77    1
     2    63    64    1
     3    64    65    1
     4    64    67    1
     5    77    74    1
     6    77    78    1
     7    65    66    2
     8    74    73    1
     9    74    75    1
    10    67    68    1
    11     1     2    1
    12    80    75   am
    13    80    81    1
    14    83    82    2
    15    75    76    2
    16    68    69   ar
    17    68    70   ar
    18    84    85    1
    19    84    81    1
    20    85    86    1
    21    81    82    1
    22    69    71   ar
    23    82    91   am
    24    94    93    2
    25     2     3    1
    26     2     5    1
    27    93    92    1
    28     3     4    2
    29   106   104   am
    30    70    72   ar
    31   105   104    2
    32   104   103    1
    33     6     5    1
    34     6     8    1
    35     6     7    1
    36    71    72   ar
    37   103   102    1
    38    98    99    1
    39    91    92    1
    40    91    97    1
    41    92    95    1
    42    89    88    1
    43    86    87    1
    44    88    87    2
    45    88    90    1
    46   102    99    1
    47    99   100    1
    48     9    10    1
    49    97    96    1
    50    95    96    1
    51    60    62   ar
    52    60    58   ar
    53    13    10    1
    54    13    14    1
    55   100   101    2
    56    55    54    2
    57    62    61   ar
    58    10    11    1
    59    58    57   ar
    60    12    11    2
    61    14    16   ar
    62    14    15   ar
    63    61    59   ar
    64    54    53    1
    65    16    18   ar
    66    57    59   ar
    67    57    56    1
    68    53    56    1
    69    53    52    1
    70    15    17   ar
    71   170   169    2
    72   119   118    1
    73    18    17   ar
    74   120   118    1
    75   112   111    1
    76   111   113    1
    77   111   108    1
    78   169   168    1
    79   171   168    1
    80   171   172    1
    81   118   115    1
    82   107   108    1
    83    24    23    1
    84   168   167    1
    85   114   115    1
    86   114   109   am
    87    23    20    1
    88   108   109    1
    89   115   116    1
    90   109   110    2
    91   157   156    2
    92    20    19    1
    93    20    21    1
    94   167   162   am
    95   159   158    1
    96   163   162    2
    97    47    46    2
    98   116   117    2
    99   129   127   am
   100   128   127    2
   101   158   155    1
   102   155   156    1
   103   155   154    1
   104   162   161    1
   105   127   126    1
   106    51    49   am
   107   144   143    1
   108    21    22    2
   109   149   148    2
   110    50    49    2
   111   152   150    1
   112   136   135    1
   113    46    45    1
   114    49    48    1
   115   145   143    1
   116   154   148   am
   117   148   147    1
   118   143   142    1
   119   126   125    1
   120   161   160    1
   121   161   164    1
   122    45    48    1
   123    45    44    1
   124   165   164    1
   125   135   137    1
   126   135   134    1
   127   125   122    1
   128   150   147    1
   129   150   151    1
   130   164   166    1
   131   141   140    2
   132   147   146    1
   133   121   122    1
   134   142   139    1
   135   134   131    1
   136   153   151    1
   137   122   123    1
   138   140   139    1
   139    35    33   ar
   140    35    34   ar
   141   130   123   am
   142   130   131    1
   143   139   138    1
   144    33    31   ar
   145   123   124    2
   146   131   132    1
   147    39    38    2
   148    34    32   ar
   149    28    27    2
   150    31    30   ar
   151    38    37    1
   152   132   133    2
   153    43    41    1
   154    32    30   ar
   155    37    40    1
   156    37    36    1
   157    30    29    1
   158    27    36   am
   159    27    26    1
   160    40    41    1
   161    41    42    1
   162    26    29    1
   163    26    25    1
