@<TRIPOS>MOLECULE
tmp/4d7oA02.pdb
 162 161 0 0 0
SMALL
GASTEIGER

@<TRIPOS>ATOM
      1  N          2.7250    9.3060   35.0530 N.3    38  MET38      -0.1230
      2  CA         3.2010    8.8950   33.7180 C.3    38  MET38       0.1702
      3  C          3.0720   10.0330   32.6900 C.2    38  MET38       0.2592
      4  O          4.0200   10.3060   31.9340 O.2    38  MET38      -0.2718
      5  CB         2.4170    7.6880   33.2200 C.3    38  MET38       0.0401
      6  CG         2.4970    6.4920   34.1520 C.3    38  MET38       0.0596
      7  SD         2.5900    4.9560   33.2030 S.3    38  MET38      -0.1393
      8  CE         4.2630    5.2060   32.6320 C.3    38  MET38       0.0692
      9  N          1.9060   10.6790   32.6810 N.am   39  LEU39      -0.1980
     10  CA         1.6010   11.7680   31.7390 C.3    39  LEU39       0.1596
     11  C          1.2820   13.0590   32.5150 C.2    39  LEU39       0.2287
     12  O          0.1110   13.3890   32.7170 O.2    39  LEU39      -0.2864
     13  CB         0.4160   11.3580   30.8520 C.3    39  LEU39       0.0297
     14  CG         0.4380    9.9610   30.2160 C.3    39  LEU39       0.0022
     15  CD1       -0.9360    9.5500   29.6970 C.3    39  LEU39       0.0001
     16  CD2        1.4850    9.8800   29.1230 C.3    39  LEU39       0.0001
     17  N         17.1330   12.6070   21.2310 N.3   100  TRP100     -0.1241
     18  CA        17.5190   11.3600   21.9390 C.3   100  TRP100      0.1605
     19  C         18.3650   11.7030   23.1670 C.2   100  TRP100      0.2264
     20  O         18.0790   11.2230   24.2780 O.2   100  TRP100     -0.2867
     21  CB        18.2730   10.4270   20.9910 C.3   100  TRP100      0.0550
     22  CG        18.6140    9.0880   21.5530 C.ar  100  TRP100      0.0003
     23  CD1       18.1800    8.5460   22.7440 C.ar  100  TRP100      0.0946
     24  CD2       19.4440    8.1060   20.9380 C.ar  100  TRP100      0.0152
     25  NE1       18.7190    7.2890   22.9200 N.ar  100  TRP100     -0.2442
     26  CE2       19.4920    6.9850   21.8200 C.ar  100  TRP100      0.0810
     27  CE3       20.1660    8.0570   19.7210 C.ar  100  TRP100      0.0012
     28  CZ2       20.2270    5.8120   21.5220 C.ar  100  TRP100      0.0191
     29  CZ3       20.9130    6.8870   19.4290 C.ar  100  TRP100      0.0001
     30  CH2       20.9340    5.7860   20.3320 C.ar  100  TRP100      0.0015
     31  N          4.3100    0.8750   18.1490 N.3   169  GLN169     -0.1245
     32  CA         5.6580    0.4520   17.6960 C.3   169  GLN169      0.1566
     33  C          5.4940   -0.1100   16.3030 C.2   169  GLN169      0.2260
     34  O          4.4270   -0.6110   15.9870 O.2   169  GLN169     -0.2867
     35  CB         6.2360   -0.6500   18.5880 C.3   169  GLN169      0.0367
     36  CG         6.6790   -0.1650   19.9550 C.3   169  GLN169      0.0905
     37  CD         7.2160   -1.2830   20.8310 C.2   169  GLN169      0.2608
     38  OE1        8.0310   -2.1090   20.4000 O.2   169  GLN169     -0.2717
     39  NE2        6.7930   -1.2860   22.0850 N.am  169  GLN169     -0.0878
     40  N          4.7100   -4.9870   16.6420 N.3   172  ARG172     -0.1245
     41  CA         4.0050   -5.3610   17.8800 C.3   172  ARG172      0.1563
     42  C          3.0070   -6.4780   17.6000 C.2   172  ARG172      0.2260
     43  O          2.6880   -6.7540   16.4400 O.2   172  ARG172     -0.2867
     44  CB         3.3010   -4.1570   18.4990 C.3   172  ARG172      0.0307
     45  CG         4.1060   -3.5080   19.6050 C.3   172  ARG172      0.0489
     46  CD         3.2330   -2.6050   20.4440 C.3   172  ARG172      0.2205
     47  NE         3.4300   -2.8760   21.8520 N.pl3 172  ARG172     -0.0865
     48  CZ         2.7850   -2.2380   22.8270 C.cat 172  ARG172      0.5346
     49  NH1        1.9090   -1.2750   22.5400 N.pl3 172  ARG172      0.1354
     50  NH2        3.0370   -2.5490   24.0980 N.pl3 172  ARG172      0.1354
     51  N         12.9640   -2.9850   18.7200 N.3   256  PRO256     -0.2116
     52  CA        12.0780   -2.0470   19.3850 C.3   256  PRO256      0.1372
     53  C         12.0500   -0.7240   18.6130 C.2   256  PRO256      0.2244
     54  O         13.0770   -0.0650   18.4800 O.2   256  PRO256     -0.2868
     55  CB        12.7420   -1.8630   20.7630 C.3   256  PRO256      0.0268
     56  CG        14.2080   -2.0760   20.5070 C.3   256  PRO256      0.0207
     57  CD        14.3350   -2.9840   19.2860 C.3   256  PRO256      0.0892
     58  N          9.7890    2.6860   18.2950 N.3   258  VAL258     -0.1245
     59  CA         8.6800    3.5200   18.7410 C.3   258  VAL258      0.1561
     60  C          8.2040    4.3640   17.5870 C.2   258  VAL258      0.2260
     61  O          9.0110    5.0530   16.9760 O.2   258  VAL258     -0.2867
     62  CB         9.1200    4.4680   19.8800 C.3   258  VAL258      0.0252
     63  CG1        8.0350    5.5080   20.1540 C.3   258  VAL258      0.0019
     64  CG2        9.4530    3.6550   21.1280 C.3   258  VAL258      0.0019
     65  N          5.4740    8.8020   18.8130 N.3   261  MET261     -0.1245
     66  CA         5.9180   10.0250   19.4760 C.3   261  MET261      0.1570
     67  C          6.0980   11.1710   18.5030 C.2   261  MET261      0.2261
     68  O          6.1310   10.9580   17.3080 O.2   261  MET261     -0.2867
     69  CB         7.1830    9.7630   20.2840 C.3   261  MET261      0.0387
     70  CG         6.8930    8.8270   21.4530 C.3   261  MET261      0.0595
     71  SD         8.2960    8.6830   22.5610 S.3   261  MET261     -0.1393
     72  CE         8.0650   10.1000   23.6420 C.3   261  MET261      0.0692
     73  N         11.4870    5.6060   15.4670 N.3   275  PHE275     -0.1227
     74  CA        12.8960    5.4370   15.8260 C.3   275  PHE275      0.1736
     75  C         13.1210    4.1120   16.5210 C.2   275  PHE275      0.2596
     76  O         12.2120    3.5930   17.1610 O.2   275  PHE275     -0.2718
     77  CB        13.3800    6.6060   16.6870 C.3   275  PHE275      0.0547
     78  CG        12.6350    6.7740   17.9880 C.ar  275  PHE275     -0.0202
     79  CD1       12.9970    6.0260   19.1150 C.ar  275  PHE275     -0.0042
     80  CD2       11.6300    7.7250   18.1110 C.ar  275  PHE275     -0.0042
     81  CE1       12.3490    6.2110   20.3370 C.ar  275  PHE275     -0.0003
     82  CE2       10.9780    7.9180   19.3370 C.ar  275  PHE275     -0.0003
     83  CZ        11.3450    7.1620   20.4520 C.ar  275  PHE275     -0.0000
     84  N         14.3270    3.5700   16.3770 N.am  276  SER276     -0.1938
     85  CA        14.6200    2.2370   16.8720 C.3   276  SER276      0.2055
     86  C         16.0360    2.1010   17.4050 C.2   276  SER276      0.2644
     87  O         16.9540    2.8070   16.9710 O.2   276  SER276     -0.2714
     88  CB        14.3670    1.1710   15.7800 C.3   276  SER276      0.2130
     89  OG        15.2170    1.3930   14.6510 O.3   276  SER276     -0.2179
     90  N         16.2080    1.1700   18.3610 N.am  277  GLY277     -0.1939
     91  CA        17.5400    0.8350   18.8820 C.3   277  GLY277      0.2014
     92  C         17.6250   -0.6710   19.0360 C.2   277  GLY277      0.2639
     93  O         17.4790   -1.4070   18.0600 O.2   277  GLY277     -0.2714
     94  N         17.9060   -1.1250   20.2540 N.am  278  TRP278     -0.1959
     95  CA        17.8670   -2.5500   20.5870 C.3   278  TRP278      0.1771
     96  C         17.3440   -2.6600   22.0100 C.2   278  TRP278      0.2620
     97  O         17.3360   -1.6510   22.7500 O.2   278  TRP278     -0.2715
     98  CB        19.2210   -3.2220   20.4890 C.3   278  TRP278      0.0590
     99  CG        20.3360   -2.5370   21.2090 C.ar  278  TRP278      0.0006
    100  CD1       20.6460   -2.6180   22.5670 C.ar  278  TRP278      0.0946
    101  CD2       21.3020   -1.6680   20.6270 C.ar  278  TRP278      0.0152
    102  NE1       21.7570   -1.8520   22.8270 N.ar  278  TRP278     -0.2442
    103  CE2       22.1840   -1.2650   21.6570 C.ar  278  TRP278      0.0810
    104  CE3       21.5230   -1.1950   19.3140 C.ar  278  TRP278      0.0012
    105  CZ2       23.2670   -0.3910   21.4170 C.ar  278  TRP278      0.0191
    106  CZ3       22.5940   -0.3450   19.0800 C.ar  278  TRP278      0.0001
    107  CH2       23.4590    0.0390   20.1230 C.ar  278  TRP278      0.0015
    108  N         16.8840   -3.8530   22.3690 N.am  279  TYR279     -0.1960
    109  CA        16.1940   -4.0500   23.6600 C.3   279  TYR279      0.1771
    110  C         17.1320   -4.1440   24.8470 C.2   279  TYR279      0.2619
    111  O         18.2590   -4.6190   24.7200 O.2   279  TYR279     -0.2715
    112  CB        15.3970   -5.3420   23.6100 C.3   279  TYR279      0.0574
    113  CG        13.9590   -5.1820   23.2040 C.ar  279  TYR279     -0.0198
    114  CD1       13.0740   -4.4580   24.0090 C.ar  279  TYR279     -0.0009
    115  CD2       13.4780   -5.7530   22.0230 C.ar  279  TYR279     -0.0009
    116  CE1       11.7440   -4.3220   23.6700 C.ar  279  TYR279      0.0417
    117  CE2       12.1390   -5.6220   21.6620 C.ar  279  TYR279      0.0417
    118  CZ        11.2800   -4.8990   22.4940 C.ar  279  TYR279      0.1957
    119  OH         9.9420   -4.7420   22.1910 O.3   279  TYR279     -0.2866
    120  N         16.6610   -3.6660   25.9950 N.am  280  MET280     -0.1977
    121  CA        17.2170   -4.0930   27.2960 C.3   280  MET280      0.1605
    122  C         16.3380   -5.2630   27.7060 C.2   280  MET280      0.2287
    123  O         15.1170   -5.1720   27.5600 O.2   280  MET280     -0.2864
    124  CB        17.1700   -2.9340   28.3120 C.3   280  MET280      0.0413
    125  CG        17.7630   -3.2970   29.6810 C.3   280  MET280      0.0598
    126  SD        17.9770   -1.8560   30.7610 S.3   280  MET280     -0.1393
    127  CE        16.2720   -1.4880   31.1620 C.3   280  MET280      0.0692
    128  N         12.7760   -5.2210   29.4810 N.3   283  GLU283     -0.1245
    129  CA        11.6220   -4.7060   28.7730 C.3   283  GLU283      0.1567
    130  C         10.7040   -5.8680   28.3600 C.2   283  GLU283      0.2260
    131  O          9.4820   -5.7860   28.5190 O.2   283  GLU283     -0.2867
    132  CB        12.0630   -3.9310   27.5270 C.3   283  GLU283      0.0388
    133  CG        12.6360   -2.5610   27.8610 C.3   283  GLU283      0.1160
    134  CD        13.0710   -1.8410   26.6080 C.2   283  GLU283      0.3649
    135  OE1       14.2430   -2.0270   26.1870 O.co2 283  GLU283     -0.2457
    136  OE2       12.2150   -1.1190   26.0460 O.co2 283  GLU283     -0.2457
    137  N         11.8190    5.9630   35.7730 N.3   369  TRP369     -0.1241
    138  CA        11.9620    5.2040   34.5030 C.3   369  TRP369      0.1605
    139  C         13.3380    4.5740   34.2530 C.2   369  TRP369      0.2264
    140  O         13.4050    3.5010   33.6300 O.2   369  TRP369     -0.2867
    141  CB        11.6200    6.1110   33.3060 C.3   369  TRP369      0.0550
    142  CG        10.1470    6.1830   33.0340 C.ar  369  TRP369      0.0003
    143  CD1        9.1620    6.6180   33.8840 C.ar  369  TRP369      0.0946
    144  CD2        9.4960    5.8330   31.8020 C.ar  369  TRP369      0.0152
    145  NE1        7.9270    6.5320   33.2530 N.ar  369  TRP369     -0.2442
    146  CE2        8.1130    6.0490   31.9810 C.ar  369  TRP369      0.0810
    147  CE3        9.9560    5.3410   30.5700 C.ar  369  TRP369      0.0012
    148  CZ2        7.1790    5.8170   30.9600 C.ar  369  TRP369      0.0191
    149  CZ3        9.0280    5.1010   29.5560 C.ar  369  TRP369      0.0001
    150  CH2        7.6570    5.3490   29.7630 C.ar  369  TRP369      0.0015
    151  N          5.0530   12.8020   23.8770 N.3   397  TYR397     -0.1241
    152  CA         3.8500   12.0500   23.5830 C.3   397  TYR397      0.1605
    153  C          2.8730   12.9210   22.7930 C.2   397  TYR397      0.2264
    154  O          2.9180   14.1510   22.8540 O.2   397  TYR397     -0.2867
    155  CB         3.1650   11.6010   24.8690 C.3   397  TYR397      0.0534
    156  CG         4.0160   10.7580   25.7980 C.ar  397  TYR397     -0.0201
    157  CD1        4.6540    9.5840   25.3570 C.ar  397  TYR397     -0.0009
    158  CD2        4.1730   11.1330   27.1280 C.ar  397  TYR397     -0.0009
    159  CE1        5.4290    8.8150   26.2270 C.ar  397  TYR397      0.0417
    160  CE2        4.9420   10.3700   28.0080 C.ar  397  TYR397      0.0417
    161  CZ         5.5500    9.2250   27.5610 C.ar  397  TYR397      0.1957
    162  OH         6.2950    8.5220   28.4590 O.3   397  TYR397     -0.2866
@<TRIPOS>BOND
     1    89    88    1
     2    73    74    1
     3    88    85    1
     4    74    75    1
     5    74    77    1
     6    34    33    2
     7    33    32    1
     8    84    75   am
     9    84    85    1
    10    43    42    2
    11    75    76    2
    12    40    41    1
    13    77    78    1
    14    85    86    1
    15    87    86    2
    16    61    60    2
    17    68    67    2
    18    86    90   am
    19    60    59    1
    20    42    41    1
    21    32    31    1
    22    32    35    1
    23    41    44    1
    24    78    80   ar
    25    78    79   ar
    26    93    92    2
    27    80    82   ar
    28    58    59    1
    29    90    91    1
    30    54    53    2
    31    44    45    1
    32    67    66    1
    33    35    36    1
    34    53    52    1
    35    51    57    1
    36    51    52    1
    37    59    62    1
    38    65    66    1
    39    91    92    1
    40    92    94   am
    41   106   104   ar
    42   106   107   ar
    43    79    81   ar
    44    57    56    1
    45   104   101   ar
    46    82    83   ar
    47    52    55    1
    48    29    27   ar
    49    29    30   ar
    50    66    69    1
    51    45    46    1
    52    27    24   ar
    53    62    63    1
    54    62    64    1
    55    36    37    1
    56   107   105   ar
    57    94    95    1
    58    69    70    1
    59    30    28   ar
    60    81    83   ar
    61    38    37    2
    62    46    47    1
    63    98    95    1
    64    98    99    1
    65    56    55    1
    66    95    96    1
    67   101    99   ar
    68   101   103   ar
    69    37    39   am
    70    24    22   ar
    71    24    26   ar
    72    21    22    1
    73    21    18    1
    74    99   100   ar
    75    17    18    1
    76   105   103   ar
    77    70    71    1
    78    28    26   ar
    79    22    23   ar
    80   103   102   ar
    81   117   115   ar
    82   117   118   ar
    83    26    25   ar
    84    47    48    2
    85    18    19    1
    86    96   108   am
    87    96    97    2
    88   115   113   ar
    89   119   118    1
    90   108   109    1
    91   118   116   ar
    92    49    48    1
    93    71    72    1
    94   100   102   ar
    95    23    25   ar
    96   153   154    2
    97   153   152    1
    98    48    50    1
    99    19    20    2
   100   113   112    1
   101   113   114   ar
   102   152   151    1
   103   152   155    1
   104   112   109    1
   105   109   110    1
   106   116   114   ar
   107   111   110    2
   108   110   120   am
   109   155   156    1
   110   157   156   ar
   111   157   159   ar
   112   156   158   ar
   113   120   121    1
   114   136   134   ar
   115   135   134   ar
   116   159   161   ar
   117   134   133    1
   118   158   160   ar
   119   121   122    1
   120   121   124    1
   121   132   133    1
   122   132   129    1
   123   123   122    2
   124   161   160   ar
   125   161   162    1
   126   124   125    1
   127   130   131    2
   128   130   129    1
   129   129   128    1
   130    16    14    1
   131   149   150   ar
   132   149   147   ar
   133   125   126    1
   134    15    14    1
   135   150   148   ar
   136    14    13    1
   137   147   144   ar
   138   126   127    1
   139    13    10    1
   140   148   146   ar
   141    10    11    1
   142    10     9    1
   143   144   146   ar
   144   144   142   ar
   145     4     3    2
   146   146   145   ar
   147    11    12    2
   148     8     7    1
   149     9     3   am
   150     3     2    1
   151   142   141    1
   152   142   143   ar
   153     7     6    1
   154     5     2    1
   155     5     6    1
   156   145   143   ar
   157   141   138    1
   158   140   139    2
   159     2     1    1
   160   139   138    1
   161   138   137    1
