@<TRIPOS>MOLECULE
tmp/4d7qA00.pdb
 116 114 0 0 0
SMALL
GASTEIGER

@<TRIPOS>ATOM
      1  N          9.1280   -0.7420   12.6940 N.3   103  GLY103     -0.1225
      2  CA         8.3340    0.4310   13.0480 C.3   103  GLY103      0.1811
      3  C          9.0370    1.3550   14.0240 C.2   103  GLY103      0.2280
      4  O          8.4100    2.2540   14.5800 O.2   103  GLY103     -0.2866
      5  N          5.0530    7.3270   -1.4090 N.3   145  THR145     -0.1203
      6  CA         3.8970    7.0130   -0.5850 C.3   145  THR145      0.1994
      7  C          2.7250    7.9700   -0.8880 C.2   145  THR145      0.2617
      8  O          1.5870    7.5260   -1.0580 O.2   145  THR145     -0.2717
      9  CB         4.2770    7.0050    0.9150 C.3   145  THR145      0.1784
     10  OG1        5.4600    6.2370    1.1230 O.3   145  THR145     -0.2211
     11  CG2        3.1810    6.4320    1.7860 C.3   145  THR145      0.0376
     12  N          3.0010    9.2760   -0.9240 N.am  146  ASP146     -0.1973
     13  CA         1.9540   10.2680   -1.1770 C.3   146  ASP146      0.1709
     14  C          1.4250   10.2810   -2.5930 C.2   146  ASP146      0.2293
     15  O          0.2090   10.3750   -2.7650 O.2   146  ASP146     -0.2864
     16  CB         2.4190   11.6690   -0.7480 C.3   146  ASP146      0.1436
     17  CG         2.3210   11.8960    0.7480 C.2   146  ASP146      0.3671
     18  OD1        1.9150   10.9500    1.4740 O.co2 146  ASP146     -0.2456
     19  OD2        2.6050   13.0230    1.1920 O.co2 146  ASP146     -0.2456
     20  N         -1.0080    7.5960   -3.1360 N.3   149  ASN149     -0.1240
     21  CA        -2.1560    7.5820   -2.2530 C.3   149  ASN149      0.1653
     22  C         -3.3020    8.3540   -2.9760 C.2   149  ASN149      0.2266
     23  O         -3.2480    9.5880   -3.0650 O.2   149  ASN149     -0.2867
     24  CB        -1.7930    8.1740   -0.9100 C.3   149  ASN149      0.1155
     25  CG        -2.8770    8.1650    0.1240 C.2   149  ASN149      0.2627
     26  OD1       -4.0770    8.1160   -0.1680 O.2   149  ASN149     -0.2716
     27  ND2       -2.4690    8.2090    1.3690 N.am  149  ASN149     -0.0877
     28  N         -6.2210    9.0790   -2.0660 N.3   151  SER151     -0.1217
     29  CA        -7.0240    9.9360   -1.1880 C.3   151  SER151      0.1889
     30  C         -6.4070   11.3150   -1.0020 C.2   151  SER151      0.2288
     31  O         -7.1010   12.2260   -0.5920 O.2   151  SER151     -0.2866
     32  CB        -7.3020    9.2590    0.1510 C.3   151  SER151      0.2089
     33  OG        -6.1490    9.2350    0.9690 O.3   151  SER151     -0.2183
     34  N          5.3170   -2.8620    6.4360 N.3   197  PHE197     -0.1227
     35  CA         5.8970   -2.6410    7.7670 C.3   197  PHE197      0.1736
     36  C          5.3320   -3.6500    8.7370 C.2   197  PHE197      0.2595
     37  O          4.2130   -4.1130    8.5440 O.2   197  PHE197     -0.2718
     38  CB         5.5580   -1.2220    8.2840 C.3   197  PHE197      0.0547
     39  CG         6.1960   -0.0880    7.5090 C.ar  197  PHE197     -0.0202
     40  CD1        5.5660    0.4560    6.3900 C.ar  197  PHE197     -0.0042
     41  CD2        7.4210    0.4390    7.9000 C.ar  197  PHE197     -0.0042
     42  CE1        6.1460    1.5170    5.6900 C.ar  197  PHE197     -0.0003
     43  CE2        8.0280    1.4650    7.1700 C.ar  197  PHE197     -0.0003
     44  CZ         7.3790    2.0120    6.0800 C.ar  197  PHE197     -0.0000
     45  N          6.0520   -3.9240    9.8370 N.am  198  VAL198     -0.1966
     46  CA         5.5300   -4.7570   10.9280 C.3   198  VAL198      0.1727
     47  C          4.2800   -4.0010   11.4920 C.2   198  VAL198      0.2616
     48  O          4.2470   -2.7700   11.4630 O.2   198  VAL198     -0.2715
     49  CB         6.5930   -5.0040   12.0500 C.3   198  VAL198      0.0290
     50  CG1        7.7970   -5.7630   11.5150 C.3   198  VAL198      0.0023
     51  CG2        7.0410   -3.6940   12.7090 C.3   198  VAL198      0.0023
     52  N          3.2860   -4.7300   12.0110 N.am  199  ASP199     -0.1971
     53  CA         2.0930   -4.1210   12.5980 C.3   199  ASP199      0.1709
     54  C          2.4070   -3.5930   13.9840 C.2   199  ASP199      0.2293
     55  O          1.7550   -2.6710   14.4680 O.2   199  ASP199     -0.2864
     56  CB         0.9530   -5.1670   12.6970 C.3   199  ASP199      0.1436
     57  CG         0.2560   -5.4770   11.3840 C.2   199  ASP199      0.3671
     58  OD1        0.1200   -4.5480   10.5380 O.co2 199  ASP199     -0.2456
     59  OD2       -0.2000   -6.6350   11.2150 O.co2 199  ASP199     -0.2456
     60  N          4.3320   10.9560    8.0260 N.3   285  ARG285     -0.1227
     61  CA         3.0750   10.2710    7.8810 C.3   285  ARG285      0.1737
     62  C          3.2190    8.8990    7.2640 C.2   285  ARG285      0.2595
     63  O          2.5450    7.9850    7.6350 O.2   285  ARG285     -0.2718
     64  CB         2.0670   11.1160    7.1060 C.3   285  ARG285      0.0576
     65  CG         0.6230   10.7680    7.3140 C.2   285  ARG285      0.0160
     66  CD        -0.3760   11.7460    6.7400 C.2   285  ARG285      0.1886
     67  NE         0.1700   12.7020    5.8100 N.pl3 285  ARG285     -0.0578
     68  CZ         0.5060   12.4400    4.5640 C.cat 285  ARG285      0.5393
     69  NH1        0.3190   11.2560    4.0420 N.pl3 285  ARG285      0.1358
     70  NH2        1.0080   13.3960    3.8290 N.pl3 285  ARG285      0.1358
     71  N          4.1330    8.7550    6.3310 N.am  286  TRP286     -0.1962
     72  CA         4.1910    7.4440    5.6950 C.3   286  TRP286      0.1771
     73  C          4.7330    6.3890    6.6530 C.2   286  TRP286      0.2620
     74  O          4.4660    5.1980    6.4960 O.2   286  TRP286     -0.2715
     75  CB         5.0530    7.5000    4.4320 C.3   286  TRP286      0.0590
     76  CG         6.4650    7.9290    4.6870 C.ar  286  TRP286      0.0006
     77  CD1        6.9910    9.1730    4.4930 C.ar  286  TRP286      0.0946
     78  CD2        7.5330    7.1150    5.1850 C.ar  286  TRP286      0.0152
     79  NE1        8.3210    9.1840    4.8390 N.ar  286  TRP286     -0.2442
     80  CE2        8.6780    7.9320    5.2670 C.ar  286  TRP286      0.0810
     81  CE3        7.6330    5.7740    5.5700 C.ar  286  TRP286      0.0012
     82  CZ2        9.9060    7.4540    5.7180 C.ar  286  TRP286      0.0191
     83  CZ3        8.8540    5.3010    6.0170 C.ar  286  TRP286      0.0001
     84  CH2        9.9740    6.1390    6.0870 C.ar  286  TRP286      0.0015
     85  N          5.4960    6.8350    7.6460 N.am  287  PHE287     -0.1960
     86  CA         6.0800    5.9250    8.6370 C.3   287  PHE287      0.1771
     87  C          5.1810    5.7090    9.8340 C.2   287  PHE287      0.2619
     88  O          5.0580    4.5860   10.3220 O.2   287  PHE287     -0.2715
     89  CB         7.4320    6.4860    9.1320 C.3   287  PHE287      0.0574
     90  CG         8.1890    5.5620   10.0620 C.ar  287  PHE287     -0.0200
     91  CD1        8.8310    4.4190    9.5730 C.ar  287  PHE287     -0.0042
     92  CD2        8.2270    5.8040   11.4310 C.ar  287  PHE287     -0.0042
     93  CE1        9.5240    3.5650   10.4390 C.ar  287  PHE287     -0.0003
     94  CE2        8.9430    4.9590   12.2850 C.ar  287  PHE287     -0.0003
     95  CZ         9.5950    3.8600   11.7800 C.ar  287  PHE287     -0.0000
     96  N          4.5890    6.8060   10.3310 N.am  288  LEU288     -0.1963
     97  CA         3.8260    6.8100   11.5660 C.3   288  LEU288      0.1728
     98  C          2.3100    6.8470   11.3890 C.2   288  LEU288      0.2617
     99  O          1.5720    6.4800   12.3050 O.2   288  LEU288     -0.2715
    100  CB         4.2920    8.0280   12.3880 C.3   288  LEU288      0.0311
    101  CG         3.7160    8.2210   13.7950 C.3   288  LEU288      0.0022
    102  CD1        4.1730    7.1190   14.7450 C.3   288  LEU288      0.0001
    103  CD2        4.0230    9.5750   14.3230 C.3   288  LEU288      0.0001
    104  N          1.8480    7.3560   10.2660 N.am  289  GLY289     -0.1940
    105  CA         0.4160    7.5770   10.1280 C.3   289  GLY289      0.2014
    106  C          0.0730    8.8870   10.8190 C.2   289  GLY289      0.2638
    107  O          0.9550    9.7050   11.0980 O.2   289  GLY289     -0.2714
    108  N         -1.1870    9.0790   11.1590 N.am  290  GLU290     -0.1977
    109  CA        -1.6480   10.3490   11.7130 C.3   290  GLU290      0.1602
    110  C         -1.6570   10.4680   13.2280 C.2   290  GLU290      0.2287
    111  O         -1.9530   11.5500   13.7400 O.2   290  GLU290     -0.2864
    112  CB        -3.0310   10.7040   11.1320 C.3   290  GLU290      0.0415
    113  CG        -3.0630   10.8120    9.6110 C.3   290  GLU290      0.1163
    114  CD        -4.4060   11.1690    8.9940 C.2   290  GLU290      0.3649
    115  OE1       -5.4630   10.8030    9.5600 O.co2 290  GLU290     -0.2457
    116  OE2       -4.3950   11.8020    7.9170 O.co2 290  GLU290     -0.2457
@<TRIPOS>BOND
     1    20    21    1
     2    23    22    2
     3    22    21    1
     4    15    14    2
     5    14    13    1
     6    21    24    1
     7    28    29    1
     8     5     6    1
     9    29    30    1
    10    29    32    1
    11    13    12    1
    12    13    16    1
    13     8     7    2
    14    30    31    2
    15    12     7   am
    16    24    25    1
    17     7     6    1
    18    16    17    1
    19     6     9    1
    20    26    25    2
    21    25    27   am
    22    32    33    1
    23    17    19   ar
    24    17    18   ar
    25     9    10    1
    26     9    11    1
    27    70    68    1
    28    69    68    1
    29    75    76    1
    30    75    72    1
    31    77    76   ar
    32    77    79   ar
    33    68    67    2
    34    76    78   ar
    35    79    80   ar
    36    78    80   ar
    37    78    81   ar
    38    80    82   ar
    39    81    83   ar
    40    42    44   ar
    41    42    40   ar
    42    72    71    1
    43    72    73    1
    44    82    84   ar
    45    67    66    1
    46    83    84   ar
    47    44    43   ar
    48    71    62   am
    49    40    39   ar
    50    34    35    1
    51    74    73    2
    52    73    85   am
    53    66    65    2
    54    64    65    1
    55    64    61    1
    56    43    41   ar
    57    62    63    2
    58    62    61    1
    59    39    41   ar
    60    39    38    1
    61    85    86    1
    62    35    38    1
    63    35    36    1
    64    61    60    1
    65   116   114   ar
    66    37    36    2
    67    86    89    1
    68    86    87    1
    69    36    45   am
    70   114   115   ar
    71   114   113    1
    72    89    90    1
    73    91    90   ar
    74    91    93   ar
    75   113   112    1
    76    87    88    2
    77    87    96   am
    78    45    46    1
    79    90    92   ar
    80   105   104    1
    81   105   106    1
    82   104    98   am
    83    96    97    1
    84    93    95   ar
    85    58    57   ar
    86   106   107    2
    87   106   108   am
    88    46    47    1
    89    46    49    1
    90   112   109    1
    91   108   109    1
    92    59    57   ar
    93    57    56    1
    94    98    97    1
    95    98    99    2
    96    92    94   ar
    97    48    47    2
    98    47    52   am
    99    50    49    1
   100    97   100    1
   101   109   110    1
   102    95    94   ar
   103    52    53    1
   104    49    51    1
   105   100   101    1
   106    53    56    1
   107    53    54    1
   108     1     2    1
   109     2     3    1
   110   110   111    2
   111   101   103    1
   112   101   102    1
   113    54    55    2
   114     3     4    2
