@<TRIPOS>MOLECULE
tmp/4d7tB00.pdb
 135 128 0 0 0
SMALL
GASTEIGER

@<TRIPOS>ATOM
      1  N        -16.3020  -44.2070   16.4280 N.3    83  ILE83      -0.1245
      2  CA       -16.4050  -44.2900   14.9770 C.3    83  ILE83       0.1561
      3  C        -15.4160  -45.3250   14.4390 C.2    83  ILE83       0.2260
      4  O        -14.2520  -45.3490   14.8430 O.2    83  ILE83      -0.2867
      5  CB       -16.1320  -42.9150   14.3210 C.3    83  ILE83       0.0252
      6  CG1      -17.3340  -41.9730   14.4620 C.3    83  ILE83       0.0019
      7  CG2      -15.7590  -43.0810   12.8610 C.3    83  ILE83       0.0019
      8  CD1      -18.6770  -42.6320   14.2360 C.3    83  ILE83       0.0001
      9  N         -7.0630  -41.8600   17.0280 N.3   102  VAL102     -0.1245
     10  CA        -7.4750  -41.9510   15.6340 C.3   102  VAL102      0.1561
     11  C         -6.7100  -43.0930   14.9690 C.2   102  VAL102      0.2260
     12  O         -5.5450  -42.9330   14.6060 O.2   102  VAL102     -0.2867
     13  CB        -7.2280  -40.6240   14.8820 C.3   102  VAL102      0.0252
     14  CG1       -7.7230  -40.7190   13.4460 C.3   102  VAL102      0.0019
     15  CG2       -7.9150  -39.4780   15.6060 C.3   102  VAL102      0.0019
     16  N         -3.1500  -41.9800   14.1240 N.3   111  TYR111     -0.1227
     17  CA        -2.8330  -40.7440   13.4280 C.3   111  TYR111      0.1736
     18  C         -2.7970  -39.5570   14.3760 C.2   111  TYR111      0.2595
     19  O         -2.0670  -38.5950   14.1450 O.2   111  TYR111     -0.2718
     20  CB        -3.8440  -40.4970   12.3100 C.3   111  TYR111      0.0548
     21  CG        -3.7500  -41.5150   11.2010 C.ar  111  TYR111     -0.0200
     22  CD1       -2.7580  -41.4260   10.2370 C.ar  111  TYR111     -0.0009
     23  CD2       -4.6430  -42.5720   11.1250 C.ar  111  TYR111     -0.0009
     24  CE1       -2.6620  -42.3600    9.2240 C.ar  111  TYR111      0.0417
     25  CE2       -4.5540  -43.5100   10.1150 C.ar  111  TYR111      0.0417
     26  CZ        -3.5620  -43.3980    9.1670 C.ar  111  TYR111      0.1957
     27  OH        -3.4650  -44.3260    8.1580 O.3   111  TYR111     -0.2866
     28  N         -3.5930  -39.6180   15.4380 N.am  112  ALA112     -0.1980
     29  CA        -3.6600  -38.5100   16.3800 C.3   112  ALA112      0.1597
     30  C         -4.2280  -38.9030   17.7340 C.2   112  ALA112      0.2287
     31  O         -5.2000  -39.6590   17.8230 O.2   112  ALA112     -0.2864
     32  CB        -4.4880  -37.3720   15.7920 C.3   112  ALA112      0.0319
     33  N         -6.3360  -37.0870   20.3870 N.3   114  LEU114     -0.1245
     34  CA        -7.1570  -35.8880   20.4020 C.3   114  LEU114      0.1561
     35  C         -7.6420  -35.5770   21.8180 C.2   114  LEU114      0.2260
     36  O         -8.4530  -36.3100   22.3850 O.2   114  LEU114     -0.2867
     37  CB        -8.3310  -36.0430   19.4310 C.3   114  LEU114      0.0270
     38  CG        -7.9200  -36.2350   17.9610 C.3   114  LEU114      0.0019
     39  CD1       -9.1280  -36.2790   17.0380 C.3   114  LEU114      0.0001
     40  CD2       -6.9530  -35.1410   17.5240 C.3   114  LEU114      0.0001
     41  N        -13.7050  -34.2920   16.0660 N.3   120  PHE120     -0.1227
     42  CA       -13.5500  -35.2880   15.0000 C.3   120  PHE120      0.1736
     43  C        -14.8820  -35.7350   14.3910 C.2   120  PHE120      0.2596
     44  O        -15.9510  -35.4090   14.9110 O.2   120  PHE120     -0.2718
     45  CB       -12.7720  -36.5070   15.5130 C.3   120  PHE120      0.0547
     46  CG       -13.4600  -37.2540   16.6160 C.ar  120  PHE120     -0.0202
     47  CD1      -13.2500  -36.9040   17.9420 C.ar  120  PHE120     -0.0042
     48  CD2      -14.3070  -38.3190   16.3320 C.ar  120  PHE120     -0.0042
     49  CE1      -13.8800  -37.5920   18.9660 C.ar  120  PHE120     -0.0003
     50  CE2      -14.9410  -39.0130   17.3530 C.ar  120  PHE120     -0.0003
     51  CZ       -14.7240  -38.6500   18.6710 C.ar  120  PHE120     -0.0000
     52  N        -14.8060  -36.4840   13.2920 N.am  121  GLY121     -0.1942
     53  CA       -15.9880  -36.8570   12.5390 C.3   121  GLY121      0.2014
     54  C        -16.3300  -35.8150   11.4870 C.2   121  GLY121      0.2639
     55  O        -17.4070  -35.8560   10.8930 O.2   121  GLY121     -0.2714
     56  N        -15.4060  -34.8860   11.2540 N.am  122  GLU122     -0.1963
     57  CA       -15.6320  -33.7670   10.3430 C.3   122  GLU122      0.1733
     58  C        -15.3960  -34.1360    8.8780 C.2   122  GLU122      0.2616
     59  O        -16.0380  -33.5810    7.9870 O.2   122  GLU122     -0.2715
     60  CB       -14.7350  -32.5780   10.7260 C.3   122  GLU122      0.0429
     61  CG       -13.2520  -32.7090   10.3420 C.3   122  GLU122      0.1163
     62  CD       -12.4630  -33.6490   11.2440 C.2   122  GLU122      0.3649
     63  OE1      -13.0760  -34.4000   12.0250 O.co2 122  GLU122     -0.2457
     64  OE2      -11.2180  -33.6430   11.1730 O.co2 122  GLU122     -0.2457
     65  N        -14.4900  -35.0820    8.6410 N.am  123  MET123     -0.1963
     66  CA       -14.0090  -35.3740    7.2910 C.3   123  MET123      0.1736
     67  C        -15.0340  -36.1100    6.4160 C.2   123  MET123      0.2616
     68  O        -14.9370  -36.0790    5.1920 O.2   123  MET123     -0.2715
     69  CB       -12.7070  -36.1840    7.3610 C.3   123  MET123      0.0427
     70  CG       -11.5200  -35.4200    7.9320 C.3   123  MET123      0.0599
     71  SD       -10.0060  -36.4020    8.0750 S.3   123  MET123     -0.1393
     72  CE        -9.6920  -36.8220    6.3550 C.3   123  MET123      0.0692
     73  N        -16.0170  -36.7570    7.0370 N.am  124  ALA124     -0.1977
     74  CA       -16.9950  -37.5510    6.2930 C.3   124  ALA124      0.1597
     75  C        -17.9240  -36.7000    5.4280 C.2   124  ALA124      0.2287
     76  O        -18.5170  -37.2010    4.4760 O.2   124  ALA124     -0.2864
     77  CB       -17.8210  -38.4040    7.2480 C.3   124  ALA124      0.0319
     78  N        -16.4120  -42.8510    6.5790 N.3   131  ARG131     -0.1231
     79  CA       -15.4040  -42.6550    7.6150 C.3   131  ARG131      0.1694
     80  C        -13.9940  -42.9670    7.1140 C.2   131  ARG131      0.2593
     81  O        -13.7560  -43.9980    6.4860 O.2   131  ARG131     -0.2718
     82  CB       -15.7410  -43.5040    8.8420 C.3   131  ARG131      0.0321
     83  CG       -17.0420  -43.0890    9.5180 C.3   131  ARG131      0.0489
     84  CD       -17.0330  -41.6040    9.8190 C.3   131  ARG131      0.2205
     85  NE       -18.1750  -41.1800   10.6250 N.pl3 131  ARG131     -0.0865
     86  CZ       -18.3890  -39.9230   11.0010 C.cat 131  ARG131      0.5346
     87  NH1      -17.5400  -38.9720   10.6440 N.pl3 131  ARG131      0.1354
     88  NH2      -19.4480  -39.6100   11.7330 N.pl3 131  ARG131      0.1354
     89  N        -13.0710  -42.0510    7.3860 N.am  132  THR132     -0.1939
     90  CA       -11.7210  -42.1300    6.8440 C.3   132  THR132      0.2028
     91  C        -10.7950  -42.9360    7.7500 C.2   132  THR132      0.2642
     92  O         -9.8220  -43.5400    7.2880 O.2   132  THR132     -0.2714
     93  CB       -11.1270  -40.7230    6.6410 C.3   132  THR132      0.1808
     94  OG1      -11.0830  -40.0330    7.8980 O.3   132  THR132     -0.2208
     95  CG2      -11.9800  -39.9260    5.6580 C.3   132  THR132      0.0379
     96  N        -11.1070  -42.9290    9.0440 N.am  133  ALA133     -0.1977
     97  CA       -10.3090  -43.6240   10.0460 C.3   133  ALA133      0.1597
     98  C        -11.1770  -44.0480   11.2270 C.2   133  ALA133      0.2287
     99  O        -12.3540  -43.6840   11.3090 O.2   133  ALA133     -0.2864
    100  CB        -9.1590  -42.7400   10.5180 C.3   133  ALA133      0.0319
    101  N        -11.9410  -44.2170   15.3800 N.3   135  VAL135     -0.1245
    102  CA       -11.7160  -43.4470   16.5990 C.3   135  VAL135      0.1561
    103  C        -12.1260  -44.2230   17.8500 C.2   135  VAL135      0.2260
    104  O        -13.3140  -44.4840   18.0600 O.2   135  VAL135     -0.2867
    105  CB       -12.4860  -42.1090   16.5620 C.3   135  VAL135      0.0252
    106  CG1      -12.2010  -41.2920   17.8120 C.3   135  VAL135      0.0019
    107  CG2      -12.1140  -41.3200   15.3210 C.3   135  VAL135      0.0019
    108  N         -5.3570  -33.6700    7.1500 N.3   168  ARG168     -0.1245
    109  CA        -5.3750  -34.9980    7.7420 C.3   168  ARG168      0.1563
    110  C         -5.3970  -36.0860    6.6780 C.2   168  ARG168      0.2260
    111  O         -4.7260  -37.1020    6.8240 O.2   168  ARG168     -0.2867
    112  CB        -6.5730  -35.1340    8.6800 C.3   168  ARG168      0.0307
    113  CG        -6.4300  -34.2810    9.9270 C.3   168  ARG168      0.0489
    114  CD        -7.7180  -34.1460   10.7170 C.3   168  ARG168      0.2205
    115  NE        -7.4380  -33.5320   12.0110 N.pl3 168  ARG168     -0.0865
    116  CZ        -8.3160  -33.4090   13.0000 C.cat 168  ARG168      0.5346
    117  NH1       -9.5580  -33.8500   12.8570 N.pl3 168  ARG168      0.1354
    118  NH2       -7.9460  -32.8390   14.1380 N.pl3 168  ARG168      0.1354
    119  N         -1.7720  -36.7120    5.3770 N.3   171  GLU171     -0.1231
    120  CA        -0.9920  -37.5930    6.2390 C.3   171  GLU171      0.1699
    121  C         -1.7310  -38.9130    6.4690 C.2   171  GLU171      0.2592
    122  O         -1.2810  -39.7570    7.2460 O.2   171  GLU171     -0.2718
    123  CB        -0.6830  -36.9090    7.5750 C.3   171  GLU171      0.0402
    124  CG        -1.8500  -36.1280    8.1610 C.3   171  GLU171      0.1161
    125  CD        -1.4890  -35.3900    9.4350 C.2   171  GLU171      0.3649
    126  OE1       -0.5120  -34.6130    9.4180 O.co2 171  GLU171     -0.2457
    127  OE2       -2.1820  -35.5790   10.4550 O.co2 171  GLU171     -0.2457
    128  N         -2.8680  -39.0780    5.7940 N.am  172  LEU172     -0.1980
    129  CA        -3.6430  -40.3120    5.8560 C.3   172  LEU172      0.1596
    130  C         -3.3300  -41.1510    4.6220 C.2   172  LEU172      0.2287
    131  O         -3.9020  -42.2210    4.4240 O.2   172  LEU172     -0.2864
    132  CB        -5.1430  -40.0100    5.9360 C.3   172  LEU172      0.0297
    133  CG        -6.1230  -41.0470    6.4870 C.3   172  LEU172      0.0022
    134  CD1       -5.9720  -41.1580    7.9920 C.3   172  LEU172      0.0001
    135  CD2       -7.5490  -40.6760    6.1210 C.3   172  LEU172      0.0001
@<TRIPOS>BOND
     1   131   130    2
     2    76    75    2
     3   130   129    1
     4    68    67    2
     5   119   120    1
     6    75    74    1
     7    95    93    1
     8   128   129    1
     9   128   121   am
    10   129   132    1
    11   132   133    1
    12   135   133    1
    13   120   121    1
    14   120   123    1
    15    74    73    1
    16    74    77    1
    17    72    71    1
    18    67    73   am
    19    67    66    1
    20   121   122    2
    21    81    80    2
    22   133   134    1
    23    78    79    1
    24    93    90    1
    25    93    94    1
    26   110   111    2
    27   110   109    1
    28    90    89    1
    29    90    91    1
    30    80    89   am
    31    80    79    1
    32   108   109    1
    33    92    91    2
    34    66    69    1
    35    66    65    1
    36    69    70    1
    37   123   124    1
    38    79    82    1
    39   109   112    1
    40    91    96   am
    41    70    71    1
    42    59    58    2
    43    27    26    1
    44   124   125    1
    45    65    58   am
    46   112   113    1
    47    82    83    1
    48    58    57    1
    49    96    97    1
    50    26    24   ar
    51    26    25   ar
    52    24    22   ar
    53   126   125   ar
    54   125   127   ar
    55    83    84    1
    56    84    85    1
    57   113   114    1
    58    97   100    1
    59    97    98    1
    60    25    23   ar
    61    22    21   ar
    62    61    60    1
    63    61    62    1
    64    57    60    1
    65    57    56    1
    66    85    86    2
    67    87    86    1
    68   114   115    1
    69    55    54    2
    70    86    88    1
    71    23    21   ar
    72    64    62   ar
    73    21    20    1
    74    98    99    2
    75    62    63   ar
    76    56    54   am
    77    54    53    1
    78   115   116    2
    79    20    17    1
    80    53    52    1
    81   117   116    1
    82     7     5    1
    83   116   118    1
    84    52    43   am
    85    17    16    1
    86    17    18    1
    87    14    13    1
    88    19    18    2
    89     8     6    1
    90     5     6    1
    91     5     2    1
    92    18    28   am
    93    43    44    2
    94    43    42    1
    95     3     4    2
    96     3     2    1
    97    12    11    2
    98    13    15    1
    99    13    10    1
   100    11    10    1
   101     2     1    1
   102    42    45    1
   103    42    41    1
   104   107   105    1
   105   101   102    1
   106    28    29    1
   107    45    46    1
   108    10     9    1
   109    32    29    1
   110    48    46   ar
   111    48    50   ar
   112    29    30    1
   113   105   102    1
   114   105   106    1
   115   102   103    1
   116    46    47   ar
   117    39    38    1
   118    50    51   ar
   119    40    38    1
   120    30    31    2
   121   103   104    2
   122    47    49   ar
   123    38    37    1
   124    51    49   ar
   125    37    34    1
   126    33    34    1
   127    34    35    1
   128    35    36    2
