@<TRIPOS>MOLECULE
tmp/4d7tA00.pdb
 135 128 0 0 0
SMALL
GASTEIGER

@<TRIPOS>ATOM
      1  N        -60.4790    0.7810  -22.1690 N.3   104  ILE104     -0.1245
      2  CA       -60.6800    0.5510  -23.5950 C.3   104  ILE104      0.1561
      3  C        -59.7150   -0.5310  -24.0870 C.2   104  ILE104      0.2260
      4  O        -58.5400   -0.5440  -23.7050 O.2   104  ILE104     -0.2867
      5  CB       -60.4650    1.8480  -24.4120 C.3   104  ILE104      0.0252
      6  CG1      -61.5340    2.8900  -24.0650 C.3   104  ILE104      0.0019
      7  CG2      -60.4670    1.5610  -25.8960 C.3   104  ILE104      0.0019
      8  CD1      -61.3890    4.1990  -24.8340 C.3   104  ILE104      0.0001
      9  N        -51.9460    4.7160  -22.3930 N.3   123  VAL123     -0.1245
     10  CA       -52.3720    4.4210  -23.7520 C.3   123  VAL123      0.1561
     11  C        -51.4080    3.3960  -24.3510 C.2   123  VAL123      0.2260
     12  O        -50.2280    3.6970  -24.5650 O.2   123  VAL123     -0.2867
     13  CB       -52.4280    5.6900  -24.6360 C.3   123  VAL123      0.0252
     14  CG1      -52.7520    5.3270  -26.0870 C.3   123  VAL123      0.0019
     15  CG2      -53.4630    6.6630  -24.0910 C.3   123  VAL123      0.0019
     16  N        -47.8820    4.6320  -25.8090 N.3   132  TYR132     -0.1227
     17  CA       -47.9350    5.8350  -26.6240 C.3   132  TYR132      0.1736
     18  C        -48.0170    7.1000  -25.7740 C.2   132  TYR132      0.2595
     19  O        -47.5570    8.1650  -26.1970 O.2   132  TYR132     -0.2718
     20  CB       -49.1190    5.7600  -27.5930 C.3   132  TYR132      0.0548
     21  CG       -48.9720    4.6570  -28.6220 C.ar  132  TYR132     -0.0200
     22  CD1      -48.1780    4.8330  -29.7460 C.ar  132  TYR132     -0.0009
     23  CD2      -49.6260    3.4430  -28.4750 C.ar  132  TYR132     -0.0009
     24  CE1      -48.0320    3.8300  -30.6890 C.ar  132  TYR132      0.0417
     25  CE2      -49.4860    2.4370  -29.4150 C.ar  132  TYR132      0.0417
     26  CZ       -48.6880    2.6370  -30.5190 C.ar  132  TYR132      0.1957
     27  OH       -48.5430    1.6440  -31.4590 O.3   132  TYR132     -0.2866
     28  N        -48.6020    6.9840  -24.5830 N.am  133  ALA133     -0.1980
     29  CA       -48.8120    8.1510  -23.7260 C.3   133  ALA133      0.1597
     30  C        -49.1610    7.8140  -22.2760 C.2   133  ALA133      0.2287
     31  O        -49.4720    6.6690  -21.9380 O.2   133  ALA133     -0.2864
     32  CB       -49.9120    9.0380  -24.3170 C.3   133  ALA133      0.0319
     33  N        -51.9120    9.7860  -19.8420 N.3   135  LEU135     -0.1245
     34  CA       -52.8770   10.8750  -19.7470 C.3   135  LEU135      0.1561
     35  C        -53.3700   11.0320  -18.3070 C.2   135  LEU135      0.2260
     36  O        -53.5540   10.0380  -17.5940 O.2   135  LEU135     -0.2867
     37  CB       -54.0520   10.6290  -20.6990 C.3   135  LEU135      0.0270
     38  CG       -53.6900   10.5030  -22.1840 C.3   135  LEU135      0.0019
     39  CD1      -54.9170   10.2140  -23.0480 C.3   135  LEU135      0.0001
     40  CD2      -52.9940   11.7650  -22.6520 C.3   135  LEU135      0.0001
     41  N        -59.7050   10.8050  -23.6510 N.3   141  PHE141     -0.1227
     42  CA       -59.3820    9.7600  -24.6160 C.3   141  PHE141      0.1736
     43  C        -60.6420    9.0180  -25.0590 C.2   141  PHE141      0.2596
     44  O        -61.7050    9.1760  -24.4490 O.2   141  PHE141     -0.2718
     45  CB       -58.3640    8.7820  -24.0260 C.3   141  PHE141      0.0547
     46  CG       -58.8410    8.0880  -22.7840 C.ar  141  PHE141     -0.0202
     47  CD1      -59.5300    6.8820  -22.8650 C.ar  141  PHE141     -0.0042
     48  CD2      -58.6060    8.6420  -21.5320 C.ar  141  PHE141     -0.0042
     49  CE1      -59.9810    6.2410  -21.7180 C.ar  141  PHE141     -0.0003
     50  CE2      -59.0530    8.0040  -20.3780 C.ar  141  PHE141     -0.0003
     51  CZ       -59.7400    6.8010  -20.4730 C.ar  141  PHE141     -0.0000
     52  N        -60.5190    8.2020  -26.1050 N.am  142  GLY142     -0.1942
     53  CA       -61.6710    7.5300  -26.6720 C.3   142  GLY142      0.2014
     54  C        -62.3850    8.4070  -27.6860 C.2   142  GLY142      0.2639
     55  O        -63.4920    8.0910  -28.1170 O.2   142  GLY142     -0.2714
     56  N        -61.7460    9.5100  -28.0650 N.am  143  GLU143     -0.1963
     57  CA       -62.3290   10.4730  -28.9920 C.3   143  GLU143      0.1733
     58  C        -62.0980   10.0960  -30.4600 C.2   143  GLU143      0.2616
     59  O        -62.8390   10.5330  -31.3390 O.2   143  GLU143     -0.2715
     60  CB       -61.7560   11.8670  -28.7210 C.3   143  GLU143      0.0429
     61  CG       -60.3750   12.1240  -29.3320 C.3   143  GLU143      0.1163
     62  CD       -59.2680   11.2800  -28.7240 C.2   143  GLU143      0.3649
     63  OE1      -59.4780   10.6630  -27.6610 O.co2 143  GLU143     -0.2457
     64  OE2      -58.1650   11.2340  -29.3020 O.co2 143  GLU143     -0.2457
     65  N        -61.0720    9.2860  -30.7140 N.am  144  MET144     -0.1963
     66  CA       -60.6480    8.9790  -32.0810 C.3   144  MET144      0.1736
     67  C        -61.5860    8.0120  -32.8150 C.2   144  MET144      0.2616
     68  O        -61.7110    8.0830  -34.0360 O.2   144  MET144     -0.2715
     69  CB       -59.2190    8.4210  -32.0730 C.3   144  MET144      0.0427
     70  CG       -58.1390    9.4800  -31.9140 C.3   144  MET144      0.0599
     71  SD       -56.4860    8.8440  -31.5410 S.3   144  MET144     -0.1393
     72  CE       -56.2170    7.7090  -32.9040 C.3   144  MET144      0.0692
     73  N        -62.2520    7.1260  -32.0790 N.am  145  ALA145     -0.1977
     74  CA       -63.1340    6.1300  -32.6880 C.3   145  ALA145      0.1597
     75  C        -64.2890    6.7480  -33.4730 C.2   145  ALA145      0.2287
     76  O        -64.8190    6.1210  -34.3890 O.2   145  ALA145     -0.2864
     77  CB       -63.6830    5.1880  -31.6290 C.3   145  ALA145      0.0319
     78  N        -61.6210    1.2510  -31.9340 N.3   152  ARG152     -0.1231
     79  CA       -60.6490    1.7680  -30.9800 C.3   152  ARG152      0.1694
     80  C        -59.2270    1.5050  -31.4620 C.2   152  ARG152      0.2593
     81  O        -58.8490    0.3580  -31.7170 O.2   152  ARG152     -0.2718
     82  CB       -60.8610    1.1520  -29.5950 C.3   152  ARG152      0.0321
     83  CG       -62.2390    1.3990  -28.9860 C.3   152  ARG152      0.0489
     84  CD       -62.4820    2.8720  -28.7210 C.3   152  ARG152      0.2205
     85  NE       -63.5080    3.0890  -27.7040 N.pl3 152  ARG152     -0.0865
     86  CZ       -64.0100    4.2800  -27.3890 C.cat 152  ARG152      0.5346
     87  NH1      -63.5990    5.3680  -28.0230 N.pl3 152  ARG152      0.1354
     88  NH2      -64.9330    4.3850  -26.4460 N.pl3 152  ARG152      0.1354
     89  N        -58.4490    2.5770  -31.5900 N.am  153  THR153     -0.1939
     90  CA       -57.1130    2.5060  -32.1770 C.3   153  THR153      0.2028
     91  C        -56.0450    2.0110  -31.2020 C.2   153  THR153      0.2642
     92  O        -54.9360    1.6540  -31.6150 O.2   153  THR153     -0.2714
     93  CB       -56.6730    3.8860  -32.7120 C.3   153  THR153      0.1808
     94  OG1      -56.6260    4.8320  -31.6330 O.3   153  THR153     -0.2208
     95  CG2      -57.6510    4.3750  -33.7760 C.3   153  THR153      0.0379
     96  N        -56.3800    1.9960  -29.9140 N.am  154  ALA154     -0.1977
     97  CA       -55.4170    1.6390  -28.8770 C.3   154  ALA154      0.1597
     98  C        -56.0920    1.1650  -27.5900 C.2   154  ALA154      0.2287
     99  O        -57.2810    1.4150  -27.3610 O.2   154  ALA154     -0.2864
    100  CB       -54.4970    2.8280  -28.5820 C.3   154  ALA154      0.0319
    101  N        -56.4810    1.3280  -23.5070 N.3   156  VAL156     -0.1245
    102  CA       -56.2870    2.2630  -22.4020 C.3   156  VAL156      0.1561
    103  C        -56.4870    1.5880  -21.0460 C.2   156  VAL156      0.2260
    104  O        -57.5870    1.1150  -20.7370 O.2   156  VAL156     -0.2867
    105  CB       -57.2440    3.4740  -22.4890 C.3   156  VAL156      0.0252
    106  CG1      -56.8820    4.5150  -21.4350 C.3   156  VAL156      0.0019
    107  CG2      -57.1830    4.0960  -23.8670 C.3   156  VAL156      0.0019
    108  N        -52.3410   12.2060  -33.0130 N.3   192  ARG192     -0.1245
    109  CA       -52.2640   10.9240  -32.3350 C.3   192  ARG192      0.1563
    110  C        -52.2810    9.7900  -33.3480 C.2   192  ARG192      0.2260
    111  O        -51.5780    8.7970  -33.1830 O.2   192  ARG192     -0.2867
    112  CB       -53.4180   10.7700  -31.3500 C.3   192  ARG192      0.0307
    113  CG       -53.3260   11.6770  -30.1390 C.3   192  ARG192      0.0489
    114  CD       -54.5670   11.5480  -29.2870 C.3   192  ARG192      0.2205
    115  NE       -54.4190   12.2120  -27.9970 N.pl3 192  ARG192     -0.0865
    116  CZ       -55.3500   12.2070  -27.0500 C.cat 192  ARG192      0.5346
    117  NH1      -56.4950   11.5740  -27.2500 N.pl3 192  ARG192      0.1354
    118  NH2      -55.1370   12.8340  -25.9030 N.pl3 192  ARG192      0.1354
    119  N        -48.6930    9.7910  -34.8130 N.3   195  GLU195     -0.1231
    120  CA       -47.6870    9.2120  -33.9270 C.3   195  GLU195      0.1699
    121  C        -48.0790    7.7940  -33.4870 C.2   195  GLU195      0.2592
    122  O        -47.7210    7.3510  -32.3940 O.2   195  GLU195     -0.2718
    123  CB       -47.4700   10.1160  -32.6980 C.3   195  GLU195      0.0402
    124  CG       -48.6530   10.1730  -31.7170 C.3   195  GLU195      0.1161
    125  CD       -48.4240   11.1310  -30.5550 C.2   195  GLU195      0.3649
    126  OE1      -47.2890   11.6300  -30.3930 O.co2 195  GLU195     -0.2457
    127  OE2      -49.3760   11.3600  -29.7790 O.co2 195  GLU195     -0.2457
    128  N        -48.7900    7.0790  -34.3550 N.am  196  LEU196     -0.1980
    129  CA       -49.3360    5.7720  -34.0160 C.3   196  LEU196      0.1596
    130  C        -48.9730    4.7410  -35.0780 C.2   196  LEU196      0.2287
    131  O        -49.1360    3.5410  -34.8660 O.2   196  LEU196     -0.2864
    132  CB       -50.8550    5.8660  -33.8630 C.3   196  LEU196      0.0297
    133  CG       -51.5980    4.9110  -32.9310 C.3   196  LEU196      0.0022
    134  CD1      -51.2580    5.2480  -31.4940 C.3   196  LEU196      0.0001
    135  CD2      -53.1030    5.0160  -33.1470 C.3   196  LEU196      0.0001
@<TRIPOS>BOND
     1   130   131    2
     2   130   129    1
     3   119   120    1
     4    76    75    2
     5   128   129    1
     6   128   121   am
     7    68    67    2
     8   129   132    1
     9   120   121    1
    10   120   123    1
    11   132   133    1
    12    95    93    1
    13   121   122    2
    14    75    74    1
    15   110   111    2
    16   110   109    1
    17   135   133    1
    18   108   109    1
    19   133   134    1
    20    72    71    1
    21    67    66    1
    22    67    73   am
    23    93    90    1
    24    93    94    1
    25   123   124    1
    26    74    73    1
    27    74    77    1
    28   109   112    1
    29    90    89    1
    30    90    91    1
    31    66    69    1
    32    66    65    1
    33    69    70    1
    34    78    79    1
    35    70    71    1
    36    81    80    2
    37   124   125    1
    38    92    91    2
    39    89    80   am
    40    80    79    1
    41    27    26    1
    42   112   113    1
    43    59    58    2
    44    91    96   am
    45    79    82    1
    46    65    58   am
    47    24    26   ar
    48    24    22   ar
    49   125   126   ar
    50   125   127   ar
    51    26    25   ar
    52    58    57    1
    53   113   114    1
    54    96    97    1
    55    22    21   ar
    56    82    83    1
    57    25    23   ar
    58    61    62    1
    59    61    60    1
    60    64    62   ar
    61   114   115    1
    62    57    60    1
    63    57    56    1
    64    83    84    1
    65    97   100    1
    66    97    98    1
    67    62    63   ar
    68    84    85    1
    69    21    23   ar
    70    21    20    1
    71    55    54    2
    72    56    54   am
    73    87    86    1
    74   115   116    2
    75    85    86    2
    76    54    53    1
    77    20    17    1
    78    98    99    2
    79    86    88    1
    80   117   116    1
    81   116   118    1
    82    53    52    1
    83    17    16    1
    84    17    18    1
    85    19    18    2
    86    52    43   am
    87    14    13    1
    88     7     5    1
    89    18    28   am
    90    43    42    1
    91    43    44    2
    92     8     6    1
    93    13    15    1
    94    13    10    1
    95    42    45    1
    96    42    41    1
    97    28    29    1
    98    12    11    2
    99     5     6    1
   100     5     2    1
   101    11    10    1
   102    32    29    1
   103     3     4    2
   104     3     2    1
   105    45    46    1
   106   107   105    1
   107    10     9    1
   108    29    30    1
   109     2     1    1
   110   101   102    1
   111    39    38    1
   112    47    46   ar
   113    47    49   ar
   114    46    48   ar
   115    40    38    1
   116   105   102    1
   117   105   106    1
   118   102   103    1
   119    30    31    2
   120    38    37    1
   121    49    51   ar
   122    48    50   ar
   123   103   104    2
   124    37    34    1
   125    51    50   ar
   126    33    34    1
   127    34    35    1
   128    35    36    2
