@<TRIPOS>MOLECULE
tmp/4d82B00.pdb
 153 147 0 0 0
SMALL
GASTEIGER

@<TRIPOS>ATOM
      1  N         -1.6900  218.7540  -19.1930 N.3    14  GLU14      -0.1231
      2  CA        -3.0300  218.1820  -19.3580 C.3    14  GLU14       0.1699
      3  C         -3.4240  217.2090  -18.2350 C.2    14  GLU14       0.2592
      4  O         -4.5700  216.7850  -18.1570 O.2    14  GLU14      -0.2718
      5  CB        -3.1280  217.4860  -20.7180 C.3    14  GLU14       0.0402
      6  CG        -3.1090  218.4830  -21.8640 C.3    14  GLU14       0.1161
      7  CD        -2.7050  217.8740  -23.2020 C.2    14  GLU14       0.3649
      8  OE1       -2.4260  216.6610  -23.2300 O.co2  14  GLU14      -0.2457
      9  OE2       -2.6200  218.6090  -24.2240 O.co2  14  GLU14      -0.2457
     10  N         -2.4840  216.8420  -17.3750 N.am   15  ILE15      -0.1966
     11  CA        -2.7700  215.8480  -16.3440 C.3    15  ILE15       0.1727
     12  C         -3.1440  216.5550  -15.0570 C.2    15  ILE15       0.2616
     13  O         -2.3450  217.3190  -14.5210 O.2    15  ILE15      -0.2715
     14  CB        -1.5540  214.9250  -16.1000 C.3    15  ILE15       0.0290
     15  CG1       -1.3800  213.9720  -17.2830 C.3    15  ILE15       0.0022
     16  CG2       -1.7340  214.1320  -14.8150 C.3    15  ILE15       0.0023
     17  CD1       -0.0170  213.3300  -17.3540 C.3    15  ILE15       0.0001
     18  N         -4.3290  216.2620  -14.5420 N.am   16  VAL16      -0.1977
     19  CA        -4.8660  217.0580  -13.4610 C.3    16  VAL16       0.1596
     20  C         -4.0180  217.0630  -12.2030 C.2    16  VAL16       0.2287
     21  O         -3.6400  218.1220  -11.7380 O.2    16  VAL16      -0.2864
     22  CB        -6.3280  216.7270  -13.0910 C.3    16  VAL16       0.0276
     23  CG1       -6.4480  215.6520  -12.0040 C.3    16  VAL16       0.0022
     24  CG2       -6.9960  217.9870  -12.5940 C.3    16  VAL16       0.0022
     25  N         -1.2090  214.8300   -9.5090 N.3    18  LEU18      -0.1245
     26  CA         0.0020  214.0650   -9.6960 C.3    18  LEU18       0.1561
     27  C          1.2050  214.9790   -9.8120 C.2    18  LEU18       0.2260
     28  O          2.1860  214.6530  -10.4490 O.2    18  LEU18      -0.2867
     29  CB        -0.1900  213.1490  -10.9140 C.3    18  LEU18       0.0270
     30  CG        -1.5430  212.4000  -10.8810 C.3    18  LEU18       0.0019
     31  CD1       -1.8600  211.6530  -12.1620 C.3    18  LEU18       0.0001
     32  CD2       -1.5790  211.4380   -9.7050 C.3    18  LEU18       0.0001
     33  N         -7.2180  201.5930  -11.3420 N.3    53  PRO53      -0.2102
     34  CA        -7.3230  201.8760  -12.7760 C.3    53  PRO53       0.1504
     35  C         -7.8800  203.2210  -13.1260 C.2    53  PRO53       0.2576
     36  O         -8.7180  203.7580  -12.4000 O.2    53  PRO53      -0.2718
     37  CB        -8.2980  200.8050  -13.2940 C.3    53  PRO53       0.0282
     38  CG        -8.3810  199.7840  -12.2150 C.3    53  PRO53       0.0208
     39  CD        -8.1370  200.5260  -10.9340 C.3    53  PRO53       0.0893
     40  N         -7.4420  203.7240  -14.2710 N.am   54  GLY54      -0.1943
     41  CA        -7.8950  204.9970  -14.7910 C.3    54  GLY54       0.2014
     42  C         -7.5270  206.2020  -13.9470 C.2    54  GLY54       0.2639
     43  O         -8.3050  207.1340  -13.8460 O.2    54  GLY54      -0.2714
     44  N         -6.3640  206.1910  -13.3170 N.am   55  CYS55      -0.1953
     45  CA        -5.9530  207.3360  -12.5230 C.3    55  CYS55       0.1843
     46  C         -4.7660  208.0720  -13.1100 C.2    55  CYS55       0.2626
     47  O         -4.3500  209.0800  -12.5570 O.2    55  CYS55      -0.2714
     48  CB        -5.6940  206.9190  -11.0900 C.3    55  CYS55       0.0997
     49  SG        -7.2390  206.6370  -10.2040 S.3    55  CYS55      -0.0797
     50  N         -4.2490  207.5950  -14.2450 N.am   56  GLY56      -0.1940
     51  CA        -3.2490  208.3490  -15.0270 C.3    56  GLY56       0.2014
     52  C         -1.8620  207.7260  -15.1900 C.2    56  GLY56       0.2639
     53  O         -0.9080  208.4250  -15.5780 O.2    56  GLY56      -0.2714
     54  N         -1.7310  206.4370  -14.8810 N.am   57  LYS57      -0.1963
     55  CA        -0.4940  205.7370  -15.1130 C.3    57  LYS57       0.1728
     56  C         -0.1020  205.8080  -16.5890 C.2    57  LYS57       0.2617
     57  O          1.0370  206.1120  -16.8980 O.2    57  LYS57      -0.2715
     58  CB        -0.6210  204.2820  -14.6800 C.3    57  LYS57       0.0311
     59  CG        -0.7460  204.0680  -13.1780 C.3    57  LYS57       0.0038
     60  CD        -0.7750  202.5800  -12.7940 C.3    57  LYS57       0.0206
     61  CE        -2.1500  201.9610  -12.9640 C.3    57  LYS57       0.1093
     62  NZ        -3.0890  202.5920  -11.9890 N.3    57  LYS57      -0.1314
     63  N         -1.0180  205.5180  -17.5050 N.am   58  THR58      -0.1937
     64  CA        -0.6920  205.6120  -18.9390 C.3    58  THR58       0.2028
     65  C         -0.3550  207.0540  -19.3550 C.2    58  THR58       0.2642
     66  O          0.6610  207.2930  -20.0340 O.2    58  THR58      -0.2714
     67  CB        -1.8350  205.0680  -19.8350 C.3    58  THR58       0.1808
     68  OG1       -2.1600  203.7300  -19.4530 O.3    58  THR58      -0.2208
     69  CG2       -1.4340  205.0510  -21.2960 C.3    58  THR58       0.0379
     70  N         -1.2150  207.9990  -18.9480 N.am   59  MET59      -0.1976
     71  CA        -1.0550  209.4260  -19.2870 C.3    59  MET59       0.1605
     72  C          0.2770  209.9580  -18.8320 C.2    59  MET59       0.2287
     73  O          1.0070  210.5500  -19.6170 O.2    59  MET59      -0.2864
     74  CB        -2.1010  210.2840  -18.6060 C.3    59  MET59       0.0413
     75  CG        -3.4250  210.3290  -19.3170 C.3    59  MET59       0.0598
     76  SD        -4.4980  211.5640  -18.5610 S.3    59  MET59      -0.1393
     77  CE        -3.9370  213.0330  -19.4180 C.3    59  MET59       0.0692
     78  N          6.6980  201.5410  -22.2810 N.3   113  PHE113     -0.1241
     79  CA         5.6580  201.4860  -21.2920 C.3   113  PHE113      0.1605
     80  C          5.0570  200.1050  -21.3730 C.2   113  PHE113      0.2264
     81  O          4.5850  199.6930  -22.4250 O.2   113  PHE113     -0.2867
     82  CB         4.5900  202.5260  -21.5750 C.3   113  PHE113      0.0534
     83  CG         3.5490  202.6220  -20.5160 C.ar  113  PHE113     -0.0203
     84  CD1        3.8940  202.9890  -19.2240 C.ar  113  PHE113     -0.0042
     85  CD2        2.2220  202.3700  -20.8010 C.ar  113  PHE113     -0.0042
     86  CE1        2.9300  203.1010  -18.2200 C.ar  113  PHE113     -0.0003
     87  CE2        1.2540  202.4780  -19.8050 C.ar  113  PHE113     -0.0003
     88  CZ         1.6090  202.8440  -18.5120 C.ar  113  PHE113     -0.0000
     89  N          3.5070  199.2450  -15.4920 N.3   154  ALA154     -0.1245
     90  CA         2.2740  199.6210  -14.8260 C.3   154  ALA154      0.1562
     91  C          1.3770  198.4240  -14.5090 C.2   154  ALA154      0.2260
     92  O          1.2940  197.4380  -15.2610 O.2   154  ALA154     -0.2867
     93  CB         1.5200  200.6290  -15.6670 C.3   154  ALA154      0.0290
     94  N         -2.3210  197.3560  -11.8870 N.3   156  ASN156     -0.1240
     95  CA        -3.3520  197.6610  -10.8750 C.3   156  ASN156      0.1653
     96  C         -3.3240  196.6260   -9.7600 C.2   156  ASN156      0.2266
     97  O         -4.1690  196.6660   -8.8470 O.2   156  ASN156     -0.2867
     98  CB        -4.7890  197.7070  -11.4330 C.3   156  ASN156      0.1155
     99  CG        -4.8860  198.3460  -12.8020 C.2   156  ASN156      0.2627
    100  OD1       -5.2670  197.6830  -13.7760 O.2   156  ASN156     -0.2716
    101  ND2       -4.5450  199.6280  -12.8900 N.am  156  ASN156     -0.0877
    102  N        -10.9600  217.9780  -12.2840 N.3   186  LEU186     -0.1245
    103  CA       -11.4120  216.9890  -13.2500 C.3   186  LEU186      0.1561
    104  C        -12.8030  217.3240  -13.7670 C.2   186  LEU186      0.2260
    105  O        -13.0310  217.3630  -14.9920 O.2   186  LEU186     -0.2867
    106  CB       -11.3610  215.5820  -12.6450 C.3   186  LEU186      0.0270
    107  CG        -9.9140  215.0650  -12.5410 C.3   186  LEU186      0.0019
    108  CD1       -9.7380  213.9000  -11.5780 C.3   186  LEU186      0.0001
    109  CD2       -9.4110  214.6710  -13.9170 C.3   186  LEU186      0.0001
    110  N        -12.8720  220.2860  -15.8390 N.3   189  HIS189     -0.1226
    111  CA       -12.2780  219.9480  -17.1290 C.3   189  HIS189      0.1752
    112  C        -13.2090  219.1950  -18.0650 C.2   189  HIS189      0.2596
    113  O        -13.4180  219.6080  -19.2110 O.2   189  HIS189     -0.2718
    114  CB       -10.9910  219.1510  -16.9640 C.3   189  HIS189      0.0759
    115  CG       -10.3780  218.7400  -18.2700 C.ar  189  HIS189      0.0818
    116  ND1       -9.7770  219.6370  -19.1320 N.ar  189  HIS189     -0.2268
    117  CD2      -10.2750  217.5260  -18.8650 C.ar  189  HIS189      0.1154
    118  CE1       -9.3220  218.9930  -20.1930 C.ar  189  HIS189      0.1986
    119  NE2       -9.6110  217.7100  -20.0560 N.ar  189  HIS189     -0.2212
    120  N        -13.7520  218.0830  -17.5990 N.am  190  TYR190     -0.1976
    121  CA       -14.6910  217.3250  -18.4320 C.3   190  TYR190      0.1639
    122  C        -15.9840  218.0960  -18.6920 C.2   190  TYR190      0.2290
    123  O        -16.4120  218.2380  -19.8480 O.2   190  TYR190     -0.2864
    124  CB       -14.9890  215.9680  -17.8140 C.3   190  TYR190      0.0560
    125  CG       -13.7520  215.1150  -17.7200 C.ar  190  TYR190     -0.0198
    126  CD1      -13.0050  214.8240  -18.8670 C.ar  190  TYR190     -0.0009
    127  CD2      -13.3050  214.6230  -16.5100 C.ar  190  TYR190     -0.0009
    128  CE1      -11.8480  214.0670  -18.8120 C.ar  190  TYR190      0.0417
    129  CE2      -12.1590  213.8500  -16.4400 C.ar  190  TYR190      0.0417
    130  CZ       -11.4250  213.5710  -17.5940 C.ar  190  TYR190      0.1957
    131  OH       -10.2690  212.7980  -17.5410 O.3   190  TYR190     -0.2866
    132  N        -10.4810  209.1590  -11.9170 N.3   214  ALA214     -0.1231
    133  CA       -10.5510  210.1790  -12.9180 C.3   214  ALA214      0.1694
    134  C        -11.3640  209.7240  -14.1410 C.2   214  ALA214      0.2592
    135  O        -12.1570  210.4930  -14.6780 O.2   214  ALA214     -0.2718
    136  CB        -9.1490  210.6000  -13.3130 C.3   214  ALA214      0.0304
    137  N        -11.1990  208.4780  -14.5720 N.am  215  SER215     -0.1952
    138  CA       -11.9850  207.9940  -15.7230 C.3   215  SER215      0.1924
    139  C        -13.4700  207.8840  -15.3380 C.2   215  SER215      0.2314
    140  O        -14.3690  208.2590  -16.1160 O.2   215  SER215     -0.2863
    141  CB       -11.4310  206.6850  -16.3140 C.3   215  SER215      0.2116
    142  OG       -11.2200  205.6970  -15.3270 O.3   215  SER215     -0.2180
    143  N        -15.0160  211.3380  -15.6730 N.3   218  ARG218     -0.1245
    144  CA       -15.2980  211.5350  -17.0930 C.3   218  ARG218      0.1563
    145  C        -16.5750  210.8080  -17.5000 C.2   218  ARG218      0.2260
    146  O        -17.4540  211.3710  -18.1820 O.2   218  ARG218     -0.2867
    147  CB       -14.1200  211.0250  -17.9400 C.3   218  ARG218      0.0307
    148  CG       -14.3610  211.0100  -19.4430 C.3   218  ARG218      0.0489
    149  CD       -13.0440  210.9370  -20.2250 C.3   218  ARG218      0.2205
    150  NE       -13.2350  211.3040  -21.6430 N.pl3 218  ARG218     -0.0865
    151  CZ       -12.3830  212.0080  -22.4000 C.cat 218  ARG218      0.5346
    152  NH1      -11.2170  212.4610  -21.9240 N.pl3 218  ARG218      0.1354
    153  NH2      -12.7070  212.2720  -23.6610 N.pl3 218  ARG218      0.1354
@<TRIPOS>BOND
     1     9     7   ar
     2   153   151    1
     3     8     7   ar
     4     7     6    1
     5    81    80    2
     6   151   152    1
     7   151   150    2
     8    78    79    1
     9     6     5    1
    10   150   149    1
    11    82    79    1
    12    82    83    1
    13    80    79    1
    14    69    67    1
    15    85    83   ar
    16    85    87   ar
    17     5     2    1
    18    83    84   ar
    19   149   148    1
    20   118   119   ar
    21   118   116   ar
    22   119   117   ar
    23    66    65    2
    24   123   122    2
    25    67    68    1
    26    67    64    1
    27    87    88   ar
    28    73    72    2
    29   148   147    1
    30    77    76    1
    31     2     1    1
    32     2     3    1
    33    65    70   am
    34    65    64    1
    35    75    74    1
    36    75    76    1
    37    71    70    1
    38    71    72    1
    39    71    74    1
    40    84    86   ar
    41   113   112    2
    42   116   115   ar
    43    64    63    1
    44   126   128   ar
    45   126   125   ar
    46   117   115   ar
    47   128   130   ar
    48   122   121    1
    49    88    86   ar
    50   121   124    1
    51   121   120    1
    52   115   114    1
    53     3     4    2
    54     3    10   am
    55   146   145    2
    56   112   120   am
    57   112   111    1
    58   147   144    1
    59   124   125    1
    60   125   127   ar
    61   130   131    1
    62   130   129   ar
    63    63    56   am
    64   145   144    1
    65    10    11    1
    66    17    15    1
    67    15    14    1
    68   111   114    1
    69   111   110    1
    70   144   143    1
    71    57    56    2
    72    56    55    1
    73   127   129   ar
    74    11    14    1
    75    11    12    1
    76   141   138    1
    77   141   142    1
    78   140   139    2
    79    14    16    1
    80   138   139    1
    81   138   137    1
    82    93    90    1
    83    53    52    2
    84    89    90    1
    85    92    91    2
    86    52    51    1
    87    52    54   am
    88    55    54    1
    89    55    58    1
    90    12    18   am
    91    12    13    2
    92    51    50    1
    93   105   104    2
    94    90    91    1
    95    41    40    1
    96    41    42    1
    97    58    59    1
    98   135   134    2
    99   137   134   am
   100    18    19    1
   101    40    35   am
   102    50    46   am
   103   134   133    1
   104    42    43    2
   105    42    44   am
   106   109   107    1
   107   100    99    2
   108   104   103    1
   109    19    22    1
   110    19    20    1
   111    44    45    1
   112   136   133    1
   113    37    34    1
   114    37    38    1
   115   103   106    1
   116   103   102    1
   117    59    60    1
   118    35    34    1
   119    35    36    2
   120    46    47    2
   121    46    45    1
   122    22    24    1
   123    22    23    1
   124    61    60    1
   125    61    62    1
   126   133   132    1
   127   101    99   am
   128    99    98    1
   129    34    33    1
   130   106   107    1
   131   107   108    1
   132    45    48    1
   133    38    39    1
   134    20    21    2
   135    31    30    1
   136    94    95    1
   137    98    95    1
   138    33    39    1
   139    48    49    1
   140    29    30    1
   141    29    26    1
   142    30    32    1
   143    95    96    1
   144    28    27    2
   145    27    26    1
   146    96    97    2
   147    26    25    1
