@<TRIPOS>MOLECULE
tmp/4d83A00.pdb
 193 181 0 0 0
SMALL
GASTEIGER

@<TRIPOS>ATOM
      1  N         38.9740   10.9390   20.2890 N.3    33  LEU33      -0.1245
      2  CA        38.0860    9.8000   20.4980 C.3    33  LEU33       0.1561
      3  C         38.7270    8.5130   19.9920 C.2    33  LEU33       0.2260
      4  O         39.2370    8.4630   18.8640 O.2    33  LEU33      -0.2867
      5  CB        36.7600   10.0260   19.7710 C.3    33  LEU33       0.0270
      6  CG        35.7550    8.8620   19.7870 C.3    33  LEU33       0.0019
      7  CD1       35.1450    8.7270   21.1720 C.3    33  LEU33       0.0001
      8  CD2       34.6580    9.1130   18.7450 C.3    33  LEU33       0.0001
      9  N         38.4680    5.0140   18.5240 N.3    35  ASP35      -0.1239
     10  CA        37.4290    4.3550   17.7250 C.3    35  ASP35       0.1674
     11  C         37.9170    3.1470   16.9330 C.2    35  ASP35       0.2266
     12  O         38.5490    3.3020   15.8830 O.2    35  ASP35      -0.2867
     13  CB        36.7950    5.3540   16.7560 C.3    35  ASP35       0.1410
     14  CG        35.7020    4.7280   15.9240 C.2    35  ASP35       0.3668
     15  OD1       35.0550    3.7810   16.4230 O.co2  35  ASP35      -0.2456
     16  OD2       35.4930    5.1710   14.7740 O.co2  35  ASP35      -0.2456
     17  N         36.0520    1.3190   15.3680 N.3    37  GLY37      -0.1210
     18  CA        35.0700    1.1180   14.3120 C.3    37  GLY37       0.1956
     19  C         35.3650    1.8360   12.9970 C.2    37  GLY37       0.2613
     20  O         34.5380    1.8340   12.0830 O.2    37  GLY37      -0.2717
     21  N         36.5350    2.4580   12.8970 N.am   38  SER38      -0.1938
     22  CA        36.9180    3.1900   11.6930 C.3    38  SER38       0.2055
     23  C         38.4380    3.2560   11.6210 C.2    38  SER38       0.2644
     24  O         39.1200    2.7580   12.5100 O.2    38  SER38      -0.2714
     25  CB        36.3330    4.6080   11.7140 C.3    38  SER38       0.2130
     26  OG        36.9890    5.4360   12.6690 O.3    38  SER38      -0.2179
     27  N         38.9660    3.8690   10.5660 N.am   39  SER39      -0.1935
     28  CA        40.3980    3.8000   10.2850 C.3    39  SER39       0.2055
     29  C         41.0220    5.1280    9.8830 C.2    39  SER39       0.2643
     30  O         42.1470    5.1580    9.3960 O.2    39  SER39      -0.2714
     31  CB        40.6710    2.7770    9.1810 C.3    39  SER39       0.2130
     32  OG        40.1440    1.5120    9.5330 O.3    39  SER39      -0.2179
     33  N         40.2980    6.2210   10.0700 N.am   40  ASN40      -0.1971
     34  CA        40.8460    7.5330    9.7550 C.3    40  ASN40       0.1688
     35  C         41.1840    8.3060   11.0200 C.2    40  ASN40       0.2292
     36  O         40.3730    8.4020   11.9500 O.2    40  ASN40      -0.2864
     37  CB        39.8540    8.3430    8.9040 C.3    40  ASN40       0.1181
     38  CG        39.8940    7.9580    7.4250 C.2    40  ASN40       0.2629
     39  OD1       39.1980    7.0360    6.9840 O.2    40  ASN40      -0.2716
     40  ND2       40.7120    8.6690    6.6530 N.am   40  ASN40      -0.0877
     41  N         34.3790   11.4210    5.3980 N.3    72  VAL72      -0.1231
     42  CA        33.9660   10.1700    6.0100 C.3    72  VAL72       0.1678
     43  C         32.5330   10.2680    6.5120 C.2    72  VAL72       0.2434
     44  O         32.2090   11.1160    7.3470 O.2    72  VAL72      -0.2733
     45  CB        34.9040    9.7950    7.1900 C.3    72  VAL72       0.0265
     46  CG1       34.3900    8.5460    7.8870 C.3    72  VAL72       0.0020
     47  CG2       36.3270    9.5540    6.6730 C.3    72  VAL72       0.0020
     48  N         31.6460    9.4150    5.9790 N.am   73  PRO73      -0.2718
     49  CA        30.2720    9.2830    6.4630 C.3    73  PRO73       0.1535
     50  C         30.1800    8.1510    7.4770 C.2    73  PRO73       0.2599
     51  O         30.3210    6.9820    7.1150 O.2    73  PRO73      -0.2715
     52  CB        29.4860    8.9720    5.1980 C.3    73  PRO73       0.0310
     53  CG        30.4640    8.1640    4.3710 C.3    73  PRO73       0.0237
     54  CD        31.8750    8.5810    4.7870 C.3    73  PRO73       0.0939
     55  N         29.9480    8.4940    8.7380 N.am   74  TYR74      -0.1960
     56  CA        29.7000    7.4800    9.7530 C.3    74  TYR74       0.1771
     57  C         28.2050    7.1690    9.7280 C.2    74  TYR74       0.2620
     58  O         27.4350    7.8680    9.0750 O.2    74  TYR74      -0.2715
     59  CB        30.1270    7.9980   11.1380 C.3    74  TYR74       0.0574
     60  CG        31.5880    8.4040   11.2130 C.ar   74  TYR74      -0.0198
     61  CD1       32.5810    7.4710   11.4980 C.ar   74  TYR74      -0.0009
     62  CD2       31.9760    9.7180   10.9840 C.ar   74  TYR74      -0.0009
     63  CE1       33.9200    7.8410   11.5520 C.ar   74  TYR74       0.0417
     64  CE2       33.3040   10.0930   11.0340 C.ar   74  TYR74       0.0417
     65  CZ        34.2740    9.1560   11.3200 C.ar   74  TYR74       0.1957
     66  OH        35.5990    9.5440   11.3840 O.3    74  TYR74      -0.2866
     67  N         27.7890    6.1210   10.4260 N.am   75  THR75      -0.1937
     68  CA        26.3680    5.8550   10.5660 C.3    75  THR75       0.2028
     69  C         25.6480    7.1070   11.0510 C.2    75  THR75       0.2642
     70  O         24.5720    7.4400   10.5660 O.2    75  THR75      -0.2714
     71  CB        26.1040    4.7160   11.5540 C.3    75  THR75       0.1808
     72  OG1       26.6700    3.5040   11.0420 O.3    75  THR75      -0.2208
     73  CG2       24.6090    4.5240   11.7510 C.3    75  THR75       0.0379
     74  N         26.2480    7.8070   12.0060 N.am   76  GLN76      -0.1976
     75  CA        25.7240    9.0930   12.4360 C.3    76  GLN76       0.1601
     76  C         26.8700   10.0830   12.4710 C.2    76  GLN76       0.2287
     77  O         27.9010    9.8220   13.0950 O.2    76  GLN76      -0.2864
     78  CB        25.1070    8.9720   13.8230 C.3    76  GLN76       0.0394
     79  CG        24.5630    7.5900   14.1120 C.3    76  GLN76       0.0908
     80  CD        23.1560    7.6230   14.6580 C.2    76  GLN76       0.2608
     81  OE1       22.9200    7.2890   15.8250 O.2    76  GLN76      -0.2717
     82  NE2       22.2050    8.0240   13.8160 N.am   76  GLN76      -0.0878
     83  N         28.9850   15.6270   13.8090 N.3   111  PHE111     -0.1241
     84  CA        30.1480   14.8450   14.1780 C.3   111  PHE111      0.1605
     85  C         30.6010   15.1950   15.5970 C.2   111  PHE111      0.2264
     86  O         30.6570   14.3250   16.4730 O.2   111  PHE111     -0.2867
     87  CB        31.2750   15.0980   13.1840 C.3   111  PHE111      0.0534
     88  CG        32.5550   14.4180   13.5440 C.ar  111  PHE111     -0.0203
     89  CD1       32.6590   13.0390   13.4790 C.ar  111  PHE111     -0.0042
     90  CD2       33.6590   15.1570   13.9410 C.ar  111  PHE111     -0.0042
     91  CE1       33.8370   12.4080   13.7960 C.ar  111  PHE111     -0.0003
     92  CE2       34.8420   14.5280   14.2610 C.ar  111  PHE111     -0.0003
     93  CZ        34.9310   13.1520   14.1900 C.ar  111  PHE111     -0.0000
     94  N         39.1950   12.2710   16.1360 N.3   121  ILE121     -0.1245
     95  CA        38.8810   10.8550   16.2510 C.3   121  ILE121      0.1561
     96  C         40.0750   10.0420   15.7780 C.2   121  ILE121      0.2260
     97  O         40.7390   10.4120   14.8030 O.2   121  ILE121     -0.2867
     98  CB        37.6240   10.4990   15.4140 C.3   121  ILE121      0.0252
     99  CG1       37.2810    9.0220   15.5730 C.3   121  ILE121      0.0019
    100  CG2       37.8630   10.8260   13.9510 C.3   121  ILE121      0.0019
    101  CD1       35.9040    8.6580   15.0190 C.3   121  ILE121      0.0001
    102  N         39.0920   -0.0980    5.1630 N.3   129  ILE129     -0.1245
    103  CA        37.9180    0.7560    5.2750 C.3   129  ILE129      0.1561
    104  C         38.2870    2.2370    5.4770 C.2   129  ILE129      0.2260
    105  O         37.4530    3.0570    5.8680 O.2   129  ILE129     -0.2867
    106  CB        36.9920    0.2820    6.4370 C.3   129  ILE129      0.0252
    107  CG1       37.7430    0.3050    7.7770 C.3   129  ILE129      0.0019
    108  CG2       36.4950   -1.1340    6.1510 C.3   129  ILE129      0.0019
    109  CD1       36.8720   -0.0720    8.9800 C.3   129  ILE129      0.0001
    110  N         39.1840    6.0500    4.3040 N.3   131  ARG131     -0.1245
    111  CA        38.8600    6.9590    3.2110 C.3   131  ARG131      0.1563
    112  C         40.0610    7.8590    2.9340 C.2   131  ARG131      0.2260
    113  O         40.8310    8.1960    3.8440 O.2   131  ARG131     -0.2867
    114  CB        37.6410    7.8180    3.5610 C.3   131  ARG131      0.0307
    115  CG        36.3690    7.0370    3.8650 C.3   131  ARG131      0.0489
    116  CD        35.9770    6.1030    2.7210 C.3   131  ARG131      0.2205
    117  NE        34.7280    5.3810    2.9860 N.pl3 131  ARG131     -0.0865
    118  CZ        33.5300    5.7580    2.5350 C.cat 131  ARG131      0.5346
    119  NH1       33.4070    6.8530    1.7910 N.pl3 131  ARG131      0.1354
    120  NH2       32.4500    5.0420    2.8270 N.pl3 131  ARG131      0.1354
    121  N         36.9980   -3.9360    9.2430 N.3   190  TYR190     -0.1241
    122  CA        36.5550   -3.7090   10.6150 C.3   190  TYR190      0.1605
    123  C         37.2160   -4.7780   11.4920 C.2   190  TYR190      0.2264
    124  O         37.8360   -5.7130   10.9760 O.2   190  TYR190     -0.2867
    125  CB        35.0390   -3.8520   10.7310 C.3   190  TYR190      0.0534
    126  CG        34.2440   -2.8890    9.8800 C.ar  190  TYR190     -0.0201
    127  CD1       33.9310   -1.6140   10.3450 C.ar  190  TYR190     -0.0009
    128  CD2       33.7800   -3.2620    8.6230 C.ar  190  TYR190     -0.0009
    129  CE1       33.1790   -0.7460    9.5870 C.ar  190  TYR190      0.0417
    130  CE2       33.0240   -2.3970    7.8550 C.ar  190  TYR190      0.0417
    131  CZ        32.7240   -1.1450    8.3440 C.ar  190  TYR190      0.1957
    132  OH        31.9310   -0.3040    7.5960 O.3   190  TYR190     -0.2866
    133  N         27.3470   -8.3600    9.0870 N.3   216  LYS216     -0.1245
    134  CA        28.6320   -8.5400    9.7530 C.3   216  LYS216      0.1561
    135  C         28.4570   -8.2340   11.2290 C.2   216  LYS216      0.2260
    136  O         27.4540   -7.6310   11.6280 O.2   216  LYS216     -0.2867
    137  CB        29.6820   -7.6000    9.1510 C.3   216  LYS216      0.0271
    138  CG        29.4030   -6.1180    9.3860 C.3   216  LYS216      0.0035
    139  CD        30.4380   -5.2500    8.6920 C.3   216  LYS216      0.0206
    140  CE        29.9920   -3.7940    8.6200 C.3   216  LYS216      0.1093
    141  NZ        28.6410   -3.6400    7.9980 N.3   216  LYS216     -0.1314
    142  N         30.9060   -6.4930   14.3210 N.3   218  ILE218     -0.1245
    143  CA        32.1680   -5.8190   14.5590 C.3   218  ILE218      0.1561
    144  C         32.2880   -5.3440   16.0030 C.2   218  ILE218      0.2260
    145  O         31.2810   -5.1040   16.6690 O.2   218  ILE218     -0.2867
    146  CB        32.3180   -4.6140   13.6200 C.3   218  ILE218      0.0252
    147  CG1       31.3120   -3.5200   13.9930 C.3   218  ILE218      0.0019
    148  CG2       32.0810   -5.0550   12.1870 C.3   218  ILE218      0.0019
    149  CD1       31.5240   -2.2310   13.2310 C.3   218  ILE218      0.0001
    150  N         33.4160   -2.2810   18.1790 N.3   220  ASP220     -0.1239
    151  CA        33.4120   -0.8710   17.7810 C.3   220  ASP220      0.1674
    152  C         33.3690    0.0520   19.0180 C.2   220  ASP220      0.2266
    153  O         32.2990    0.3260   19.5640 O.2   220  ASP220     -0.2867
    154  CB        32.1840   -0.6340   16.8980 C.3   220  ASP220      0.1410
    155  CG        32.1660    0.7410   16.2450 C.2   220  ASP220      0.3668
    156  OD1       32.7250    1.7070   16.8150 O.co2 220  ASP220     -0.2456
    157  OD2       31.5760    0.8440   15.1460 O.co2 220  ASP220     -0.2456
    158  N         33.9490    3.2000   19.3790 N.3   222  GLY222     -0.1210
    159  CA        33.4080    4.5290   19.1700 C.3   222  GLY222      0.1956
    160  C         31.8910    4.5900   19.2220 C.2   222  GLY222      0.2612
    161  O         31.3100    5.6730   19.3620 O.2   222  GLY222     -0.2717
    162  N         31.2420    3.4330   19.1150 N.am  223  THR223     -0.1952
    163  CA        29.7870    3.3750   19.1850 C.3   223  THR223      0.1897
    164  C         29.3360    3.0890   20.6140 C.2   223  THR223      0.2313
    165  O         29.9180    2.2400   21.2910 O.2   223  THR223     -0.2863
    166  CB        29.2380    2.2780   18.2610 C.3   223  THR223      0.1794
    167  OG1       29.6720    2.5260   16.9190 O.3   223  THR223     -0.2208
    168  CG2       27.7270    2.2520   18.2980 C.3   223  THR223      0.0378
    169  N         24.3400   -2.6810   18.9810 N.3   227  ARG227     -0.1245
    170  CA        23.4210   -2.6240   17.8410 C.3   227  ARG227      0.1563
    171  C         23.2510   -3.9990   17.2020 C.2   227  ARG227      0.2260
    172  O         24.2260   -4.6860   16.8860 O.2   227  ARG227     -0.2867
    173  CB        23.9340   -1.6340   16.7840 C.3   227  ARG227      0.0307
    174  CG        23.9460   -0.1720   17.2250 C.3   227  ARG227      0.0489
    175  CD        23.7830    0.7480   16.0060 C.3   227  ARG227      0.2205
    176  NE        23.9510    2.1610   16.3360 N.pl3 227  ARG227     -0.0865
    177  CZ        24.8500    2.9570   15.7690 C.cat 227  ARG227      0.5346
    178  NH1       25.6650    2.4770   14.8390 N.pl3 227  ARG227      0.1354
    179  NH2       24.9320    4.2310   16.1310 N.pl3 227  ARG227      0.1354
    180  N         23.2160   -2.5480    9.3500 N.3   321  THR321     -0.1218
    181  CA        24.5660   -2.7980    8.8520 C.3   321  THR321      0.1862
    182  C         25.3080   -3.8250    9.7030 C.2   321  THR321      0.2287
    183  O         26.5440   -3.8300    9.7590 O.2   321  THR321     -0.2866
    184  CB        25.3940   -1.4920    8.8030 C.3   321  THR321      0.1770
    185  OG1       25.4560   -0.9050   10.1120 O.3   321  THR321     -0.2211
    186  CG2       24.7600   -0.5060    7.8440 C.3   321  THR321      0.0375
    187  N         26.8040   -4.3360   16.0270 N.3   324  VAL324     -0.1245
    188  CA        27.8800   -3.4790   16.5140 C.3   324  VAL324      0.1561
    189  C         28.0250   -3.7050   18.0040 C.2   324  VAL324      0.2260
    190  O         27.1270   -3.3670   18.7820 O.2   324  VAL324     -0.2867
    191  CB        27.5890   -1.9850   16.2570 C.3   324  VAL324      0.0252
    192  CG1       28.7420   -1.1290   16.7680 C.3   324  VAL324      0.0019
    193  CG2       27.3860   -1.7490   14.7660 C.3   324  VAL324      0.0019
@<TRIPOS>BOND
     1   119   118    1
     2   118   120    1
     3   118   117    2
     4   116   117    1
     5   116   115    1
     6   112   111    1
     7   112   113    2
     8   111   114    1
     9   111   110    1
    10   114   115    1
    11    53    54    1
    12    53    52    1
    13    54    48    1
    14   102   103    1
    15    52    49    1
    16   103   104    1
    17   103   106    1
    18    41    42    1
    19   104   105    2
    20    48    49    1
    21    48    43   am
    22    42    43    1
    23    42    45    1
    24   108   106    1
    25   106   107    1
    26    49    50    1
    27    43    44    2
    28    40    38   am
    29    47    45    1
    30    39    38    2
    31    51    50    2
    32    45    46    1
    33    38    37    1
    34    50    55   am
    35   132   131    1
    36   107   109    1
    37   186   184    1
    38   130   131   ar
    39   130   128   ar
    40   141   140    1
    41   131   129   ar
    42   140   139    1
    43   128   126   ar
    44   139   138    1
    45    55    56    1
    46   184   181    1
    47   184   185    1
    48   181   180    1
    49   181   182    1
    50    37    34    1
    51    58    57    2
    52   133   134    1
    53   137   138    1
    54   137   134    1
    55    31    32    1
    56    31    28    1
    57   121   122    1
    58    30    29    2
    59   129   127   ar
    60   182   183    2
    61    57    56    1
    62    57    67   am
    63   134   135    1
    64    56    59    1
    65    34    33    1
    66    34    35    1
    67   126   127   ar
    68   126   125    1
    69    29    33   am
    70    29    28    1
    71    28    27    1
    72    67    68    1
    73    27    23   am
    74    70    69    2
    75    68    69    1
    76    68    71    1
    77   122   125    1
    78   122   123    1
    79   124   123    2
    80    62    64   ar
    81    62    60   ar
    82    35    36    2
    83    64    65   ar
    84    72    71    1
    85    69    74   am
    86    59    60    1
    87    60    61   ar
    88   135   136    2
    89    65    66    1
    90    65    63   ar
    91    61    63   ar
    92    71    73    1
    93    23    22    1
    94    23    24    2
    95    22    25    1
    96    22    21    1
    97    25    26    1
    98    74    75    1
    99    20    19    2
   100   148   146    1
   101    75    76    1
   102    75    78    1
   103    76    77    2
   104    21    19   am
   105    19    18    1
   106    87    88    1
   107    87    84    1
   108   149   147    1
   109    89    88   ar
   110    89    91   ar
   111    88    90   ar
   112   146   147    1
   113   146   143    1
   114    91    93   ar
   115    83    84    1
   116    82    80   am
   117    78    79    1
   118    90    92   ar
   119   100    98    1
   120    79    80    1
   121    84    85    1
   122    93    92   ar
   123    18    17    1
   124   142   143    1
   125   143   144    1
   126    80    81    2
   127   193   191    1
   128    16    14   ar
   129    97    96    2
   130   178   177    1
   131   101    99    1
   132   157   155   ar
   133    98    99    1
   134    98    95    1
   135    85    86    2
   136   177   179    1
   137   177   176    2
   138    96    95    1
   139    12    11    2
   140    14    15   ar
   141    14    13    1
   142   144   145    2
   143   175   176    1
   144   175   174    1
   145   187   188    1
   146    94    95    1
   147   155   156   ar
   148   155   154    1
   149   191   188    1
   150   191   192    1
   151   188   189    1
   152    13    10    1
   153   173   174    1
   154   173   170    1
   155   172   171    2
   156   154   151    1
   157   167   166    1
   158    11    10    1
   159   171   170    1
   160    10     9    1
   161   151   150    1
   162   151   152    1
   163   170   169    1
   164   189   190    2
   165   166   168    1
   166   166   163    1
   167     8     6    1
   168     4     3    2
   169   152   153    2
   170   162   163    1
   171   162   160   am
   172   159   160    1
   173   159   158    1
   174   163   164    1
   175   160   161    2
   176     5     6    1
   177     5     2    1
   178     6     7    1
   179     3     2    1
   180     1     2    1
   181   164   165    2
