@<TRIPOS>MOLECULE
tmp/4d86A01.pdb
 168 162 0 0 0
SMALL
GASTEIGER

@<TRIPOS>ATOM
      1  N         -4.1160   28.6500   22.6510 N.3   204  GLU204     -0.1231
      2  CA        -4.9120   29.6430   21.9530 C.3   204  GLU204      0.1699
      3  C         -4.0690   30.3930   20.9320 C.2   204  GLU204      0.2593
      4  O         -2.8320   30.2340   20.8820 O.2   204  GLU204     -0.2718
      5  CB        -5.5860   30.6060   22.9400 C.3   204  GLU204      0.0402
      6  CG        -4.6520   31.5620   23.6390 C.3   204  GLU204      0.1161
      7  CD        -5.2680   32.2060   24.8880 C.2   204  GLU204      0.3649
      8  OE1       -4.5380   32.9590   25.5800 O.co2 204  GLU204     -0.2457
      9  OE2       -6.4670   31.9700   25.1810 O.co2 204  GLU204     -0.2457
     10  N         -4.7530   31.1880   20.1150 N.am  205  GLY205     -0.1942
     11  CA        -4.1030   32.0080   19.1160 C.3   205  GLY205      0.2014
     12  C         -3.2020   33.0220   19.7900 C.2   205  GLY205      0.2639
     13  O         -3.5910   33.6190   20.7900 O.2   205  GLY205     -0.2714
     14  N         -1.9920   33.2000   19.2510 N.am  206  VAL206     -0.1963
     15  CA        -1.0240   34.1570   19.7810 C.3   206  VAL206      0.1727
     16  C         -1.5650   35.6000   19.7780 C.2   206  VAL206      0.2616
     17  O         -1.1430   36.4270   20.5770 O.2   206  VAL206     -0.2715
     18  CB         0.3380   34.0970   19.0000 C.3   206  VAL206      0.0290
     19  CG1        0.1770   34.5770   17.5700 C.3   206  VAL206      0.0023
     20  CG2        1.3820   34.9200   19.7000 C.3   206  VAL206      0.0023
     21  N         -2.5040   35.9040   18.8910 N.am  207  GLN207     -0.1977
     22  CA        -3.1920   37.2000   18.9390 C.3   207  GLN207      0.1601
     23  C         -4.0480   37.4030   20.2030 C.2   207  GLN207      0.2287
     24  O         -4.5120   38.5200   20.4620 O.2   207  GLN207     -0.2864
     25  CB        -4.0520   37.4300   17.6890 C.3   207  GLN207      0.0394
     26  CG        -5.3510   36.6580   17.6100 C.3   207  GLN207      0.0908
     27  CD        -5.1840   35.2500   17.0430 C.2   207  GLN207      0.2608
     28  OE1       -4.0730   34.7500   16.8770 O.2   207  GLN207     -0.2717
     29  NE2       -6.2990   34.6110   16.7490 N.am  207  GLN207     -0.0878
     30  N          6.9070   35.9350   13.9450 N.3   217  SER217     -0.1217
     31  CA         7.8440   35.4580   12.9080 C.3   217  SER217      0.1889
     32  C          7.6040   36.1810   11.5850 C.2   217  SER217      0.2288
     33  O          6.5150   36.1270   11.0360 O.2   217  SER217     -0.2866
     34  CB         7.6690   33.9640   12.6650 C.3   217  SER217      0.2089
     35  OG         8.7010   33.4610   11.8170 O.3   217  SER217     -0.2183
     36  N          2.5150   35.0840    6.2340 N.3   227  GLY227     -0.1210
     37  CA         2.4210   33.8330    6.9840 C.3   227  GLY227      0.1940
     38  C          1.2030   33.8840    7.8770 C.2   227  GLY227      0.2454
     39  O          0.7830   34.9680    8.2740 O.2   227  GLY227     -0.2732
     40  N          0.6230   32.7170    8.2080 N.am  228  PRO228     -0.2717
     41  CA        -0.5950   32.7160    9.0320 C.3   228  PRO228      0.1535
     42  C         -0.3860   33.2380   10.4720 C.2   228  PRO228      0.2598
     43  O         -1.3060   33.8120   11.0600 O.2   228  PRO228     -0.2715
     44  CB        -1.0410   31.2340    9.0080 C.3   228  PRO228      0.0310
     45  CG         0.2200   30.4660    8.6590 C.3   228  PRO228      0.0237
     46  CD         0.9760   31.3650    7.7380 C.3   228  PRO228      0.0939
     47  N          0.8250   33.0830   11.0090 N.am  229  LEU229     -0.1964
     48  CA         1.1620   33.6240   12.3270 C.3   229  LEU229      0.1728
     49  C          1.1370   35.1690   12.3480 C.2   229  LEU229      0.2616
     50  O          0.4060   35.7710   13.1430 O.2   229  LEU229     -0.2715
     51  CB         2.5280   33.0730   12.7760 C.3   229  LEU229      0.0311
     52  CG         2.9960   33.3930   14.1980 C.3   229  LEU229      0.0022
     53  CD1        1.9970   32.8250   15.2180 C.3   229  LEU229      0.0001
     54  CD2        4.4380   32.8640   14.4360 C.3   229  LEU229      0.0001
     55  N          1.9170   35.8060   11.4730 N.am  230  SER230     -0.1950
     56  CA         1.9620   37.2760   11.4020 C.3   230  SER230      0.1924
     57  C          0.6130   37.8660   11.0110 C.2   230  SER230      0.2314
     58  O          0.2000   38.8780   11.5590 O.2   230  SER230     -0.2863
     59  CB         3.0120   37.7780   10.3960 C.3   230  SER230      0.2116
     60  OG         4.2450   37.1350   10.6010 O.3   230  SER230     -0.2180
     61  N         -2.3160   36.7120   11.6180 N.3   232  SER232     -0.1217
     62  CA        -3.2230   36.6920   12.7690 C.3   232  SER232      0.1889
     63  C         -2.9190   37.8850   13.6760 C.2   232  SER232      0.2288
     64  O         -3.8330   38.5980   14.0940 O.2   232  SER232     -0.2866
     65  CB        -3.1360   35.3700   13.5260 C.3   232  SER232      0.2089
     66  OG        -3.3490   34.2790   12.6470 O.3   232  SER232     -0.2183
     67  N          4.9720   31.8500   20.0080 N.3   313  PRO313     -0.2102
     68  CA         4.3380   30.8160   19.1980 C.3   313  PRO313      0.1504
     69  C          5.4000   29.8830   18.6690 C.2   313  PRO313      0.2576
     70  O          6.5960   30.1140   18.8820 O.2   313  PRO313     -0.2718
     71  CB         3.7180   31.6120   18.0590 C.3   313  PRO313      0.0282
     72  CG         4.6940   32.7270   17.8540 C.3   313  PRO313      0.0208
     73  CD         5.0900   33.1180   19.2700 C.3   313  PRO313      0.0893
     74  N          4.9810   28.8420   17.9680 N.am  314  ALA314     -0.1966
     75  CA         5.9100   27.8430   17.4550 C.3   314  ALA314      0.1728
     76  C          6.6100   28.3380   16.1840 C.2   314  ALA314      0.2616
     77  O          6.4400   27.7970   15.0930 O.2   314  ALA314     -0.2715
     78  CB         5.1700   26.5020   17.2010 C.3   314  ALA314      0.0334
     79  N          7.4060   29.3890   16.3370 N.am  315  ILE315     -0.1963
     80  CA         8.0810   30.0120   15.2090 C.3   315  ILE315      0.1727
     81  C          8.9570   28.9970   14.4840 C.2   315  ILE315      0.2617
     82  O          9.5320   28.1090   15.0880 O.2   315  ILE315     -0.2715
     83  CB         8.9340   31.2590   15.6480 C.3   315  ILE315      0.0290
     84  CG1        9.9570   30.9160   16.7390 C.3   315  ILE315      0.0022
     85  CG2        8.0230   32.4270   16.1190 C.3   315  ILE315      0.0023
     86  CD1       10.7710   32.1570   17.1980 C.3   315  ILE315      0.0001
     87  N          9.0230   29.1170   13.1670 N.am  316  GLY316     -0.1940
     88  CA         9.8590   28.2470   12.3690 C.3   316  GLY316      0.2014
     89  C          9.1870   26.9560   11.9290 C.2   316  GLY316      0.2640
     90  O          9.7350   26.2580   11.0850 O.2   316  GLY316     -0.2714
     91  N          8.0210   26.6350   12.4940 N.am  317  THR317     -0.1936
     92  CA         7.3680   25.3200   12.2690 C.3   317  THR317      0.2028
     93  C          6.2770   25.3190   11.1790 C.2   317  THR317      0.2643
     94  O          5.6260   24.2900   10.9610 O.2   317  THR317     -0.2714
     95  CB         6.7390   24.7470   13.5750 C.3   317  THR317      0.1808
     96  OG1        5.6400   25.5560   14.0100 O.3   317  THR317     -0.2208
     97  CG2        7.7860   24.6050   14.7150 C.3   317  THR317      0.0379
     98  N          6.0470   26.4630   10.5340 N.am  318  GLY318     -0.1939
     99  CA         5.1780   26.5380    9.3440 C.3   318  GLY318      0.2014
    100  C          5.9940   26.5440    8.0670 C.2   318  GLY318      0.2639
    101  O          6.6190   25.5460    7.7280 O.2   318  GLY318     -0.2714
    102  N          6.0120   27.6900    7.3890 N.am  319  ASN319     -0.1958
    103  CA         6.7800   27.9080    6.1510 C.3   319  ASN319      0.1819
    104  C          8.2640   27.5500    6.2150 C.2   319  ASN319      0.2621
    105  O          8.8270   27.0660    5.2340 O.2   319  ASN319     -0.2715
    106  CB         6.6680   29.4010    5.7330 C.3   319  ASN319      0.1195
    107  CG         5.2700   29.7700    5.2470 C.2   319  ASN319      0.2630
    108  OD1        4.5480   28.9200    4.7460 O.2   319  ASN319     -0.2716
    109  ND2        4.8870   31.0420    5.3910 N.am  319  ASN319     -0.0877
    110  N          8.8920   27.7650    7.3730 N.am  320  LEU320     -0.1977
    111  CA        10.3340   27.5900    7.4860 C.3   320  LEU320      0.1596
    112  C         10.7520   26.1320    7.7270 C.2   320  LEU320      0.2287
    113  O         11.9430   25.8080    7.6620 O.2   320  LEU320     -0.2864
    114  CB        10.8720   28.4930    8.5870 C.3   320  LEU320      0.0297
    115  CG        10.8110   29.9810    8.2180 C.3   320  LEU320      0.0022
    116  CD1       11.0630   30.8140    9.4590 C.3   320  LEU320      0.0001
    117  CD2       11.8340   30.3040    7.1090 C.3   320  LEU320      0.0001
    118  N          8.2680   19.8620   14.2850 N.3   324  LYS324     -0.1245
    119  CA         7.6440   20.4770   15.4540 C.3   324  LYS324      0.1561
    120  C          8.1510   19.9450   16.7870 C.2   324  LYS324      0.2260
    121  O          8.3010   20.7060   17.7270 O.2   324  LYS324     -0.2867
    122  CB         6.1180   20.3900   15.3550 C.3   324  LYS324      0.0271
    123  CG         5.5470   21.2520   14.1890 C.3   324  LYS324      0.0035
    124  CD         4.0190   21.0980   14.0060 C.3   324  LYS324      0.0206
    125  CE         3.4940   22.0750   12.9660 C.3   324  LYS324      0.1093
    126  NZ         2.0180   21.9690   12.6970 N.3   324  LYS324     -0.1314
    127  N          2.3830   29.6930   22.9930 N.3   353  LEU353     -0.1231
    128  CA         1.0480   29.8840   22.4310 C.3   353  LEU353      0.1693
    129  C          0.8410   28.9890   21.2100 C.2   353  LEU353      0.2592
    130  O          1.4200   29.2320   20.1400 O.2   353  LEU353     -0.2718
    131  CB         0.8310   31.3510   22.0480 C.3   353  LEU353      0.0284
    132  CG         0.4890   32.2970   23.2140 C.3   353  LEU353      0.0019
    133  CD1       -1.0170   32.4120   23.3160 C.3   353  LEU353      0.0001
    134  CD2        1.0760   31.8570   24.5620 C.3   353  LEU353      0.0001
    135  N          0.0160   27.9530   21.3890 N.am  354  LEU354     -0.1966
    136  CA        -0.2170   26.9360   20.3690 C.3   354  LEU354      0.1728
    137  C         -1.6620   27.0490   19.8870 C.2   354  LEU354      0.2616
    138  O         -2.5840   27.0560   20.6970 O.2   354  LEU354     -0.2715
    139  CB         0.0680   25.5490   20.9430 C.3   354  LEU354      0.0311
    140  CG         1.3780   25.4370   21.7440 C.3   354  LEU354      0.0022
    141  CD1        1.6570   23.9940   22.0910 C.3   354  LEU354      0.0001
    142  CD2        2.5580   26.0500   20.9680 C.3   354  LEU354      0.0001
    143  N         -1.8300   27.2150   18.5790 N.am  355  HIS355     -0.1973
    144  CA        -3.1420   27.3040   17.9380 C.3   355  HIS355      0.1656
    145  C         -3.9770   26.0490   18.2550 C.2   355  HIS355      0.2291
    146  O         -3.4520   24.9530   18.1620 O.2   355  HIS355     -0.2864
    147  CB        -2.9580   27.3920   16.4100 C.3   355  HIS355      0.0771
    148  CG        -3.9770   28.2470   15.7160 C.ar  355  HIS355      0.0820
    149  ND1       -5.2520   28.4390   16.2060 N.ar  355  HIS355     -0.2267
    150  CD2       -3.9150   28.9400   14.5530 C.ar  355  HIS355      0.1154
    151  CE1       -5.9250   29.2330   15.3880 C.ar  355  HIS355      0.1986
    152  NE2       -5.1330   29.5550   14.3790 N.ar  355  HIS355     -0.2212
    153  N         -3.6980   23.2410   15.8580 N.3   358  ASP358     -0.1239
    154  CA        -2.3590   22.6800   15.5900 C.3   358  ASP358      0.1674
    155  C         -2.0770   21.5040   16.5250 C.2   358  ASP358      0.2266
    156  O         -1.3750   21.6180   17.5290 O.2   358  ASP358     -0.2867
    157  CB        -1.3100   23.7960   15.7290 C.3   358  ASP358      0.1410
    158  CG         0.0140   23.4550   15.0880 C.2   358  ASP358      0.3668
    159  OD1        0.8430   24.4040   14.9720 O.co2 358  ASP358     -0.2456
    160  OD2        0.2580   22.2630   14.7190 O.co2 358  ASP358     -0.2456
    161  N          1.7200   20.4600   17.0460 N.3   361  ASN361     -0.1240
    162  CA         2.4750   21.3190   17.9800 C.3   361  ASN361      0.1653
    163  C          2.0750   21.0680   19.4190 C.2   361  ASN361      0.2266
    164  O          2.9370   20.9190   20.2890 O.2   361  ASN361     -0.2867
    165  CB         2.3650   22.8120   17.6170 C.3   361  ASN361      0.1155
    166  CG         3.5800   23.3130   16.8260 C.2   361  ASN361      0.2627
    167  OD1        4.7180   22.9620   17.1490 O.2   361  ASN361     -0.2716
    168  ND2        3.3480   24.1250   15.8050 N.am  361  ASN361     -0.0877
@<TRIPOS>BOND
     1   108   107    2
     2   105   104    2
     3   107   109   am
     4   107   106    1
     5   106   103    1
     6   103   104    1
     7   103   102    1
     8   104   110   am
     9    36    37    1
    10    37    38    1
    11   117   115    1
    12   110   111    1
    13   102   100   am
    14   111   112    1
    15   111   114    1
    16   113   112    2
    17   101   100    2
    18    46    40    1
    19    46    45    1
    20    38    40   am
    21    38    39    2
    22   100    99    1
    23    40    41    1
    24   115   114    1
    25   115   116    1
    26    45    44    1
    27    44    41    1
    28    41    42    1
    29    99    98    1
    30    59    60    1
    31    59    56    1
    32    42    47   am
    33    42    43    2
    34    98    93   am
    35    94    93    2
    36    47    48    1
    37    57    56    1
    38    57    58    2
    39    33    32    2
    40    90    89    2
    41    93    92    1
    42    56    55    1
    43    55    49   am
    44    32    31    1
    45    61    62    1
    46    35    34    1
    47    89    88    1
    48    89    91   am
    49    92    91    1
    50    92    95    1
    51    48    49    1
    52    48    51    1
    53    49    50    2
    54    88    87    1
    55    66    65    1
    56    34    31    1
    57   126   125    1
    58    62    65    1
    59    62    63    1
    60    51    52    1
    61    31    30    1
    62   125   124    1
    63    87    81   am
    64    95    96    1
    65    95    97    1
    66    63    64    2
    67   124   123    1
    68   123   122    1
    69    52    54    1
    70    52    53    1
    71   118   119    1
    72   152   150   ar
    73   152   151   ar
    74    81    82    2
    75    81    80    1
    76   150   148   ar
    77   160   158   ar
    78   159   158   ar
    79   158   157    1
    80    77    76    2
    81    80    83    1
    82    80    79    1
    83   122   119    1
    84   151   149   ar
    85   119   120    1
    86   154   157    1
    87   154   153    1
    88   154   155    1
    89    83    85    1
    90    83    84    1
    91   148   149   ar
    92   148   147    1
    93   168   166   am
    94    76    79   am
    95    76    75    1
    96   147   144    1
    97   155   156    2
    98    84    86    1
    99    29    27   am
   100   120   121    2
   101   166   167    2
   102   166   165    1
   103    28    27    2
   104    27    26    1
   105   161   162    1
   106    78    75    1
   107    75    74    1
   108    19    18    1
   109    26    25    1
   110   165   162    1
   111    25    22    1
   112    72    71    1
   113    72    73    1
   114   144   145    1
   115   144   143    1
   116    74    69   am
   117   162   163    1
   118    71    68    1
   119   146   145    2
   120   143   137   am
   121    69    70    2
   122    69    68    1
   123    21    22    1
   124    21    16   am
   125    22    23    1
   126    18    20    1
   127    18    15    1
   128    11    12    1
   129    11    10    1
   130    68    67    1
   131    14    15    1
   132    14    12   am
   133    73    67    1
   134   163   164    2
   135    16    15    1
   136    16    17    2
   137    12    13    2
   138   137   136    1
   139   137   138    2
   140    10     3   am
   141   130   129    2
   142    23    24    2
   143   136   139    1
   144   136   135    1
   145     4     3    2
   146     3     2    1
   147   139   140    1
   148   142   140    1
   149   129   135   am
   150   129   128    1
   151   140   141    1
   152     2     1    1
   153     2     5    1
   154   131   128    1
   155   131   132    1
   156   128   127    1
   157     5     6    1
   158   132   133    1
   159   132   134    1
   160     6     7    1
   161     7     9   ar
   162     7     8   ar
