@<TRIPOS>MOLECULE
tmp/4d86A00.pdb
 127 122 0 0 0
SMALL
GASTEIGER

@<TRIPOS>ATOM
      1  N         31.3770   -4.1140   14.0070 N.3    20  ASP20      -0.1239
      2  CA        32.2640   -3.0410   13.6330 C.3    20  ASP20       0.1674
      3  C         31.5320   -2.1550   12.6210 C.2    20  ASP20       0.2266
      4  O         31.0560   -2.6530   11.6000 O.2    20  ASP20      -0.2867
      5  CB        33.5290   -3.6750   13.0660 C.3    20  ASP20       0.1410
      6  CG        34.3780   -2.7230   12.2710 C.2    20  ASP20       0.3668
      7  OD1       34.3750   -1.4960   12.5280 O.co2  20  ASP20      -0.2456
      8  OD2       35.0650   -3.2410   11.3610 O.co2  20  ASP20      -0.2456
      9  N         30.5670    8.8420   15.2440 N.3    32  ALA32      -0.1231
     10  CA        30.6340    9.7280   16.3690 C.3    32  ALA32       0.1694
     11  C         31.7930   10.6980   16.1430 C.2    32  ALA32       0.2592
     12  O         32.9550   10.3220   16.2400 O.2    32  ALA32      -0.2718
     13  CB        30.7960    8.8920   17.6960 C.3    32  ALA32       0.0304
     14  N         31.4720   11.9530   15.8260 N.am   33  SER33      -0.1952
     15  CA        32.4560   12.8880   15.3110 C.3    33  SER33       0.1924
     16  C         32.6110   14.0890   16.2250 C.2    33  SER33       0.2314
     17  O         32.1000   14.0990   17.3350 O.2    33  SER33      -0.2863
     18  CB        32.0450   13.3540   13.9060 C.3    33  SER33       0.2116
     19  OG        33.1310   13.9780   13.2710 O.3    33  SER33      -0.2180
     20  N         40.5870   10.2710   16.6120 N.3    41  GLY41      -0.1210
     21  CA        40.3970    9.3600   17.7410 C.3    41  GLY41       0.1956
     22  C         39.2250    8.3930   17.6360 C.2    41  GLY41       0.2612
     23  O         38.3840    8.4870   16.7410 O.2    41  GLY41      -0.2717
     24  N         39.2130    7.4350   18.5580 N.am   42  GLY42      -0.1942
     25  CA        38.0990    6.5100   18.7380 C.3    42  GLY42       0.2014
     26  C         37.5500    5.7900   17.5080 C.2    42  GLY42       0.2639
     27  O         38.2850    5.3760   16.6040 O.2    42  GLY42      -0.2714
     28  N         36.2300    5.6210   17.4960 N.am   43  LEU43      -0.1963
     29  CA        35.5620    4.8970   16.4180 C.3    43  LEU43       0.1728
     30  C         35.7700    5.6000   15.0760 C.2    43  LEU43       0.2616
     31  O         35.9690    4.9580   14.0220 O.2    43  LEU43      -0.2715
     32  CB        34.0700    4.7580   16.7350 C.3    43  LEU43       0.0311
     33  CG        33.3310    3.6730   15.9510 C.3    43  LEU43       0.0022
     34  CD1       33.3690    3.9860   14.4920 C.3    43  LEU43       0.0001
     35  CD2       33.9630    2.3150   16.1950 C.3    43  LEU43       0.0001
     36  N         35.7430    6.9230   15.1150 N.am   44  ALA44      -0.1977
     37  CA        35.9890    7.7370   13.9270 C.3    44  ALA44       0.1597
     38  C         37.3480    7.4250   13.2670 C.2    44  ALA44       0.2287
     39  O         37.4550    7.3730   12.0340 O.2    44  ALA44      -0.2864
     40  CB        35.8740    9.2160   14.2900 C.3    44  ALA44       0.0319
     41  N         38.9460    4.5690   13.3810 N.3    46  ALA46      -0.1245
     42  CA        38.8560    3.2400   12.7890 C.3    46  ALA46       0.1562
     43  C         38.0890    3.3050   11.4680 C.2    46  ALA46       0.2260
     44  O         38.4950    2.6800   10.4720 O.2    46  ALA46      -0.2867
     45  CB        38.1820    2.2580   13.7590 C.3    46  ALA46       0.0290
     46  N         26.2540    4.0310   16.6640 N.3   129  PRO129     -0.2102
     47  CA        27.0760    3.6930   17.8080 C.3   129  PRO129      0.1504
     48  C         26.6950    4.4760   19.0690 C.2   129  PRO129      0.2576
     49  O         25.7590    5.2920   19.0360 O.2   129  PRO129     -0.2718
     50  CB        28.4810    4.0750   17.3230 C.3   129  PRO129      0.0282
     51  CG        28.2740    5.2880   16.5550 C.3   129  PRO129      0.0208
     52  CD        26.9210    5.0480   15.8270 C.3   129  PRO129      0.0893
     53  N         27.3890    4.2000   20.1790 N.am  130  ALA130     -0.1966
     54  CA        27.1110    4.8580   21.4470 C.3   130  ALA130      0.1728
     55  C         27.8000    6.2330   21.4480 C.2   130  ALA130      0.2616
     56  O         28.7690    6.4550   22.1630 O.2   130  ALA130     -0.2715
     57  CB        27.5910    3.9760   22.6310 C.3   130  ALA130      0.0334
     58  N         27.2770    7.1340   20.6160 N.am  131  ILE131     -0.1963
     59  CA        27.8260    8.4860   20.3840 C.3   131  ILE131      0.1727
     60  C         28.0500    9.1830   21.7100 C.2   131  ILE131      0.2617
     61  O         27.1590    9.1770   22.5480 O.2   131  ILE131     -0.2715
     62  CB        26.8250    9.3860   19.5920 C.3   131  ILE131      0.0290
     63  CG1       26.5050    8.8240   18.2140 C.3   131  ILE131      0.0022
     64  CG2       27.3570   10.8210   19.4310 C.3   131  ILE131      0.0023
     65  CD1       25.1180    9.1720   17.7370 C.3   131  ILE131      0.0001
     66  N         29.2380    9.7750   21.8910 N.am  132  SER132     -0.1936
     67  CA        29.5840   10.5450   23.0940 C.3   132  SER132      0.2055
     68  C         30.0750    9.7450   24.2890 C.2   132  SER132      0.2644
     69  O         30.5950   10.3420   25.2290 O.2   132  SER132     -0.2714
     70  CB        28.4400   11.4890   23.5490 C.3   132  SER132      0.2130
     71  OG        28.4470   12.6870   22.7980 O.3   132  SER132     -0.2179
     72  N         29.9400    8.4210   24.2440 N.am  133  SER133     -0.1935
     73  CA        30.2710    7.5520   25.3680 C.3   133  SER133      0.2055
     74  C         31.7520    7.2040   25.4680 C.2   133  SER133      0.2644
     75  O         32.1490    6.5240   26.4050 O.2   133  SER133     -0.2714
     76  CB        29.4520    6.2510   25.3000 C.3   133  SER133      0.2130
     77  OG        29.9660    5.3600   24.3090 O.3   133  SER133     -0.2179
     78  N         32.5640    7.6300   24.5050 N.am  134  GLY134     -0.1939
     79  CA        34.0010    7.3130   24.5330 C.3   134  GLY134      0.2014
     80  C         34.8160    8.5000   25.0010 C.2   134  GLY134      0.2639
     81  O         34.7470    8.8870   26.1480 O.2   134  GLY134     -0.2714
     82  N         35.5400    9.1070   24.0730 N.am  135  VAL135     -0.1963
     83  CA        36.2940   10.3320   24.3280 C.3   135  VAL135      0.1727
     84  C         35.4470   11.4560   24.9650 C.2   135  VAL135      0.2616
     85  O         35.9400   12.1890   25.8050 O.2   135  VAL135     -0.2715
     86  CB        36.9660   10.8360   23.0210 C.3   135  VAL135      0.0290
     87  CG1       37.6880   12.1760   23.2530 C.3   135  VAL135      0.0023
     88  CG2       37.9490    9.7690   22.4900 C.3   135  VAL135      0.0023
     89  N         34.1720   11.5780   24.6060 N.am  136  PHE136     -0.1974
     90  CA        33.3560   12.6660   25.1480 C.3   136  PHE136      0.1639
     91  C         32.7600   12.3950   26.5530 C.2   136  PHE136      0.2290
     92  O         32.0810   13.2710   27.1170 O.2   136  PHE136     -0.2864
     93  CB        32.2560   13.0740   24.1330 C.3   136  PHE136      0.0560
     94  CG        32.7620   13.8560   22.9090 C.ar  136  PHE136     -0.0200
     95  CD1       34.0820   14.2630   22.7770 C.ar  136  PHE136     -0.0042
     96  CD2       31.8670   14.2100   21.8950 C.ar  136  PHE136     -0.0042
     97  CE1       34.5060   14.9800   21.6560 C.ar  136  PHE136     -0.0003
     98  CE2       32.2800   14.9310   20.7870 C.ar  136  PHE136     -0.0003
     99  CZ        33.5950   15.3190   20.6620 C.ar  136  PHE136     -0.0000
    100  N         28.2790   -1.7500   18.8060 N.3   171  ASP171     -0.1225
    101  CA        29.5970   -1.4320   19.3370 C.3   171  ASP171      0.1805
    102  C         30.4500   -2.6930   19.2280 C.2   171  ASP171      0.2598
    103  O         29.9140   -3.7860   19.1590 O.2   171  ASP171     -0.2718
    104  CB        29.5150   -1.0020   20.8080 C.3   171  ASP171      0.1424
    105  CG        30.7970   -0.3150   21.2930 C.2   171  ASP171      0.3668
    106  OD1       30.9910    0.8580   20.9570 O.co2 171  ASP171     -0.2456
    107  OD2       31.6150   -0.9530   22.0030 O.co2 171  ASP171     -0.2456
    108  N         31.7690   -2.5450   19.1980 N.am  172  VAL172     -0.1966
    109  CA        32.6720   -3.7140   19.2440 C.3   172  VAL172      0.1727
    110  C         32.6840   -4.3920   20.6150 C.2   172  VAL172      0.2616
    111  O         33.0020   -5.5770   20.7140 O.2   172  VAL172     -0.2715
    112  CB        34.1390   -3.3350   18.9390 C.3   172  VAL172      0.0290
    113  CG1       34.2800   -2.7900   17.5310 C.3   172  VAL172      0.0023
    114  CG2       34.6460   -2.3210   19.9710 C.3   172  VAL172      0.0023
    115  N         32.3930   -3.6360   21.6710 N.am  173  SER173     -0.1950
    116  CA        32.4330   -4.1620   23.0400 C.3   173  SER173      0.1924
    117  C         31.1080   -4.7770   23.4900 C.2   173  SER173      0.2314
    118  O         30.0390   -4.1690   23.3760 O.2   173  SER173     -0.2863
    119  CB        32.7970   -3.0730   24.0420 C.3   173  SER173      0.2116
    120  OG        32.5750   -3.5680   25.3470 O.3   173  SER173     -0.2180
    121  N         29.0840   -2.5230   26.0470 N.3   176  THR176     -0.1218
    122  CA        28.2920   -1.4320   25.4690 C.3   176  THR176      0.1862
    123  C         27.0280   -1.9840   24.8100 C.2   176  THR176      0.2287
    124  O         25.9820   -1.4100   24.9610 O.2   176  THR176     -0.2866
    125  CB        29.1190   -0.5940   24.4720 C.3   176  THR176      0.1770
    126  OG1       30.1700    0.0560   25.1830 O.3   176  THR176     -0.2211
    127  CG2       28.2580    0.4860   23.7910 C.3   176  THR176      0.0375
@<TRIPOS>BOND
     1    44    43    2
     2     8     6   ar
     3    43    42    1
     4     4     3    2
     5    39    38    2
     6     6     7   ar
     7     6     5    1
     8     3     2    1
     9    42    41    1
    10    42    45    1
    11     5     2    1
    12    38    37    1
    13    19    18    1
    14     2     1    1
    15    18    15    1
    16    37    40    1
    17    37    36    1
    18    31    30    2
    19    34    33    1
    20    30    36   am
    21    30    29    1
    22     9    10    1
    23    15    14    1
    24    15    16    1
    25    14    11   am
    26    52    51    1
    27    52    46    1
    28    33    35    1
    29    33    32    1
    30    11    12    2
    31    11    10    1
    32    16    17    2
    33    10    13    1
    34    29    32    1
    35    29    28    1
    36    51    50    1
    37    27    26    2
    38    20    21    1
    39    46    47    1
    40    23    22    2
    41    50    47    1
    42    28    26   am
    43    26    25    1
    44   113   112    1
    45    22    21    1
    46    22    24   am
    47    65    63    1
    48    47    48    1
    49    63    62    1
    50    24    25    1
    51   100   101    1
    52   112   109    1
    53   112   114    1
    54    49    48    2
    55    48    53   am
    56   103   102    2
    57   108   102   am
    58   108   109    1
    59   102   101    1
    60   109   110    1
    61   101   104    1
    62    64    62    1
    63    62    59    1
    64    53    54    1
    65    59    58    1
    66    59    60    1
    67   110   111    2
    68   110   115   am
    69    58    55   am
    70    99    98   ar
    71    99    97   ar
    72    98    96   ar
    73   104   105    1
    74   106   105   ar
    75   105   107   ar
    76    54    55    1
    77    54    57    1
    78    55    56    2
    79    97    95   ar
    80   115   116    1
    81    60    66   am
    82    60    61    2
    83    66    67    1
    84    96    94   ar
    85    88    86    1
    86    95    94   ar
    87    71    70    1
    88    94    93    1
    89    86    87    1
    90    86    83    1
    91   116   117    1
    92   116   119    1
    93    67    70    1
    94    67    68    1
    95   118   117    2
    96   127   125    1
    97   119   120    1
    98    82    83    1
    99    82    80   am
   100    93    90    1
   101    72    68   am
   102    72    73    1
   103    68    69    2
   104    77    76    1
   105    83    84    1
   106   125   126    1
   107   125   122    1
   108    78    79    1
   109    78    74   am
   110    79    80    1
   111    89    84   am
   112    89    90    1
   113   123   124    2
   114   123   122    1
   115    84    85    2
   116    80    81    2
   117    90    91    1
   118    76    73    1
   119    73    74    1
   120    74    75    2
   121   122   121    1
   122    91    92    2
