@<TRIPOS>MOLECULE
tmp/4d8aA00.pdb
 93 88 0 0 0
SMALL
GASTEIGER

@<TRIPOS>ATOM
      1  N        -32.7930   23.9830   -3.4550 N.3    15  LEU15      -0.1231
      2  CA       -31.7850   24.9660   -3.8490 C.3    15  LEU15       0.1693
      3  C        -32.3730   26.2830   -4.3440 C.2    15  LEU15       0.2592
      4  O        -31.6400   27.2360   -4.6020 O.2    15  LEU15      -0.2718
      5  CB       -30.8800   24.3670   -4.9150 C.3    15  LEU15       0.0284
      6  CG       -30.1640   23.1090   -4.4390 C.3    15  LEU15       0.0019
      7  CD1      -29.5020   22.3970   -5.6000 C.3    15  LEU15       0.0001
      8  CD2      -29.1520   23.4750   -3.3620 C.3    15  LEU15       0.0001
      9  N        -33.6960   26.3410   -4.4530 N.am   16  ASN16      -0.1960
     10  CA       -34.3660   27.4710   -5.0900 C.3    16  ASN16       0.1819
     11  C        -35.0870   28.4380   -4.1480 C.2    16  ASN16       0.2621
     12  O        -35.1270   29.6430   -4.3930 O.2    16  ASN16      -0.2715
     13  CB       -35.3340   26.9490   -6.1510 C.3    16  ASN16       0.1195
     14  CG       -34.6090   26.2740   -7.3140 C.2    16  ASN16       0.2630
     15  OD1      -33.5950   26.7720   -7.7930 O.2    16  ASN16      -0.2716
     16  ND2      -35.1190   25.1280   -7.7510 N.am   16  ASN16      -0.0877
     17  N        -35.6520   27.9080   -3.0710 N.am   17  GLU17      -0.1963
     18  CA       -36.4930   28.7070   -2.1910 C.3    17  GLU17       0.1733
     19  C        -35.7270   29.6790   -1.2770 C.2    17  GLU17       0.2616
     20  O        -36.2510   30.7310   -0.9120 O.2    17  GLU17      -0.2715
     21  CB       -37.3980   27.7970   -1.3610 C.3    17  GLU17       0.0429
     22  CG       -36.6420   26.7550   -0.5480 C.3    17  GLU17       0.1163
     23  CD       -37.3990   26.3110    0.7080 C.2    17  GLU17       0.3649
     24  OE1      -38.5680   26.7310    0.8840 O.co2  17  GLU17      -0.2457
     25  OE2      -36.8140   25.5470    1.5140 O.co2  17  GLU17      -0.2457
     26  N        -34.5000   29.3340   -0.9050 N.am   18  LYS18      -0.1963
     27  CA       -33.7220   30.1960   -0.0240 C.3    18  LYS18       0.1728
     28  C        -32.2590   29.8090   -0.0150 C.2    18  LYS18       0.2616
     29  O        -31.9100   28.6780   -0.3190 O.2    18  LYS18      -0.2715
     30  CB       -34.2610   30.1170    1.4140 C.3    18  LYS18       0.0311
     31  CG       -34.1840   28.7310    2.0300 C.3    18  LYS18       0.0038
     32  CD       -34.7910   28.7270    3.4400 C.3    18  LYS18       0.0206
     33  CE       -34.9320   27.3200    4.0080 C.3    18  LYS18       0.1093
     34  NZ       -35.5360   27.3330    5.3840 N.3    18  LYS18      -0.1314
     35  N        -31.4060   30.7510    0.3670 N.am   19  THR19      -0.1951
     36  CA       -30.0140   30.4390    0.6630 C.3    19  THR19       0.1897
     37  C        -29.9330   29.4980    1.8620 C.2    19  THR19       0.2313
     38  O        -30.5640   29.7380    2.9040 O.2    19  THR19      -0.2863
     39  CB       -29.2220   31.7010    0.9610 C.3    19  THR19       0.1794
     40  OG1      -29.2720   32.5560   -0.1870 O.3    19  THR19      -0.2208
     41  CG2      -27.7650   31.3540    1.2850 C.3    19  THR19       0.0378
     42  N        -24.3540   35.9370   -1.8160 N.3   236  ILE236     -0.1245
     43  CA       -25.7220   35.6120   -2.1940 C.3   236  ILE236      0.1561
     44  C        -26.1270   36.3610   -3.4680 C.2   236  ILE236      0.2260
     45  O        -26.7390   35.7970   -4.3620 O.2   236  ILE236     -0.2867
     46  CB       -26.7120   35.8900   -1.0490 C.3   236  ILE236      0.0252
     47  CG1      -26.4420   34.9470    0.1290 C.3   236  ILE236      0.0019
     48  CG2      -28.1530   35.7300   -1.5230 C.3   236  ILE236      0.0019
     49  CD1      -27.3810   35.1710    1.2940 C.3   236  ILE236      0.0001
     50  N        -25.0100   34.6340   -6.5420 N.3   239  GLY239     -0.1210
     51  CA       -25.6170   33.3620   -6.8850 C.3   239  GLY239      0.1956
     52  C        -25.2990   32.1300   -6.0590 C.2   239  GLY239      0.2612
     53  O        -25.6980   31.0330   -6.4370 O.2   239  GLY239     -0.2717
     54  N        -24.6120   32.2730   -4.9300 N.am  240  CYS240     -0.1956
     55  CA       -24.2890   31.1150   -4.0940 C.3   240  CYS240      0.1843
     56  C        -25.5460   30.4870   -3.4830 C.2   240  CYS240      0.2625
     57  O        -26.4700   31.1970   -3.0880 O.2   240  CYS240     -0.2714
     58  CB       -23.2820   31.4970   -2.9990 C.3   240  CYS240      0.0997
     59  SG       -21.7120   32.1500   -3.6460 S.3   240  CYS240     -0.0797
     60  N        -25.5700   29.1540   -3.4150 N.am  241  GLU241     -0.1977
     61  CA       -26.6890   28.4260   -2.8440 C.3   241  GLU241      0.1602
     62  C        -26.5500   28.1240   -1.3320 C.2   241  GLU241      0.2287
     63  O        -27.5570   27.9290   -0.6660 O.2   241  GLU241     -0.2864
     64  CB       -26.9420   27.1270   -3.6070 C.3   241  GLU241      0.0415
     65  CG       -27.6800   27.3050   -4.9340 C.3   241  GLU241      0.1163
     66  CD       -26.8220   27.9620   -5.9930 C.2   241  GLU241      0.3649
     67  OE1      -27.3760   28.6930   -6.8490 O.co2 241  GLU241     -0.2457
     68  OE2      -25.5900   27.7490   -5.9590 O.co2 241  GLU241     -0.2457
     69  N        -32.2320   37.1340    0.1850 N.3   259  ASP259     -0.1225
     70  CA       -33.1820   36.3400   -0.5720 C.3   259  ASP259      0.1805
     71  C        -34.4090   37.1470   -0.9620 C.2   259  ASP259      0.2597
     72  O        -34.7840   37.1900   -2.1400 O.2   259  ASP259     -0.2718
     73  CB       -33.5980   35.0990    0.2140 C.3   259  ASP259      0.1424
     74  CG       -32.4600   34.1300    0.3820 C.2   259  ASP259      0.3668
     75  OD1      -32.6220   33.1350    1.1190 O.co2 259  ASP259     -0.2456
     76  OD2      -31.3910   34.3840   -0.2250 O.co2 259  ASP259     -0.2456
     77  N        -35.0320   37.7930    0.0180 N.am  260  ALA260     -0.1979
     78  CA       -36.2150   38.5900   -0.2740 C.3   260  ALA260      0.1597
     79  C        -35.9280   39.6450   -1.3330 C.2   260  ALA260      0.2287
     80  O        -36.7120   39.8320   -2.2590 O.2   260  ALA260     -0.2864
     81  CB       -36.7480   39.2350    0.9760 C.3   260  ALA260      0.0319
     82  N        -33.3290   39.9310   -3.6820 N.3   262  ILE262     -0.1231
     83  CA       -32.9010   39.4880   -5.0050 C.3   262  ILE262      0.1692
     84  C        -33.9880   38.6360   -5.6430 C.2   262  ILE262      0.2592
     85  O        -33.8210   38.1380   -6.7460 O.2   262  ILE262     -0.2718
     86  CB       -31.5620   38.6990   -4.9790 C.3   262  ILE262      0.0266
     87  CG1      -31.7400   37.3260   -4.3370 C.3   262  ILE262      0.0019
     88  CG2      -30.4660   39.4760   -4.2590 C.3   262  ILE262      0.0020
     89  CD1      -30.4740   36.5200   -4.3280 C.3   262  ILE262      0.0001
     90  N        -35.0960   38.4710   -4.9270 N.am  263  GLY263     -0.1957
     91  CA       -36.2540   37.7590   -5.4320 C.3   263  GLY263      0.1869
     92  C        -35.9510   36.3370   -5.8450 C.2   263  GLY263      0.2309
     93  O        -36.5670   35.4010   -5.3350 O.2   263  GLY263     -0.2863
@<TRIPOS>BOND
     1    15    14    2
     2    16    14   am
     3    14    13    1
     4    51    50    1
     5    51    52    1
     6    67    66   ar
     7    85    84    2
     8    53    52    2
     9    13    10    1
    10    52    54   am
    11    66    68   ar
    12    66    65    1
    13    92    91    1
    14    92    93    2
    15    84    83    1
    16    84    90   am
    17     7     6    1
    18    91    90    1
    19    10     9    1
    20    10    11    1
    21    83    86    1
    22    83    82    1
    23    86    87    1
    24    86    88    1
    25    65    64    1
    26    54    55    1
    27     5     6    1
    28     5     2    1
    29     4     3    2
    30     9     3   am
    31     6     8    1
    32    12    11    2
    33    45    44    2
    34     3     2    1
    35    87    89    1
    36    11    17   am
    37    55    56    1
    38    55    58    1
    39     2     1    1
    40    59    58    1
    41    64    61    1
    42    56    60   am
    43    56    57    2
    44    44    43    1
    45    60    61    1
    46    17    18    1
    47    61    62    1
    48    80    79    2
    49    43    42    1
    50    43    46    1
    51    18    21    1
    52    18    19    1
    53    72    71    2
    54    48    46    1
    55    21    22    1
    56    79    78    1
    57    62    63    2
    58    19    20    2
    59    19    26   am
    60    46    47    1
    61    71    70    1
    62    71    77   am
    63    26    27    1
    64    70    69    1
    65    70    73    1
    66    22    23    1
    67    29    28    2
    68    78    77    1
    69    78    81    1
    70    76    74   ar
    71    40    39    1
    72    27    28    1
    73    27    30    1
    74    28    35   am
    75    47    49    1
    76    73    74    1
    77    35    36    1
    78    74    75   ar
    79    36    39    1
    80    36    37    1
    81    23    24   ar
    82    23    25   ar
    83    39    41    1
    84    30    31    1
    85    37    38    2
    86    31    32    1
    87    32    33    1
    88    33    34    1
