@<TRIPOS>MOLECULE
tmp/4d8aA01.pdb
 125 112 0 0 0
SMALL
GASTEIGER

@<TRIPOS>ATOM
      1  N        -21.2760   26.0080   11.4160 N.3    24  ILE24      -0.1245
      2  CA       -19.9940   25.4020   11.7830 C.3    24  ILE24       0.1561
      3  C        -19.9560   24.9500   13.2570 C.2    24  ILE24       0.2260
      4  O        -19.9650   25.7920   14.1830 O.2    24  ILE24      -0.2867
      5  CB       -18.8330   26.3910   11.5940 C.3    24  ILE24       0.0252
      6  CG1      -18.7990   26.9390   10.1720 C.3    24  ILE24       0.0019
      7  CG2      -17.5260   25.7140   11.9290 C.3    24  ILE24       0.0019
      8  CD1      -17.6590   27.9140    9.9340 C.3    24  ILE24       0.0001
      9  N        -16.3920   18.7270   11.8680 N.3    62  GLY62      -0.1225
     10  CA       -15.0400   18.2680   11.6220 C.3    62  GLY62       0.1811
     11  C        -14.0410   19.0030   12.4920 C.2    62  GLY62       0.2280
     12  O        -13.8780   20.2230   12.3710 O.2    62  GLY62      -0.2866
     13  N        -16.6510   17.3090    7.6750 N.3    91  ASP91      -0.1239
     14  CA       -15.5730   18.1550    7.1930 C.3    91  ASP91       0.1674
     15  C        -14.2760   17.3680    7.2210 C.2    91  ASP91       0.2266
     16  O        -13.5410   17.4290    8.1990 O.2    91  ASP91      -0.2867
     17  CB       -15.4400   19.3890    8.0930 C.3    91  ASP91       0.1410
     18  CG       -14.4530   20.4140    7.5480 C.2    91  ASP91       0.3668
     19  OD1      -14.3600   21.5190    8.1300 O.co2  91  ASP91      -0.2456
     20  OD2      -13.7760   20.1240    6.5370 O.co2  91  ASP91      -0.2456
     21  N        -17.6660   16.9340    2.9310 N.3   110  ASN110     -0.1240
     22  CA       -17.1270   18.2770    2.7810 C.3   110  ASN110      0.1653
     23  C        -15.5900   18.2590    2.7040 C.2   110  ASN110      0.2266
     24  O        -14.8980   18.2760    3.7340 O.2   110  ASN110     -0.2867
     25  CB       -17.6140   19.1510    3.9420 C.3   110  ASN110      0.1155
     26  CG       -17.1500   20.5860    3.8290 C.2   110  ASN110      0.2627
     27  OD1      -16.8940   21.0800    2.7180 O.2   110  ASN110     -0.2716
     28  ND2      -17.0290   21.2740    4.9820 N.am  110  ASN110     -0.0877
     29  N        -12.1980   19.9230    1.8190 N.3   112  ILE112     -0.1245
     30  CA       -11.4110   21.1330    1.5580 C.3   112  ILE112      0.1561
     31  C        -10.2970   20.9600    0.5100 C.2   112  ILE112      0.2260
     32  O         -9.6730   21.9470    0.0850 O.2   112  ILE112     -0.2867
     33  CB       -10.7700   21.7060    2.8340 C.3   112  ILE112      0.0252
     34  CG1      -10.0210   20.6110    3.6000 C.3   112  ILE112      0.0019
     35  CG2      -11.8160   22.3930    3.6950 C.3   112  ILE112      0.0019
     36  CD1       -8.8100   21.1320    4.3480 C.3   112  ILE112      0.0001
     37  N        -18.9760   18.2610   -1.4030 N.3   133  ILE133     -0.1245
     38  CA       -18.5290   19.6180   -1.6370 C.3   133  ILE133      0.1561
     39  C        -17.0620   19.5720   -2.0170 C.2   133  ILE133      0.2260
     40  O        -16.2310   19.1110   -1.2360 O.2   133  ILE133     -0.2867
     41  CB       -18.6760   20.4700   -0.3580 C.3   133  ILE133      0.0252
     42  CG1      -20.1540   20.6790   -0.0170 C.3   133  ILE133      0.0019
     43  CG2      -17.9590   21.7920   -0.5110 C.3   133  ILE133      0.0019
     44  CD1      -20.4160   20.8140    1.4870 C.3   133  ILE133      0.0001
     45  N        -13.9810   21.7730   -2.6280 N.3   135  MET135     -0.1245
     46  CA       -13.4850   23.1280   -2.4480 C.3   135  MET135      0.1570
     47  C        -12.2210   23.3700   -3.2640 C.2   135  MET135      0.2261
     48  O        -11.4030   22.4680   -3.4480 O.2   135  MET135     -0.2867
     49  CB       -13.1920   23.4020   -0.9850 C.3   135  MET135      0.0387
     50  CG       -12.8890   24.8610   -0.6880 C.3   135  MET135      0.0595
     51  SD       -12.4140   25.1500    1.0380 S.3   135  MET135     -0.1393
     52  CE       -10.6700   24.7780    0.9810 C.3   135  MET135      0.0692
     53  N        -16.9290   25.0170   -4.0130 N.3   174  ASP174     -0.1239
     54  CA       -16.5710   26.0070   -3.0050 C.3   174  ASP174      0.1674
     55  C        -15.3300   26.7630   -3.4870 C.2   174  ASP174      0.2266
     56  O        -14.3120   26.1490   -3.8020 O.2   174  ASP174     -0.2867
     57  CB       -16.3050   25.2820   -1.6680 C.3   174  ASP174      0.1410
     58  CG       -16.0600   26.2340   -0.5030 C.2   174  ASP174      0.3668
     59  OD1      -16.5540   25.9420    0.6050 O.co2 174  ASP174     -0.2456
     60  OD2      -15.3690   27.2600   -0.6740 O.co2 174  ASP174     -0.2456
     61  N        -13.1280   28.1770   -1.9540 N.3   176  GLY176     -0.1210
     62  CA       -11.9820   28.0610   -1.0720 C.3   176  GLY176      0.1956
     63  C        -11.3570   29.3960   -0.7060 C.2   176  GLY176      0.2611
     64  O        -10.1320   29.5430   -0.7140 O.2   176  GLY176     -0.2717
     65  N        -12.1980   30.3840   -0.4090 N.am  177  ILE177     -0.1979
     66  CA       -11.7390   31.6420    0.1730 C.3   177  ILE177      0.1595
     67  C        -10.9200   31.3710    1.4370 C.2   177  ILE177      0.2287
     68  O        -11.2760   30.5030    2.2380 O.2   177  ILE177     -0.2864
     69  CB       -12.9330   32.5060    0.5960 C.3   177  ILE177      0.0276
     70  CG1      -13.8510   32.7920   -0.6000 C.3   177  ILE177      0.0022
     71  CG2      -12.4570   33.7820    1.2940 C.3   177  ILE177      0.0022
     72  CD1      -13.1450   33.3530   -1.8230 C.3   177  ILE177      0.0001
     73  N         -7.9830   30.1780    1.4730 N.3   179  PHE179     -0.1241
     74  CA        -7.0500   29.0920    1.1810 C.3   179  PHE179      0.1605
     75  C         -6.2090   29.4050   -0.0420 C.2   179  PHE179      0.2264
     76  O         -6.7450   29.8010   -1.0770 O.2   179  PHE179     -0.2867
     77  CB        -7.7970   27.7870    0.9100 C.3   179  PHE179      0.0534
     78  CG        -8.5630   27.2690    2.0840 C.ar  179  PHE179     -0.0203
     79  CD1       -9.8160   27.7820    2.3870 C.ar  179  PHE179     -0.0042
     80  CD2       -8.0410   26.2560    2.8760 C.ar  179  PHE179     -0.0042
     81  CE1      -10.5340   27.2980    3.4660 C.ar  179  PHE179     -0.0003
     82  CE2       -8.7520   25.7690    3.9610 C.ar  179  PHE179     -0.0003
     83  CZ       -10.0000   26.2870    4.2530 C.ar  179  PHE179     -0.0000
     84  N        -21.1630   26.7270   -2.6050 N.3   204  LEU204     -0.1245
     85  CA       -21.1430   27.0360   -1.1830 C.3   204  LEU204      0.1561
     86  C        -20.0320   28.0270   -0.8980 C.2   204  LEU204      0.2260
     87  O        -18.9010   27.8480   -1.3600 O.2   204  LEU204     -0.2867
     88  CB       -20.9060   25.7590   -0.3980 C.3   204  LEU204      0.0270
     89  CG       -20.7800   25.8250    1.1240 C.3   204  LEU204      0.0019
     90  CD1      -21.3370   24.5390    1.6630 C.3   204  LEU204      0.0001
     91  CD2      -19.3290   26.0170    1.5060 C.3   204  LEU204      0.0001
     92  N        -17.6400   29.9350    1.9330 N.3   206  GLY206     -0.1225
     93  CA       -17.1230   29.7570    3.2830 C.3   206  GLY206      0.1811
     94  C        -16.1150   30.8310    3.6360 C.2   206  GLY206      0.2280
     95  O        -14.9170   30.6770    3.3970 O.2   206  GLY206     -0.2866
     96  N        -13.0130   34.8340    8.5570 N.3   210  LYS210     -0.1245
     97  CA       -11.6870   34.5650    8.0130 C.3   210  LYS210      0.1561
     98  C        -10.7120   35.7370    8.1030 C.2   210  LYS210      0.2260
     99  O        -11.0980   36.9010    8.2470 O.2   210  LYS210     -0.2867
    100  CB       -11.7780   34.0720    6.5630 C.3   210  LYS210      0.0271
    101  CG       -12.2190   32.6200    6.4220 C.3   210  LYS210      0.0035
    102  CD       -11.2750   31.8550    5.5050 C.3   210  LYS210      0.0206
    103  CE       -11.5890   30.3740    5.4830 C.3   210  LYS210      0.1093
    104  NZ       -12.9100   30.1290    4.8640 N.3   210  LYS210     -0.1314
    105  N        -21.4120   28.8610    4.6430 N.3   244  ARG244     -0.1245
    106  CA       -20.8960   28.1600    5.8080 C.3   244  ARG244      0.1563
    107  C        -20.4220   29.1760    6.8480 C.2   244  ARG244      0.2260
    108  O        -19.4540   29.9050    6.6090 O.2   244  ARG244     -0.2867
    109  CB       -19.7420   27.2650    5.3870 C.3   244  ARG244      0.0307
    110  CG       -19.1180   26.4980    6.5340 C.3   244  ARG244      0.0489
    111  CD       -18.0160   25.6200    6.0150 C.3   244  ARG244      0.2205
    112  NE       -17.3550   24.8630    7.0600 N.pl3 244  ARG244     -0.0865
    113  CZ       -16.3610   25.3330    7.8040 C.cat 244  ARG244      0.5346
    114  NH1      -15.9280   26.5710    7.6200 N.pl3 244  ARG244      0.1354
    115  NH2      -15.8080   24.5670    8.7350 N.pl3 244  ARG244      0.1354
    116  N        -20.2830   30.7340   11.2670 N.3   246  HIS246     -0.1241
    117  CA       -20.2990   30.4990   12.7200 C.3   246  HIS246      0.1621
    118  C        -21.5190   31.1520   13.3500 C.2   246  HIS246      0.2264
    119  O        -22.2360   30.5310   14.1240 O.2   246  HIS246     -0.2867
    120  CB       -19.0550   31.0720   13.3890 C.3   246  HIS246      0.0745
    121  CG       -17.7760   30.4360   12.9520 C.ar  246  HIS246      0.0817
    122  ND1      -17.0540   30.8850   11.8660 N.ar  246  HIS246     -0.2268
    123  CD2      -17.0780   29.3940   13.4640 C.ar  246  HIS246      0.1154
    124  CE1      -15.9670   30.1460   11.7270 C.ar  246  HIS246      0.1986
    125  NE2      -15.9550   29.2360   12.6870 N.ar  246  HIS246     -0.2212
@<TRIPOS>BOND
     1    53    54    1
     2    56    55    2
     3    55    54    1
     4    48    47    2
     5    47    46    1
     6    54    57    1
     7    45    46    1
     8    84    85    1
     9    46    49    1
    10    39    38    1
    11    39    40    2
    12    61    62    1
    13    72    70    1
    14    57    58    1
    15    38    37    1
    16    38    41    1
    17    87    86    2
    18    85    86    1
    19    85    88    1
    20    76    75    2
    21    62    63    1
    22    49    50    1
    23    64    63    2
    24    63    65   am
    25    50    51    1
    26    60    58   ar
    27    70    69    1
    28    43    41    1
    29    58    59   ar
    30    65    66    1
    31    88    89    1
    32    41    42    1
    33    75    74    1
    34    42    44    1
    35    32    31    2
    36    66    69    1
    37    66    67    1
    38    31    30    1
    39    69    71    1
    40    77    74    1
    41    77    78    1
    42    52    51    1
    43    89    91    1
    44    89    90    1
    45    74    73    1
    46    67    68    2
    47    30    29    1
    48    30    33    1
    49    92    93    1
    50    78    79   ar
    51    78    80   ar
    52    79    81   ar
    53    23    22    1
    54    23    24    2
    55    27    26    2
    56    22    21    1
    57    22    25    1
    58    33    34    1
    59    33    35    1
    60    80    82   ar
    61    93    94    1
    62    95    94    2
    63    81    83   ar
    64    34    36    1
    65    26    25    1
    66    26    28   am
    67    82    83   ar
    68   105   106    1
    69   104   103    1
    70   109   106    1
    71   109   110    1
    72   103   102    1
    73   102   101    1
    74   106   107    1
    75   111   110    1
    76   111   112    1
    77   101   100    1
    78    20    18   ar
    79   100    97    1
    80   108   107    2
    81   112   113    2
    82    14    15    1
    83    14    13    1
    84    14    17    1
    85    15    16    2
    86    18    17    1
    87    18    19   ar
    88   114   113    1
    89   113   115    1
    90    97    98    1
    91    97    96    1
    92    98    99    2
    93     8     6    1
    94     6     5    1
    95   116   117    1
    96     1     2    1
    97     5     2    1
    98     5     7    1
    99    10     9    1
   100    10    11    1
   101   124   122   ar
   102   124   125   ar
   103     2     3    1
   104   122   121   ar
   105    12    11    2
   106   125   123   ar
   107   117   118    1
   108   117   120    1
   109   121   120    1
   110   121   123   ar
   111     3     4    2
   112   118   119    2
