@<TRIPOS>MOLECULE
tmp/4d8iA00.pdb
 112 107 0 0 0
SMALL
GASTEIGER

@<TRIPOS>ATOM
      1  N         23.2460  -14.3360    1.4830 N.3    17  GLN17      -0.1245
      2  CA        22.2880  -15.4070    1.1110 C.3    17  GLN17       0.1566
      3  C         22.8660  -16.7910    1.0190 C.2    17  GLN17       0.2260
      4  O         22.0920  -17.7360    0.8110 O.2    17  GLN17      -0.2867
      5  CB        21.6560  -15.0880   -0.2460 C.3    17  GLN17       0.0367
      6  CG        20.8120  -13.8240   -0.2200 C.3    17  GLN17       0.0905
      7  CD        20.0780  -13.7500   -1.5180 C.2    17  GLN17       0.2608
      8  OE1       19.4900  -14.7670   -1.9680 O.2    17  GLN17      -0.2717
      9  NE2       20.1380  -12.5960   -2.1790 N.am   17  GLN17      -0.0878
     10  N         16.9320  -12.7890   -1.2790 N.3    47  CYS47      -0.1221
     11  CA        17.1590  -11.4320   -0.7780 C.3    47  CYS47       0.1808
     12  C         16.0430  -10.9180    0.1270 C.2    47  CYS47       0.2601
     13  O         16.3030  -10.1110    1.0170 O.2    47  CYS47      -0.2717
     14  CB        17.3310  -10.4880   -1.9680 C.3    47  CYS47       0.0970
     15  SG        15.9120  -10.4970   -3.1550 S.3    47  CYS47      -0.0800
     16  N         14.8070  -11.3560   -0.0890 N.am   48  VAL48      -0.1979
     17  CA        13.7150  -10.8870    0.7930 C.3    48  VAL48       0.1595
     18  C         13.9180  -11.3930    2.2190 C.2    48  VAL48       0.2287
     19  O         13.7200  -10.6380    3.2010 O.2    48  VAL48      -0.2864
     20  CB        12.3530  -11.3400    0.2000 C.3    48  VAL48       0.0276
     21  CG1       11.1970  -11.0550    1.1240 C.3    48  VAL48       0.0022
     22  CG2       12.1170  -10.6020   -1.1700 C.3    48  VAL48       0.0022
     23  N          6.8310  -17.3220    1.4260 N.3   128  ASP128     -0.1225
     24  CA         6.5430  -18.1990    0.2420 C.3   128  ASP128      0.1805
     25  C          7.6860  -18.2030   -0.7540 C.2   128  ASP128      0.2598
     26  O          7.4990  -18.0570   -1.9810 O.2   128  ASP128     -0.2718
     27  CB         5.2280  -17.8020   -0.4650 C.3   128  ASP128      0.1424
     28  CG         4.0100  -17.9520    0.4330 C.2   128  ASP128      0.3668
     29  OD1        3.9340  -17.2080    1.4290 O.co2 128  ASP128     -0.2456
     30  OD2        3.0940  -18.7300    0.1070 O.co2 128  ASP128     -0.2456
     31  N          8.8880  -18.4350   -0.2690 N.am  129  MET129     -0.1965
     32  CA        10.0780  -18.3280   -1.0950 C.3   129  MET129      0.1736
     33  C         10.1020  -19.3750   -2.2010 C.2   129  MET129      0.2616
     34  O          9.8810  -20.5910   -1.9730 O.2   129  MET129     -0.2715
     35  CB        11.3330  -18.4640   -0.1910 C.3   129  MET129      0.0427
     36  CG        12.6930  -18.0880   -0.8260 C.3   129  MET129      0.0599
     37  SD        12.7410  -16.3340   -1.3400 S.3   129  MET129     -0.1393
     38  CE        12.8310  -15.6020    0.2620 C.3   129  MET129      0.0692
     39  N         10.4020  -18.8890   -3.4020 N.am  130  ASP130     -0.1971
     40  CA        10.5530  -19.7740   -4.5570 C.3   130  ASP130      0.1709
     41  C         12.0330  -20.1700   -4.6220 C.2   130  ASP130      0.2293
     42  O         12.8560  -19.4980   -5.2570 O.2   130  ASP130     -0.2864
     43  CB        10.0830  -19.0710   -5.8120 C.3   130  ASP130      0.1436
     44  CG        10.0580  -19.9650   -7.0360 C.2   130  ASP130      0.3671
     45  OD1        9.7160  -21.1590   -6.9580 O.co2 130  ASP130     -0.2456
     46  OD2       10.3960  -19.4480   -8.1070 O.co2 130  ASP130     -0.2456
     47  N         19.1850  -19.0690   -7.0980 N.3   134  SER134     -0.1202
     48  CA        18.6800  -17.8020   -6.6360 C.3   134  SER134      0.2020
     49  C         17.2530  -18.1000   -6.1600 C.2   134  SER134      0.2619
     50  O         16.5860  -19.0310   -6.6610 O.2   134  SER134     -0.2717
     51  CB        18.7140  -16.7200   -7.7380 C.3   134  SER134      0.2103
     52  OG        17.9330  -17.0830   -8.8700 O.3   134  SER134     -0.2182
     53  N         16.7870  -17.3140   -5.2050 N.am  135  SER135     -0.1937
     54  CA        15.4730  -17.5690   -4.5730 C.3   135  SER135      0.2055
     55  C         14.6330  -16.3030   -4.5610 C.2   135  SER135      0.2644
     56  O         15.1030  -15.2800   -3.9970 O.2   135  SER135     -0.2714
     57  CB        15.6670  -18.0570   -3.1420 C.3   135  SER135      0.2130
     58  OG        16.3820  -19.2890   -3.1860 O.3   135  SER135     -0.2179
     59  N         13.4050  -16.3650   -5.0850 N.am  136  GLY136     -0.1939
     60  CA        12.5990  -15.1500   -5.1430 C.3   136  GLY136      0.2014
     61  C         11.2800  -15.2280   -4.4200 C.2   136  GLY136      0.2640
     62  O         10.7230  -16.3130   -4.2120 O.2   136  GLY136     -0.2714
     63  N         10.7720  -14.0590   -4.0390 N.am  137  SER137     -0.1935
     64  CA         9.5130  -13.9120   -3.3170 C.3   137  SER137      0.2055
     65  C          8.7740  -12.7220   -3.8480 C.2   137  SER137      0.2642
     66  O          9.3650  -11.8340   -4.4980 O.2   137  SER137     -0.2714
     67  CB         9.8300  -13.7470   -1.8080 C.3   137  SER137      0.2130
     68  OG         8.6890  -13.3260   -1.0690 O.3   137  SER137     -0.2179
     69  N          7.4630  -12.6530   -3.5890 N.am  138  ALA138     -0.1977
     70  CA         6.7040  -11.4210   -3.8880 C.3   138  ALA138      0.1597
     71  C          7.1810  -10.2120   -3.0530 C.2   138  ALA138      0.2287
     72  O          6.9800   -9.0620   -3.4580 O.2   138  ALA138     -0.2864
     73  CB         5.1900  -11.6450   -3.7000 C.3   138  ALA138      0.0319
     74  N         12.2270   -2.5700   -1.7640 N.3   187  GLN187     -0.1231
     75  CA        12.4820   -3.3490   -2.9710 C.3   187  GLN187      0.1698
     76  C         12.1120   -2.5540   -4.1910 C.2   187  GLN187      0.2593
     77  O         11.3660   -1.5620   -4.1300 O.2   187  GLN187     -0.2718
     78  CB        11.6710   -4.6580   -2.9220 C.3   187  GLN187      0.0381
     79  CG        10.1570   -4.4580   -3.0930 C.3   187  GLN187      0.0905
     80  CD         9.3470   -5.7400   -2.9370 C.2   187  GLN187      0.2608
     81  OE1        9.6070   -6.5460   -2.0120 O.2   187  GLN187     -0.2717
     82  NE2        8.3330   -5.9180   -3.7730 N.am  187  GLN187     -0.0878
     83  N         12.6340   -3.0370   -5.3120 N.am  188  GLY188     -0.1942
     84  CA        12.3040   -2.5020   -6.6090 C.3   188  GLY188      0.2014
     85  C         12.7610   -3.4080   -7.7170 C.2   188  GLY188      0.2638
     86  O         13.4460   -4.4400   -7.5200 O.2   188  GLY188     -0.2714
     87  N         12.4020   -3.0040   -8.9190 N.am  189  VAL189     -0.1977
     88  CA        12.6100   -3.8250  -10.1060 C.3   189  VAL189      0.1596
     89  C         13.1920   -2.9520  -11.2110 C.2   189  VAL189      0.2287
     90  O         12.9320   -1.7310  -11.2480 O.2   189  VAL189     -0.2864
     91  CB        11.2840   -4.4530  -10.5730 C.3   189  VAL189      0.0276
     92  CG1       11.5180   -5.3910  -11.7400 C.3   189  VAL189      0.0022
     93  CG2       10.6010   -5.2190   -9.4000 C.3   189  VAL189      0.0022
     94  N         14.8210   -7.8790   -9.9900 N.3   194  GLY194     -0.1210
     95  CA        14.1860   -7.3910   -8.7770 C.3   194  GLY194      0.1956
     96  C         14.9990   -7.7750   -7.5640 C.2   194  GLY194      0.2612
     97  O         15.5980   -8.8610   -7.5200 O.2   194  GLY194     -0.2717
     98  N         15.0470   -6.9010   -6.5660 N.am  195  HIS195     -0.1961
     99  CA        15.8670   -7.1440   -5.3680 C.3   195  HIS195      0.1787
    100  C         15.2580   -6.4220   -4.1960 C.2   195  HIS195      0.2620
    101  O         14.5750   -5.3980   -4.3670 O.2   195  HIS195     -0.2715
    102  CB        17.2940   -6.6150   -5.6280 C.3   195  HIS195      0.0785
    103  CG        18.3040   -6.9830   -4.5730 C.ar  195  HIS195      0.0821
    104  ND1       18.5900   -8.2810   -4.2430 N.ar  195  HIS195     -0.2267
    105  CD2       19.1090   -6.2010   -3.8010 C.ar  195  HIS195      0.1154
    106  CE1       19.5110   -8.2910   -3.2890 C.ar  195  HIS195      0.1986
    107  NE2       19.8350   -7.0470   -3.0010 N.ar  195  HIS195     -0.2212
    108  N         15.4960   -6.9800   -3.0050 N.am  196  ALA196     -0.1977
    109  CA        15.0800   -6.4490   -1.6880 C.3   196  ALA196      0.1597
    110  C         16.3310   -6.1260   -0.8790 C.2   196  ALA196      0.2287
    111  O         17.3600   -6.8050   -1.0140 O.2   196  ALA196     -0.2864
    112  CB        14.2360   -7.4530   -0.9350 C.3   196  ALA196      0.0319
@<TRIPOS>BOND
     1    92    91    1
     2    90    89    2
     3    89    88    1
     4    91    88    1
     5    91    93    1
     6    88    87    1
     7    94    95    1
     8    87    85   am
     9    52    51    1
    10    95    96    1
    11    46    44   ar
    12    51    48    1
    13    85    86    2
    14    85    84    1
    15    96    97    2
    16    96    98   am
    17    47    48    1
    18    44    45   ar
    19    44    43    1
    20    50    49    2
    21    48    49    1
    22    84    83    1
    23    98    99    1
    24    49    53   am
    25    43    40    1
    26   102    99    1
    27   102   103    1
    28    99   100    1
    29    83    76   am
    30    42    41    2
    31    53    54    1
    32    60    59    1
    33    60    61    1
    34    59    55   am
    35    41    40    1
    36    54    55    1
    37    54    57    1
    38   103   104   ar
    39   103   105   ar
    40    55    56    2
    41    40    39    1
    42    66    65    2
    43    61    62    2
    44    61    63   am
    45   101   100    2
    46   104   106   ar
    47   100   108   am
    48    76    77    2
    49    76    75    1
    50    63    64    1
    51    70    73    1
    52    70    69    1
    53    70    71    1
    54    65    69   am
    55    65    64    1
    56   105   107   ar
    57    82    80   am
    58    72    71    2
    59    39    33   am
    60    64    67    1
    61   106   107   ar
    62    58    57    1
    63    15    14    1
    64    79    80    1
    65    79    78    1
    66   108   109    1
    67    75    78    1
    68    75    74    1
    69    80    81    2
    70    33    34    2
    71    33    32    1
    72     9     7   am
    73    26    25    2
    74     8     7    2
    75    14    11    1
    76    67    68    1
    77   109   112    1
    78   109   110    1
    79     7     6    1
    80    37    36    1
    81    37    38    1
    82    10    11    1
    83    22    20    1
    84    32    31    1
    85    32    35    1
    86   111   110    2
    87    36    35    1
    88    11    12    1
    89    25    31   am
    90    25    24    1
    91    27    24    1
    92    27    28    1
    93     5     6    1
    94     5     2    1
    95    16    12   am
    96    16    17    1
    97    30    28   ar
    98    12    13    2
    99    20    17    1
   100    20    21    1
   101    24    23    1
   102    28    29   ar
   103    17    18    1
   104     4     3    2
   105     3     2    1
   106     2     1    1
   107    18    19    2
