@<TRIPOS>MOLECULE
tmp/4d8nA00.pdb
 155 151 0 0 0
SMALL
GASTEIGER

@<TRIPOS>ATOM
      1  N         30.3620   -2.0480   39.0230 N.3    25  LEU25      -0.1231
      2  CA        29.8490   -1.2800   37.8940 C.3    25  LEU25       0.1693
      3  C         28.7010   -0.3790   38.3330 C.2    25  LEU25       0.2592
      4  O         28.6460    0.8010   37.9780 O.2    25  LEU25      -0.2718
      5  CB        29.3640   -2.2290   36.7970 C.3    25  LEU25       0.0284
      6  CG        28.5090   -1.6300   35.6800 C.3    25  LEU25       0.0019
      7  CD1       29.2970   -0.5620   34.9380 C.3    25  LEU25       0.0001
      8  CD2       28.0810   -2.7320   34.7240 C.3    25  LEU25       0.0001
      9  N         27.7850   -0.9420   39.1100 N.am   26  CYS26      -0.1970
     10  CA        26.5410   -0.2580   39.4420 C.3    26  CYS26       0.1712
     11  C         25.8770   -0.8520   40.6690 C.2    26  CYS26       0.2296
     12  O         26.2410   -1.9370   41.1230 O.2    26  CYS26      -0.2864
     13  CB        25.5600   -0.3460   38.2750 C.3    26  CYS26       0.0983
     14  SG        25.9150    0.7970   36.9270 S.3    26  CYS26      -0.0798
     15  N         21.5810    2.3760   31.7380 N.3    41  HIS41      -0.1241
     16  CA        22.9520    2.6660   31.3330 C.3    41  HIS41       0.1621
     17  C         23.9660    1.7660   32.0350 C.2    41  HIS41       0.2264
     18  O         25.1690    1.8810   31.8120 O.2    41  HIS41      -0.2867
     19  CB        23.2940    4.1560   31.5390 C.3    41  HIS41       0.0745
     20  CG        23.4520    4.5740   32.9690 C.ar   41  HIS41       0.0817
     21  ND1       22.4390    5.1770   33.6850 N.ar   41  HIS41      -0.2268
     22  CD2       24.5330    4.5680   33.7860 C.ar   41  HIS41       0.1154
     23  CE1       22.8890    5.5270   34.8770 C.ar   41  HIS41       0.1986
     24  NE2       24.1580    5.1700   34.9640 N.ar   41  HIS41      -0.2212
     25  N         14.0420    3.7220   26.1930 N.3    77  TYR77      -0.1241
     26  CA        15.1950    4.3370   26.8500 C.3    77  TYR77       0.1605
     27  C         15.9520    5.2450   25.8850 C.2    77  TYR77       0.2264
     28  O         16.3230    4.8260   24.7880 O.2    77  TYR77      -0.2867
     29  CB        16.1400    3.2560   27.3810 C.3    77  TYR77       0.0534
     30  CG        17.4910    3.7740   27.8340 C.ar   77  TYR77      -0.0201
     31  CD1       17.5900    4.7630   28.8070 C.ar   77  TYR77      -0.0009
     32  CD2       18.6700    3.2590   27.3010 C.ar   77  TYR77      -0.0009
     33  CE1       18.8260    5.2240   29.2380 C.ar   77  TYR77       0.0417
     34  CE2       19.9110    3.7130   27.7270 C.ar   77  TYR77       0.0417
     35  CZ        19.9830    4.6960   28.6960 C.ar   77  TYR77       0.1957
     36  OH        21.2110    5.1440   29.1370 O.3    77  TYR77      -0.2866
     37  N         19.3060    7.2470   25.6910 N.3    79  ALA79      -0.1245
     38  CA        20.5920    7.3250   26.3750 C.3    79  ALA79       0.1562
     39  C         21.1120    8.7490   26.5430 C.2    79  ALA79       0.2260
     40  O         21.7580    9.0620   27.5420 O.2    79  ALA79      -0.2867
     41  CB        21.6220    6.4780   25.6340 C.3    79  ALA79       0.0290
     42  N         18.7180   10.3490   29.2100 N.3    82  HIS82      -0.1241
     43  CA        18.4710    9.4690   30.3490 C.3    82  HIS82       0.1621
     44  C         16.9820    9.2230   30.5900 C.2    82  HIS82       0.2264
     45  O         16.5940    8.7180   31.6460 O.2    82  HIS82      -0.2867
     46  CB        19.1190   10.0490   31.6150 C.3    82  HIS82       0.0745
     47  CG        20.5140   10.5520   31.3970 C.ar   82  HIS82       0.0817
     48  ND1       21.5450    9.7350   30.9870 N.ar   82  HIS82      -0.2268
     49  CD2       21.0350   11.8000   31.4850 C.ar   82  HIS82       0.1154
     50  CE1       22.6410   10.4570   30.8280 C.ar   82  HIS82       0.1986
     51  NE2       22.3570   11.7130   31.1240 N.ar   82  HIS82      -0.2212
     52  N         24.4160   13.2320   48.0700 N.3   170  ASP170     -0.1225
     53  CA        24.1330   12.9960   46.6580 C.3   170  ASP170      0.1805
     54  C         24.6900   11.6350   46.2490 C.2   170  ASP170      0.2598
     55  O         25.6330   11.1310   46.8600 O.2   170  ASP170     -0.2718
     56  CB        24.7810   14.1080   45.8170 C.3   170  ASP170      0.1424
     57  CG        24.2560   14.1660   44.3890 C.2   170  ASP170      0.3668
     58  OD1       23.1850   13.5780   44.1020 O.co2 170  ASP170     -0.2456
     59  OD2       24.9270   14.8120   43.5490 O.co2 170  ASP170     -0.2456
     60  N         24.0940   11.0400   45.2210 N.am  171  SER171     -0.1938
     61  CA        24.6230    9.8120   44.6400 C.3   171  SER171      0.2055
     62  C         25.8450   10.1680   43.8030 C.2   171  SER171      0.2643
     63  O         26.0420   11.3310   43.4610 O.2   171  SER171     -0.2714
     64  CB        23.5580    9.1480   43.7670 C.3   171  SER171      0.2130
     65  OG        22.9780   10.0940   42.8820 O.3   171  SER171     -0.2179
     66  N         26.6680    9.1740   43.4850 N.am  172  CYS172     -0.1953
     67  CA        27.9100    9.4300   42.7590 C.3   172  CYS172      0.1843
     68  C         28.2900    8.2390   41.8840 C.2   172  CYS172      0.2625
     69  O         27.5420    7.2670   41.7870 O.2   172  CYS172     -0.2714
     70  CB        29.0400    9.7370   43.7500 C.3   172  CYS172      0.0997
     71  SG        30.4410   10.6650   43.0590 S.3   172  CYS172     -0.0797
     72  N         29.4530    8.3250   41.2430 N.am  173  GLN173     -0.1963
     73  CA        29.8830    7.2940   40.3100 C.3   173  GLN173      0.1733
     74  C         30.0150    5.9450   41.0110 C.2   173  GLN173      0.2617
     75  O         30.7300    5.8180   42.0000 O.2   173  GLN173     -0.2715
     76  CB        31.2250    7.6810   39.6790 C.3   173  GLN173      0.0408
     77  CG        31.7950    6.6100   38.7550 C.3   173  GLN173      0.0908
     78  CD        33.2290    6.8900   38.3450 C.2   173  GLN173      0.2608
     79  OE1       33.7070    8.0190   38.4510 O.2   173  GLN173     -0.2717
     80  NE2       33.9230    5.8570   37.8750 N.am  173  GLN173     -0.0878
     81  N         29.3200    4.9400   40.4850 N.am  174  GLY174     -0.1940
     82  CA        29.2770    3.6460   41.1380 C.3   174  GLY174      0.2014
     83  C         27.9340    3.3750   41.7960 C.2   174  GLY174      0.2639
     84  O         27.6200    2.2270   42.1140 O.2   174  GLY174     -0.2714
     85  N         27.1430    4.4290   41.9950 N.am  175  ASP175     -0.1957
     86  CA        25.8230    4.3080   42.6220 C.3   175  ASP175      0.1840
     87  C         24.6720    4.0710   41.6480 C.2   175  ASP175      0.2622
     88  O         23.5790    3.6980   42.0690 O.2   175  ASP175     -0.2715
     89  CB        25.4950    5.5620   43.4380 C.3   175  ASP175      0.1450
     90  CG        26.3680    5.7100   44.6640 C.2   175  ASP175      0.3671
     91  OD1       26.6040    4.6970   45.3510 O.co2 175  ASP175     -0.2456
     92  OD2       26.8110    6.8480   44.9470 O.co2 175  ASP175     -0.2456
     93  N         24.9060    4.3150   40.3600 N.am  176  SER176     -0.1950
     94  CA        23.8360    4.2390   39.3630 C.3   176  SER176      0.1924
     95  C         23.0490    2.9410   39.4630 C.2   176  SER176      0.2314
     96  O         23.6230    1.8710   39.6510 O.2   176  SER176     -0.2863
     97  CB        24.4090    4.3560   37.9480 C.3   176  SER176      0.2116
     98  OG        24.7430    5.6980   37.6410 O.3   176  SER176     -0.2180
     99  N         18.9030    5.5900   41.0340 N.3   190  VAL190     -0.1231
    100  CA        19.9690    6.5410   40.7240 C.3   190  VAL190      0.1692
    101  C         20.2200    6.5560   39.2180 C.2   190  VAL190      0.2593
    102  O         20.5080    5.5160   38.6240 O.2   190  VAL190     -0.2718
    103  CB        21.2870    6.1550   41.4330 C.3   190  VAL190      0.0266
    104  CG1       22.3900    7.1250   41.0350 C.3   190  VAL190      0.0020
    105  CG2       21.0920    6.1650   42.9450 C.3   190  VAL190      0.0020
    106  N         20.1110    7.7320   38.6040 N.am  191  SER191     -0.1938
    107  CA        20.2320    7.8430   37.1520 C.3   191  SER191      0.2055
    108  C         21.3010    8.8520   36.7270 C.2   191  SER191      0.2643
    109  O         22.2770    8.4880   36.0760 O.2   191  SER191     -0.2714
    110  CB        18.8820    8.2280   36.5380 C.3   191  SER191      0.2130
    111  OG        18.9590    8.3150   35.1230 O.3   191  SER191     -0.2179
    112  N         21.1220   10.1160   37.0890 N.am  192  TRP192     -0.1959
    113  CA        22.1250   11.1220   36.7630 C.3   192  TRP192      0.1771
    114  C         22.0750   12.3190   37.7010 C.2   192  TRP192      0.2620
    115  O         21.4810   12.2540   38.7710 O.2   192  TRP192     -0.2715
    116  CB        21.9790   11.5870   35.3060 C.3   192  TRP192      0.0590
    117  CG        20.6360   12.1730   34.9220 C.ar  192  TRP192      0.0006
    118  CD1       19.4760   11.4860   34.6900 C.ar  192  TRP192      0.0946
    119  CD2       20.3420   13.5550   34.6480 C.ar  192  TRP192      0.0152
    120  NE1       18.4820   12.3520   34.2830 N.ar  192  TRP192     -0.2442
    121  CE2       18.9890   13.6250   34.2510 C.ar  192  TRP192      0.0810
    122  CE3       21.0910   14.7360   34.6970 C.ar  192  TRP192      0.0012
    123  CZ2       18.3720   14.8290   33.9060 C.ar  192  TRP192      0.0191
    124  CZ3       20.4750   15.9320   34.3520 C.ar  192  TRP192      0.0001
    125  CH2       19.1310   15.9680   33.9630 C.ar  192  TRP192      0.0015
    126  N         22.7150   13.4050   37.2890 N.am  193  GLY193     -0.1940
    127  CA        22.7600   14.5960   38.1150 C.3   193  GLY193      0.2014
    128  C         24.0560   15.3570   37.9120 C.2   193  GLY193      0.2639
    129  O         24.6340   15.3380   36.8280 O.2   193  GLY193     -0.2714
    130  N         24.5170   16.0200   38.9660 N.am  194  ASN194     -0.1958
    131  CA        25.6730   16.9000   38.8850 C.3   194  ASN194      0.1819
    132  C         26.9810   16.1070   38.9370 C.2   194  ASN194      0.2621
    133  O         27.0930   15.1110   39.6520 O.2   194  ASN194     -0.2715
    134  CB        25.6250   17.9020   40.0440 C.3   194  ASN194      0.1195
    135  CG        26.4550   19.1420   39.7850 C.2   194  ASN194      0.2630
    136  OD1       26.4110   19.7150   38.6990 O.2   194  ASN194     -0.2716
    137  ND2       27.2130   19.5670   40.7890 N.am  194  ASN194     -0.0877
    138  N         27.9670   16.5530   38.1670 N.am  195  ILE195     -0.1977
    139  CA        29.3390   16.0950   38.3410 C.3   195  ILE195      0.1596
    140  C         30.3030   17.2740   38.2580 C.2   195  ILE195      0.2287
    141  O         30.2710   18.0490   37.3000 O.2   195  ILE195     -0.2864
    142  CB        29.7180   15.0400   37.2830 C.3   195  ILE195      0.0276
    143  CG1       28.9980   13.7240   37.5950 C.3   195  ILE195      0.0022
    144  CG2       31.2240   14.8440   37.2570 C.3   195  ILE195      0.0022
    145  CD1       29.3600   12.5840   36.6720 C.3   195  ILE195      0.0001
    146  N         29.8370   15.4190   42.0430 N.3   197  CYS197     -0.1235
    147  CA        28.6020   15.1810   42.7760 C.3   197  CYS197      0.1677
    148  C         28.4840   16.0700   44.0020 C.2   197  CYS197      0.2270
    149  O         29.4750   16.6100   44.4930 O.2   197  CYS197     -0.2867
    150  CB        28.5250   13.7150   43.1810 C.3   197  CYS197      0.0956
    151  SG        28.8800   12.6360   41.7940 S.3   197  CYS197     -0.0801
    152  N         20.1530   15.5200   42.5710 N.3   204  GLY204     -0.1225
    153  CA        20.3530   14.3360   41.7580 C.3   204  GLY204      0.1811
    154  C         19.0650   13.9880   41.0400 C.2   204  GLY204      0.2280
    155  O         17.9750   14.3610   41.4880 O.2   204  GLY204     -0.2866
@<TRIPOS>BOND
     1    28    27    2
     2    41    38    1
     3    37    38    1
     4    27    26    1
     5    25    26    1
     6    38    39    1
     7    39    40    2
     8    26    29    1
     9    32    34   ar
    10    32    30   ar
    11    29    30    1
    12    34    35   ar
    13    30    31   ar
    14    35    36    1
    15    35    33   ar
    16    31    33   ar
    17    42    43    1
    18    43    44    1
    19    43    46    1
    20    44    45    2
    21    50    48   ar
    22    50    51   ar
    23    48    47   ar
    24    51    49   ar
    25    16    19    1
    26    16    15    1
    27    16    17    1
    28    47    49   ar
    29    47    46    1
    30    19    20    1
    31    18    17    2
    32    20    21   ar
    33    20    22   ar
    34    21    23   ar
    35    22    24   ar
    36   123   125   ar
    37   123   121   ar
    38   125   124   ar
    39   121   120   ar
    40   121   119   ar
    41   120   118   ar
    42   124   122   ar
    43   119   122   ar
    44   119   117   ar
    45   118   117   ar
    46     8     6    1
    47    23    24   ar
    48   117   116    1
    49     7     6    1
    50   111   110    1
    51   116   113    1
    52     6     5    1
    53   109   108    2
    54   110   107    1
    55   145   143    1
    56   108   112   am
    57   108   107    1
    58   113   112    1
    59   113   114    1
    60     5     2    1
    61   129   128    2
    62    14    13    1
    63   107   106    1
    64   144   142    1
    65   142   143    1
    66   142   139    1
    67   126   114   am
    68   126   127    1
    69   141   140    2
    70    98    97    1
    71   114   115    2
    72    80    78   am
    73     2     3    1
    74     2     1    1
    75   128   127    1
    76   128   130   am
    77    97    94    1
    78     4     3    2
    79   138   139    1
    80   138   132   am
    81   140   139    1
    82    13    10    1
    83     3     9   am
    84    78    79    2
    85    78    77    1
    86   106   101   am
    87   102   101    2
    88   136   135    2
    89    77    76    1
    90   131   132    1
    91   131   130    1
    92   131   134    1
    93   132   133    2
    94     9    10    1
    95   101   100    1
    96    94    95    1
    97    94    93    1
    98    10    11    1
    99    95    96    2
   100    76    73    1
   101   135   134    1
   102   135   137   am
   103    73    74    1
   104    73    72    1
   105    93    87   am
   106    81    74   am
   107    81    82    1
   108    11    12    2
   109   100    99    1
   110   100   103    1
   111    74    75    2
   112   104   103    1
   113   154   155    2
   114   154   153    1
   115    82    83    1
   116    72    68   am
   117   103   105    1
   118    87    88    2
   119    87    86    1
   120   153   152    1
   121    69    68    2
   122   151   150    1
   123    83    85   am
   124    83    84    2
   125    68    67    1
   126    85    86    1
   127   146   147    1
   128    86    89    1
   129    67    66    1
   130    67    70    1
   131   147   150    1
   132   147   148    1
   133    65    64    1
   134    71    70    1
   135    89    90    1
   136    63    62    2
   137    66    62   am
   138    59    57   ar
   139    64    61    1
   140    62    61    1
   141   148   149    2
   142    58    57   ar
   143    57    56    1
   144    61    60    1
   145    90    92   ar
   146    90    91   ar
   147    60    54   am
   148    56    53    1
   149    54    53    1
   150    54    55    2
   151    53    52    1
