@<TRIPOS>MOLECULE
tmp/4d8sA00.pdb
 175 165 0 0 0
SMALL
GASTEIGER

@<TRIPOS>ATOM
      1  N        -14.1280  -13.9640  -11.6760 N.3    36  ARG36      -0.1231
      2  CA       -14.7800  -15.2520  -11.8070 C.3    36  ARG36       0.1694
      3  C        -15.0900  -15.4210  -13.2810 C.2    36  ARG36       0.2591
      4  O        -15.0770  -14.4500  -14.0380 O.2    36  ARG36      -0.2718
      5  CB       -16.0670  -15.2930  -10.9840 C.3    36  ARG36       0.0321
      6  CG       -16.6010  -16.6940  -10.7370 C.3    36  ARG36       0.0489
      7  CD       -15.6870  -17.4780   -9.8100 C.3    36  ARG36       0.2205
      8  NE       -16.4030  -18.5340   -9.1000 N.pl3  36  ARG36      -0.0865
      9  CZ       -17.3380  -19.3030   -9.6490 C.cat  36  ARG36       0.5346
     10  NH1      -18.3220  -19.7860   -8.9050 N.pl3  36  ARG36       0.1354
     11  NH2      -17.2870  -19.5890  -10.9430 N.pl3  36  ARG36       0.1354
     12  N        -15.3160  -16.6630  -13.7070 N.am   37  GLU37      -0.1979
     13  CA       -15.6200  -16.9720  -15.1100 C.3    37  GLU37       0.1602
     14  C        -14.5260  -16.5370  -16.0960 C.2    37  GLU37       0.2287
     15  O        -14.8170  -15.9500  -17.1390 O.2    37  GLU37      -0.2864
     16  CB       -16.9610  -16.3530  -15.5130 C.3    37  GLU37       0.0415
     17  CG       -18.1670  -17.0080  -14.8600 C.3    37  GLU37       0.1163
     18  CD       -18.4480  -16.4620  -13.4740 C.2    37  GLU37       0.3649
     19  OE1      -18.1000  -15.2910  -13.2140 O.co2  37  GLU37      -0.2457
     20  OE2      -19.0160  -17.2040  -12.6450 O.co2  37  GLU37      -0.2457
     21  N        -23.4400  -13.9610   -7.0460 N.3    69  ASP69      -0.1225
     22  CA       -23.1740  -14.2310   -8.4510 C.3    69  ASP69       0.1805
     23  C        -23.6330  -13.1070   -9.3860 C.2    69  ASP69       0.2597
     24  O        -23.1180  -12.9790  -10.4990 O.2    69  ASP69      -0.2718
     25  CB       -23.8140  -15.5690   -8.8590 C.3    69  ASP69       0.1424
     26  CG       -23.3630  -16.7370   -7.9690 C.2    69  ASP69       0.3668
     27  OD1      -22.2240  -16.6840   -7.4500 O.co2  69  ASP69      -0.2456
     28  OD2      -24.1420  -17.7070   -7.7900 O.co2  69  ASP69      -0.2456
     29  N        -24.5870  -12.2890   -8.9390 N.am   70  ARG70      -0.1979
     30  CA       -25.1850  -11.2720   -9.8100 C.3    70  ARG70       0.1597
     31  C        -25.2980   -9.8940   -9.1580 C.2    70  ARG70       0.2287
     32  O        -26.2000   -9.6570   -8.3570 O.2    70  ARG70      -0.2864
     33  CB       -26.5780  -11.7160  -10.2850 C.3    70  ARG70       0.0334
     34  CG       -26.5810  -12.8750  -11.2820 C.3    70  ARG70       0.0492
     35  CD       -27.9990  -13.3750  -11.5460 C.3    70  ARG70       0.2205
     36  NE       -28.6720  -13.6900  -10.2870 N.pl3  70  ARG70      -0.0865
     37  CZ       -28.5930  -14.8670   -9.6690 C.cat  70  ARG70       0.5346
     38  NH1      -29.2260  -15.0600   -8.5160 N.pl3  70  ARG70       0.1354
     39  NH2      -27.8820  -15.8490  -10.2030 N.pl3  70  ARG70       0.1354
     40  N        -20.9050   -5.7590  -11.5370 N.3    74  ARG74      -0.1245
     41  CA       -20.2790   -6.8180  -12.3250 C.3    74  ARG74       0.1563
     42  C        -19.9870   -6.3580  -13.7480 C.2    74  ARG74       0.2260
     43  O        -20.8690   -5.8380  -14.4340 O.2    74  ARG74      -0.2867
     44  CB       -21.1980   -8.0360  -12.3670 C.3    74  ARG74       0.0307
     45  CG       -20.4800   -9.3660  -12.4630 C.3    74  ARG74       0.0489
     46  CD       -20.2030   -9.9110  -11.0790 C.3    74  ARG74       0.2205
     47  NE       -19.1400  -10.9000  -11.1190 N.pl3  74  ARG74      -0.0865
     48  CZ       -19.3370  -12.2060  -11.2430 C.cat  74  ARG74       0.5346
     49  NH1      -18.2940  -13.0330  -11.2650 N.pl3  74  ARG74       0.1354
     50  NH2      -20.5710  -12.6860  -11.3320 N.pl3  74  ARG74       0.1354
     51  N        -23.0940   -9.9310  -15.5620 N.3    97  TRP97      -0.1227
     52  CA       -22.9750  -10.9760  -14.5490 C.3    97  TRP97       0.1737
     53  C        -23.0830  -12.3720  -15.1710 C.2    97  TRP97       0.2596
     54  O        -23.1700  -13.3840  -14.4670 O.2    97  TRP97      -0.2718
     55  CB       -23.9850  -10.8000  -13.4030 C.3    97  TRP97       0.0564
     56  CG       -25.3630  -10.2950  -13.7770 C.ar   97  TRP97       0.0003
     57  CD1      -25.8340   -9.0170  -13.6360 C.ar   97  TRP97       0.0946
     58  CD2      -26.4510  -11.0650  -14.3040 C.ar   97  TRP97       0.0152
     59  NE1      -27.1370   -8.9420  -14.0610 N.ar   97  TRP97      -0.2442
     60  CE2      -27.5410  -10.1850  -14.4750 C.ar   97  TRP97       0.0810
     61  CE3      -26.6090  -12.4100  -14.6550 C.ar   97  TRP97       0.0012
     62  CZ2      -28.7700  -10.6080  -14.9860 C.ar   97  TRP97       0.0191
     63  CZ3      -27.8240  -12.8240  -15.1620 C.ar   97  TRP97       0.0001
     64  CH2      -28.8920  -11.9260  -15.3210 C.ar   97  TRP97       0.0015
     65  N        -23.0660  -12.3970  -16.5030 N.am   98  SER98      -0.1952
     66  CA       -23.0450  -13.6170  -17.3100 C.3    98  SER98       0.1924
     67  C        -22.6470  -13.1740  -18.7210 C.2    98  SER98       0.2314
     68  O        -23.0480  -12.0940  -19.1680 O.2    98  SER98      -0.2863
     69  CB       -24.4190  -14.2920  -17.3030 C.3    98  SER98       0.2116
     70  OG       -24.4600  -15.4050  -18.1830 O.3    98  SER98      -0.2180
     71  N        -33.7080  -14.9040  -15.1290 N.3   141  ILE141     -0.1245
     72  CA       -32.2460  -14.8890  -15.2580 C.3   141  ILE141      0.1561
     73  C        -31.6450  -15.2480  -16.6290 C.2   141  ILE141      0.2260
     74  O        -30.8460  -16.1780  -16.7330 O.2   141  ILE141     -0.2867
     75  CB       -31.5880  -15.7910  -14.1900 C.3   141  ILE141      0.0252
     76  CG1      -32.1780  -15.5010  -12.8090 C.3   141  ILE141      0.0019
     77  CG2      -30.0790  -15.5950  -14.1840 C.3   141  ILE141      0.0019
     78  CD1      -31.4440  -16.1850  -11.6760 C.3   141  ILE141      0.0001
     79  N        -29.2180  -15.7850  -19.2890 N.3   143  ARG143     -0.1245
     80  CA       -27.7980  -16.0430  -19.0790 C.3   143  ARG143      0.1563
     81  C        -27.1530  -16.6760  -20.3060 C.2   143  ARG143      0.2260
     82  O        -27.8260  -16.9570  -21.2980 O.2   143  ARG143     -0.2867
     83  CB       -27.5980  -17.0200  -17.9180 C.3   143  ARG143      0.0307
     84  CG       -28.6160  -18.1480  -17.8740 C.3   143  ARG143      0.0489
     85  CD       -28.5350  -18.9150  -16.5650 C.3   143  ARG143      0.2205
     86  NE       -29.5280  -19.9820  -16.4930 N.pl3 143  ARG143     -0.0865
     87  CZ       -30.7740  -19.8160  -16.0630 C.cat 143  ARG143      0.5346
     88  NH1      -31.6110  -20.8450  -16.0330 N.pl3 143  ARG143      0.1354
     89  NH2      -31.1860  -18.6210  -15.6630 N.pl3 143  ARG143      0.1354
     90  N        -20.5520  -18.3380  -20.3430 N.3   146  GLU146     -0.1245
     91  CA       -19.3960  -18.1560  -19.4810 C.3   146  GLU146      0.1567
     92  C        -18.2010  -18.8300  -20.1300 C.2   146  GLU146      0.2260
     93  O        -17.2930  -19.3070  -19.4440 O.2   146  GLU146     -0.2867
     94  CB       -19.6330  -18.7500  -18.0960 C.3   146  GLU146      0.0388
     95  CG       -21.0340  -18.5540  -17.5600 C.3   146  GLU146      0.1160
     96  CD       -21.4530  -17.0950  -17.4630 C.2   146  GLU146      0.3649
     97  OE1      -20.7280  -16.2160  -17.9760 O.co2 146  GLU146     -0.2457
     98  OE2      -22.5140  -16.8280  -16.8630 O.co2 146  GLU146     -0.2457
     99  N        -33.1600  -22.8410  -12.4890 N.3   165  ALA165     -0.1245
    100  CA       -31.8810  -23.5270  -12.6080 C.3   165  ALA165      0.1562
    101  C        -31.9060  -24.8980  -11.9470 C.2   165  ALA165      0.2260
    102  O        -30.9410  -25.6510  -12.0560 O.2   165  ALA165     -0.2867
    103  CB       -30.7700  -22.6760  -12.0260 C.3   165  ALA165      0.0290
    104  N        -27.1220  -25.7560  -19.4520 N.3   195  GLU195     -0.1231
    105  CA       -26.4610  -24.5830  -18.8730 C.3   195  GLU195      0.1699
    106  C        -25.0640  -24.3900  -19.4440 C.2   195  GLU195      0.2592
    107  O        -24.3550  -25.3630  -19.7330 O.2   195  GLU195     -0.2718
    108  CB       -26.3280  -24.7300  -17.3570 C.3   195  GLU195      0.0402
    109  CG       -27.6380  -24.6930  -16.6170 C.3   195  GLU195      0.1161
    110  CD       -28.2900  -23.3260  -16.6620 C.2   195  GLU195      0.3649
    111  OE1      -29.5310  -23.2670  -16.5560 O.co2 195  GLU195     -0.2457
    112  OE2      -27.5670  -22.3140  -16.8020 O.co2 195  GLU195     -0.2457
    113  N        -24.6770  -23.1290  -19.6100 N.am  196  GLU196     -0.1979
    114  CA       -23.2820  -22.7780  -19.8440 C.3   196  GLU196      0.1602
    115  C        -22.5630  -23.7670  -20.7590 C.2   196  GLU196      0.2287
    116  O        -21.7520  -24.5710  -20.3030 O.2   196  GLU196     -0.2864
    117  CB       -22.5560  -22.7010  -18.5020 C.3   196  GLU196      0.0415
    118  CG       -23.0780  -21.6010  -17.5700 C.3   196  GLU196      0.1163
    119  CD       -22.6410  -21.7990  -16.1210 C.2   196  GLU196      0.3649
    120  OE1      -22.2420  -22.9330  -15.7670 O.co2 196  GLU196     -0.2457
    121  OE2      -22.6940  -20.8230  -15.3340 O.co2 196  GLU196     -0.2457
    122  N        -24.0210  -28.0980  -19.2990 N.3   211  ARG211     -0.1245
    123  CA       -24.2850  -28.4850  -17.9140 C.3   211  ARG211      0.1563
    124  C        -25.7530  -28.7400  -17.5480 C.2   211  ARG211      0.2260
    125  O        -26.5750  -27.8180  -17.5130 O.2   211  ARG211     -0.2867
    126  CB       -23.7400  -27.3510  -17.0400 C.3   211  ARG211      0.0307
    127  CG       -24.3160  -27.3260  -15.6190 C.3   211  ARG211      0.0489
    128  CD       -23.8790  -26.0680  -14.8590 C.3   211  ARG211      0.2205
    129  NE       -24.1430  -26.1530  -13.4220 N.pl3 211  ARG211     -0.0865
    130  CZ       -23.6770  -25.2830  -12.5260 C.cat 211  ARG211      0.5346
    131  NH1      -23.9610  -25.4300  -11.2360 N.pl3 211  ARG211      0.1354
    132  NH2      -22.9200  -24.2620  -12.9180 N.pl3 211  ARG211      0.1354
    133  N        -28.1170  -29.0000  -14.8820 N.3   213  ASN213     -0.1240
    134  CA       -28.1120  -28.5840  -13.4840 C.3   213  ASN213      0.1653
    135  C        -29.3560  -29.0910  -12.7640 C.2   213  ASN213      0.2266
    136  O        -29.6530  -28.7030  -11.6330 O.2   213  ASN213     -0.2867
    137  CB       -28.0010  -27.0600  -13.3810 C.3   213  ASN213      0.1155
    138  CG       -27.4640  -26.5990  -12.0310 C.2   213  ASN213      0.2627
    139  OD1      -26.1890  -26.8800  -11.7760 O.2   213  ASN213     -0.2716
    140  ND2      -28.1880  -26.0060  -11.2260 N.am  213  ASN213     -0.0877
    141  N        -27.6520  -30.1300   -9.0950 N.3   264  TYR264     -0.1241
    142  CA       -26.4420  -29.3160   -9.1500 C.3   264  TYR264      0.1605
    143  C        -25.6150  -29.6110  -10.3940 C.2   264  TYR264      0.2264
    144  O        -26.0700  -30.3070  -11.3060 O.2   264  TYR264     -0.2867
    145  CB       -25.5970  -29.5110   -7.8910 C.3   264  TYR264      0.0534
    146  CG       -26.3480  -29.1870   -6.6260 C.ar  264  TYR264     -0.0201
    147  CD1      -26.2530  -27.9310   -6.0510 C.ar  264  TYR264     -0.0009
    148  CD2      -27.1670  -30.1300   -6.0190 C.ar  264  TYR264     -0.0009
    149  CE1      -26.9410  -27.6220   -4.9020 C.ar  264  TYR264      0.0417
    150  CE2      -27.8630  -29.8330   -4.8680 C.ar  264  TYR264      0.0417
    151  CZ       -27.7460  -28.5740   -4.3140 C.ar  264  TYR264      0.1957
    152  OH       -28.4330  -28.2600   -3.1630 O.3   264  TYR264     -0.2866
    153  N        -15.4560  -29.4890   -5.8350 N.3   288  ARG288     -0.1245
    154  CA       -14.7510  -28.8570   -6.9380 C.3   288  ARG288      0.1563
    155  C        -13.2610  -28.8710   -6.6520 C.2   288  ARG288      0.2260
    156  O        -12.6340  -27.8170   -6.5280 O.2   288  ARG288     -0.2867
    157  CB       -15.2440  -27.4220   -7.1550 C.3   288  ARG288      0.0307
    158  CG       -16.6210  -27.3300   -7.7830 C.3   288  ARG288      0.0489
    159  CD       -17.0670  -25.8800   -7.9860 C.3   288  ARG288      0.2205
    160  NE       -18.4150  -25.8190   -8.5530 N.pl3 288  ARG288     -0.0865
    161  CZ       -19.1070  -24.6980   -8.7550 C.cat 288  ARG288      0.5346
    162  NH1      -20.3240  -24.7590   -9.2780 N.pl3 288  ARG288      0.1354
    163  NH2      -18.5920  -23.5140   -8.4370 N.pl3 288  ARG288      0.1354
    164  N        -14.8260  -24.1170  -12.6750 N.3   322  TYR322     -0.1241
    165  CA       -15.1860  -24.1280  -14.0810 C.3   322  TYR322      0.1605
    166  C        -14.0360  -24.6150  -14.9600 C.2   322  TYR322      0.2264
    167  O        -12.8730  -24.6510  -14.5490 O.2   322  TYR322     -0.2867
    168  CB       -15.6440  -22.7450  -14.5510 C.3   322  TYR322      0.0534
    169  CG       -17.0940  -22.4220  -14.2420 C.ar  322  TYR322     -0.0201
    170  CD1      -17.8250  -23.1990  -13.3550 C.ar  322  TYR322     -0.0009
    171  CD2      -17.7360  -21.3450  -14.8530 C.ar  322  TYR322     -0.0009
    172  CE1      -19.1570  -22.9060  -13.0700 C.ar  322  TYR322      0.0417
    173  CE2      -19.0660  -21.0490  -14.5850 C.ar  322  TYR322      0.0417
    174  CZ       -19.7700  -21.8330  -13.6880 C.ar  322  TYR322      0.1957
    175  OH       -21.0890  -21.5510  -13.4080 O.3   322  TYR322     -0.2866
@<TRIPOS>BOND
     1    82    81    2
     2   115   116    2
     3   115   114    1
     4    90    91    1
     5    81    80    1
     6    92    91    1
     7    92    93    2
     8   114   113    1
     9   114   117    1
    10   107   106    2
    11   113   106   am
    12    91    94    1
    13   104   105    1
    14   106   105    1
    15   122   123    1
    16    79    80    1
    17    68    67    2
    18    80    83    1
    19   105   108    1
    20    67    66    1
    21   117   118    1
    22    70    69    1
    23    94    95    1
    24    97    96   ar
    25    83    84    1
    26   123   124    1
    27   123   126    1
    28    84    85    1
    29   118   119    1
    30    95    96    1
    31   124   125    2
    32    96    98   ar
    33   108   109    1
    34    66    69    1
    35    66    65    1
    36    15    14    2
    37   126   127    1
    38   112   110   ar
    39    74    73    2
    40   110   109    1
    41   110   111   ar
    42    73    72    1
    43    85    86    1
    44    65    53   am
    45    86    87    2
    46   119   120   ar
    47   119   121   ar
    48    14    13    1
    49    87    88    1
    50    87    89    1
    51   127   128    1
    52    51    52    1
    53    16    13    1
    54    16    17    1
    55    64    63   ar
    56    64    62   ar
    57    72    71    1
    58    72    75    1
    59    53    52    1
    60    53    54    2
    61    63    61   ar
    62    13    12    1
    63    62    60   ar
    64   166   167    2
    65   166   165    1
    66   133   134    1
    67    17    18    1
    68   128   129    1
    69   171   173   ar
    70   171   169   ar
    71    61    58   ar
    72   173   174   ar
    73   168   169    1
    74   168   165    1
    75    52    55    1
    76    60    58   ar
    77    60    59   ar
    78    43    42    2
    79    58    56   ar
    80   169   170   ar
    81    75    77    1
    82    75    76    1
    83   165   164    1
    84    59    57   ar
    85     4     3    2
    86    56    57   ar
    87    56    55    1
    88    42    41    1
    89    12     3   am
    90   174   175    1
    91   174   172   ar
    92   134   137    1
    93   134   135    1
    94    18    19   ar
    95    18    20   ar
    96   129   130    2
    97   137   138    1
    98   170   172   ar
    99     3     2    1
   100   132   130    1
   101    76    78    1
   102   135   136    2
   103   100    99    1
   104   100   103    1
   105   100   101    1
   106   130   131    1
   107    45    44    1
   108    45    46    1
   109    44    41    1
   110    41    40    1
   111   102   101    2
   112   138   139    2
   113   138   140   am
   114     2     1    1
   115     2     5    1
   116    35    34    1
   117    35    36    1
   118    50    48    1
   119   144   143    2
   120    34    33    1
   121    49    48    1
   122    48    47    2
   123    47    46    1
   124     5     6    1
   125    11     9    1
   126     6     7    1
   127    24    23    2
   128   143   142    1
   129    36    37    2
   130    33    30    1
   131    39    37    1
   132     7     8    1
   133    30    31    1
   134    30    29    1
   135    37    38    1
   136     9     8    2
   137     9    10    1
   138    23    29   am
   139    23    22    1
   140   162   161    1
   141    31    32    2
   142   142   141    1
   143   142   145    1
   144    25    22    1
   145    25    26    1
   146   161   160    2
   147   161   163    1
   148   160   159    1
   149    22    21    1
   150   159   158    1
   151    26    28   ar
   152    26    27   ar
   153   145   146    1
   154   158   157    1
   155   157   154    1
   156   154   155    1
   157   154   153    1
   158   155   156    2
   159   146   147   ar
   160   146   148   ar
   161   147   149   ar
   162   148   150   ar
   163   149   151   ar
   164   150   151   ar
   165   151   152    1
