@<TRIPOS>MOLECULE
tmp/4d8zB00.pdb
 129 116 0 0 0
SMALL
GASTEIGER

@<TRIPOS>ATOM
      1  N        -33.4700    5.7510   42.7190 N.3    24  ILE24      -0.1245
      2  CA       -32.2730    4.9660   42.4430 C.3    24  ILE24       0.1561
      3  C        -31.8350    5.1390   40.9870 C.2    24  ILE24       0.2260
      4  O        -32.4860    4.6200   40.0750 O.2    24  ILE24      -0.2867
      5  CB       -32.5050    3.4740   42.7230 C.3    24  ILE24       0.0252
      6  CG1      -32.9690    3.2710   44.1680 C.3    24  ILE24       0.0019
      7  CG2      -31.2300    2.6840   42.5060 C.3    24  ILE24       0.0019
      8  CD1      -33.3880    1.8360   44.4660 C.3    24  ILE24       0.0001
      9  N        -24.8530    4.9520   42.3530 N.3    56  GLY56      -0.1210
     10  CA       -23.7880    4.0050   42.6350 C.3    56  GLY56       0.1956
     11  C        -24.1780    2.5510   42.4620 C.2    56  GLY56       0.2612
     12  O        -25.3640    2.2220   42.3470 O.2    56  GLY56      -0.2717
     13  N        -23.1710    1.6780   42.4480 N.am   57  GLY57      -0.1956
     14  CA       -23.3820    0.2540   42.2420 C.3    57  GLY57       0.1869
     15  C        -22.1360   -0.4800   41.7720 C.2    57  GLY57       0.2309
     16  O        -21.0860    0.1300   41.5490 O.2    57  GLY57      -0.2863
     17  N        -23.6590    6.1970   46.5560 N.3    85  ASP85      -0.1239
     18  CA       -23.8060    4.8420   47.0780 C.3    85  ASP85       0.1674
     19  C        -22.4520    4.1370   47.0490 C.2    85  ASP85       0.2266
     20  O        -22.0940    3.5270   46.0350 O.2    85  ASP85      -0.2867
     21  CB       -24.8140    4.0750   46.2120 C.3    85  ASP85       0.1410
     22  CG       -25.0940    2.6720   46.7220 C.2    85  ASP85       0.3668
     23  OD1      -26.0210    2.0260   46.1910 O.co2  85  ASP85      -0.2456
     24  OD2      -24.3970    2.2120   47.6450 O.co2  85  ASP85      -0.2456
     25  N        -23.8100    7.2880   51.2500 N.3   104  ASN104     -0.1240
     26  CA       -24.7380    6.1910   51.4750 C.3   104  ASN104      0.1653
     27  C        -24.0000    4.8700   51.6220 C.2   104  ASN104      0.2266
     28  O        -23.6570    4.2420   50.6240 O.2   104  ASN104     -0.2867
     29  CB       -25.7300    6.0960   50.3210 C.3   104  ASN104      0.1155
     30  CG       -26.6770    4.9300   50.4760 C.2   104  ASN104      0.2627
     31  OD1      -26.9110    4.4670   51.5920 O.2   104  ASN104     -0.2716
     32  ND2      -27.2360    4.4480   49.3600 N.am  104  ASN104     -0.0877
     33  N        -23.5880    1.0480   52.5390 N.3   106  ILE106     -0.1245
     34  CA       -24.1930   -0.2570   52.8530 C.3   106  ILE106      0.1561
     35  C        -23.4810   -1.0530   53.9630 C.2   106  ILE106      0.2260
     36  O        -23.9810   -2.0920   54.3950 O.2   106  ILE106     -0.2867
     37  CB       -24.3140   -1.1730   51.6250 C.3   106  ILE106      0.0252
     38  CG1      -22.9360   -1.4530   51.0230 C.3   106  ILE106      0.0019
     39  CG2      -25.2500   -0.5690   50.5780 C.3   106  ILE106      0.0019
     40  CD1      -22.9620   -2.4620   49.8640 C.3   106  ILE106      0.0001
     41  N        -25.5970    7.7440   55.6040 N.3   127  ILE127     -0.1245
     42  CA       -26.5470    6.6840   55.8930 C.3   127  ILE127      0.1561
     43  C        -25.7610    5.4590   56.3160 C.2   127  ILE127      0.2260
     44  O        -24.8330    5.0480   55.6290 O.2   127  ILE127     -0.2867
     45  CB       -27.3740    6.3460   54.6390 C.3   127  ILE127      0.0252
     46  CG1      -28.2740    7.5210   54.2560 C.3   127  ILE127      0.0019
     47  CG2      -28.1870    5.0930   54.8460 C.3   127  ILE127      0.0019
     48  CD1      -28.5730    7.5690   52.7550 C.3   127  ILE127      0.0001
     49  N        -26.1220    1.6340   56.9340 N.3   129  MET129     -0.1245
     50  CA       -27.0290    0.5110   56.7440 C.3   129  MET129      0.1570
     51  C        -26.6020   -0.6650   57.6010 C.2   129  MET129      0.2261
     52  O        -25.4120   -0.8950   57.8180 O.2   129  MET129     -0.2867
     53  CB       -27.0770    0.0800   55.2850 C.3   129  MET129      0.0387
     54  CG       -28.2130   -0.8780   54.9740 C.3   129  MET129      0.0595
     55  SD       -28.1130   -1.5710   53.3010 S.3   129  MET129     -0.1393
     56  CE       -26.8940   -2.8540   53.5340 C.3   129  MET129      0.0692
     57  N        -30.4140    2.6010   58.4050 N.3   168  ASP168     -0.1239
     58  CA       -31.0670    1.7640   57.4070 C.3   168  ASP168      0.1674
     59  C        -31.0030    0.3190   57.8960 C.2   168  ASP168      0.2266
     60  O        -29.9260   -0.1790   58.1970 O.2   168  ASP168     -0.2867
     61  CB       -30.3560    1.9240   56.0540 C.3   168  ASP168      0.1410
     62  CG       -31.0560    1.1770   54.9100 C.2   168  ASP168      0.3668
     63  OD1      -31.0060    1.6670   53.7510 O.co2 168  ASP168     -0.2456
     64  OD2      -31.6560    0.1060   55.1600 O.co2 168  ASP168     -0.2456
     65  N        -31.2410   -2.3860   56.3130 N.3   170  GLY170     -0.1210
     66  CA       -30.5910   -3.3160   55.4110 C.3   170  GLY170      0.1956
     67  C        -31.4430   -4.5300   55.0890 C.2   170  GLY170      0.2611
     68  O        -30.9680   -5.6640   55.1550 O.2   170  GLY170     -0.2717
     69  N        -32.7090   -4.2990   54.7500 N.am  171  ILE171     -0.1979
     70  CA       -33.5620   -5.3710   54.2630 C.3   171  ILE171      0.1595
     71  C        -32.9370   -6.0060   53.0150 C.2   171  ILE171      0.2287
     72  O        -32.4420   -5.3090   52.1310 O.2   171  ILE171     -0.2864
     73  CB       -34.9390   -4.8280   53.8860 C.3   171  ILE171      0.0276
     74  CG1      -35.5250   -4.0250   55.0480 C.3   171  ILE171      0.0022
     75  CG2      -35.8610   -5.9630   53.4760 C.3   171  ILE171      0.0022
     76  CD1      -35.9140   -4.8670   56.2280 C.3   171  ILE171      0.0001
     77  N        -30.3020   -7.7680   53.0450 N.3   173  PHE173     -0.1241
     78  CA       -28.8820   -7.9860   53.3120 C.3   173  PHE173      0.1605
     79  C        -28.6910   -8.8700   54.5390 C.2   173  PHE173      0.2264
     80  O        -29.2850   -8.6330   55.6010 O.2   173  PHE173     -0.2867
     81  CB       -28.1440   -6.6700   53.5360 C.3   173  PHE173      0.0534
     82  CG       -28.0630   -5.7910   52.3180 C.ar  173  PHE173     -0.0203
     83  CD1      -29.0780   -4.8930   52.0260 C.ar  173  PHE173     -0.0042
     84  CD2      -26.9520   -5.8360   51.4860 C.ar  173  PHE173     -0.0042
     85  CE1      -28.9960   -4.0670   50.9210 C.ar  173  PHE173     -0.0003
     86  CE2      -26.8650   -5.0110   50.3810 C.ar  173  PHE173     -0.0003
     87  CZ       -27.8920   -4.1300   50.0960 C.ar  173  PHE173     -0.0000
     88  N        -34.0670    5.1710   56.9770 N.3   198  LEU198     -0.1245
     89  CA       -34.2970    5.0170   55.5470 C.3   198  LEU198      0.1561
     90  C        -34.5480    3.5490   55.2230 C.2   198  LEU198      0.2260
     91  O        -33.7870    2.6720   55.6350 O.2   198  LEU198     -0.2867
     92  CB       -33.1120    5.5700   54.7440 C.3   198  LEU198      0.0270
     93  CG       -33.1210    5.3990   53.2170 C.3   198  LEU198      0.0019
     94  CD1      -32.2320    6.4520   52.5690 C.3   198  LEU198      0.0001
     95  CD2      -32.6580    3.9970   52.8330 C.3   198  LEU198      0.0001
     96  N        -34.9300    0.5190   52.4370 N.3   200  GLY200     -0.1225
     97  CA       -34.4960    0.1090   51.1140 C.3   200  GLY200      0.1811
     98  C        -34.9470   -1.2970   50.7860 C.2   200  GLY200      0.2280
     99  O        -34.2520   -2.2630   51.0940 O.2   200  GLY200     -0.2866
    100  N        -36.7160   -6.0400   45.8850 N.3   204  LYS204     -0.1245
    101  CA       -35.7820   -7.0240   46.4230 C.3   204  LYS204      0.1561
    102  C        -36.2730   -8.4650   46.3840 C.2   204  LYS204      0.2260
    103  O        -37.4590   -8.7420   46.2050 O.2   204  LYS204     -0.2867
    104  CB       -35.3340   -6.6400   47.8290 C.3   204  LYS204      0.0271
    105  CG       -34.2970   -5.5410   47.8130 C.3   204  LYS204      0.0035
    106  CD       -34.0490   -4.9790   49.1880 C.3   204  LYS204      0.0206
    107  CE       -33.0470   -3.8550   49.1150 C.3   204  LYS204      0.1093
    108  NZ       -31.7450   -4.3060   49.6510 N.3   204  LYS204     -0.1314
    109  N        -36.0770    4.3200   49.6030 N.3   238  ARG238     -0.1245
    110  CA       -35.2130    4.2520   48.4300 C.3   238  ARG238      0.1563
    111  C        -35.8690    3.3500   47.3960 C.2   238  ARG238      0.2260
    112  O        -36.0350    2.1520   47.6370 O.2   238  ARG238     -0.2867
    113  CB       -33.8500    3.6910   48.8200 C.3   238  ARG238      0.0307
    114  CG       -32.8760    3.5540   47.6610 C.3   238  ARG238      0.0489
    115  CD       -31.5360    3.0880   48.1810 C.3   238  ARG238      0.2205
    116  NE       -30.5330    2.8370   47.1560 N.pl3 238  ARG238     -0.0865
    117  CZ       -30.4420    1.7110   46.4560 C.cat 238  ARG238      0.5346
    118  NH1      -31.3160    0.7330   46.6470 N.pl3 238  ARG238      0.1354
    119  NH2      -29.4780    1.5690   45.5570 N.pl3 238  ARG238      0.1354
    120  N        -37.0360    2.3810   43.0250 N.3   240  HIS240     -0.1241
    121  CA       -36.8700    2.5190   41.5770 C.3   240  HIS240      0.1621
    122  C        -38.0950    3.2000   40.9990 C.2   240  HIS240      0.2264
    123  O        -37.9880    4.0310   40.0980 O.2   240  HIS240     -0.2867
    124  CB       -36.7060    1.1620   40.8880 C.3   240  HIS240      0.0745
    125  CG       -35.5600    0.3460   41.4000 C.ar  240  HIS240      0.0817
    126  ND1      -35.6350   -0.4070   42.5520 N.ar  240  HIS240     -0.2268
    127  CD2      -34.3140    0.1550   40.9080 C.ar  240  HIS240      0.1154
    128  CE1      -34.4880   -1.0310   42.7450 C.ar  240  HIS240      0.1986
    129  NE2      -33.6680   -0.7080   41.7610 N.ar  240  HIS240     -0.2212
@<TRIPOS>BOND
     1     4     3    2
     2   123   122    2
     3   124   125    1
     4   124   121    1
     5   127   125   ar
     6   127   129   ar
     7     3     2    1
     8   122   121    1
     9   125   126   ar
    10    16    15    2
    11   121   120    1
    12   129   128   ar
    13    15    14    1
    14    14    13    1
    15    12    11    2
    16     9    10    1
    17     2     1    1
    18     2     5    1
    19    13    11   am
    20    11    10    1
    21     7     5    1
    22   126   128   ar
    23     5     6    1
    24     6     8    1
    25   119   117    1
    26   100   101    1
    27    20    19    2
    28    23    22   ar
    29   103   102    2
    30    21    22    1
    31    21    18    1
    32   102   101    1
    33   101   104    1
    34   117   118    1
    35   117   116    2
    36    17    18    1
    37    22    24   ar
    38    19    18    1
    39   116   115    1
    40   111   112    2
    41   111   110    1
    42   114   115    1
    43   114   113    1
    44   105   104    1
    45   105   106    1
    46   110   113    1
    47   110   109    1
    48   107   106    1
    49   107   108    1
    50    32    30   am
    51    40    38    1
    52    87    86   ar
    53    87    85   ar
    54    29    30    1
    55    29    26    1
    56    86    84   ar
    57    30    31    2
    58    39    37    1
    59    28    27    2
    60    98    99    2
    61    98    97    1
    62    85    83   ar
    63    38    37    1
    64    97    96    1
    65    25    26    1
    66    26    27    1
    67    84    82   ar
    68    37    34    1
    69    83    82   ar
    70    72    71    2
    71    82    81    1
    72    33    34    1
    73    94    93    1
    74    48    46    1
    75    95    93    1
    76    34    35    1
    77    71    70    1
    78    77    78    1
    79    93    92    1
    80    55    56    1
    81    55    54    1
    82    78    81    1
    83    78    79    1
    84    75    73    1
    85    63    62   ar
    86    73    70    1
    87    73    74    1
    88    35    36    2
    89    46    45    1
    90    70    69    1
    91    79    80    2
    92    45    47    1
    93    45    42    1
    94    92    89    1
    95    69    67   am
    96    62    64   ar
    97    62    61    1
    98    54    53    1
    99    74    76    1
   100    67    68    2
   101    67    66    1
   102    90    89    1
   103    90    91    2
   104    53    50    1
   105    66    65    1
   106    89    88    1
   107    41    42    1
   108    44    43    2
   109    42    43    1
   110    61    58    1
   111    50    49    1
   112    50    51    1
   113    58    59    1
   114    58    57    1
   115    51    52    2
   116    59    60    2
