@<TRIPOS>MOLECULE
tmp/4d96A00.pdb
 152 148 0 0 0
SMALL
GASTEIGER

@<TRIPOS>ATOM
      1  N          3.1820   32.0870   20.7580 N.3    50  ASN50      -0.1225
      2  CA         3.7230   31.1210   19.8020 C.3    50  ASN50       0.1785
      3  C          4.8030   31.6500   18.8490 C.2    50  ASN50       0.2597
      4  O          5.5320   30.8670   18.2390 O.2    50  ASN50      -0.2718
      5  CB         2.5970   30.4240   19.0170 C.3    50  ASN50       0.1169
      6  CG         1.7350   31.3870   18.2220 C.2    50  ASN50       0.2627
      7  OD1        1.7160   32.5950   18.4780 O.2    50  ASN50      -0.2716
      8  ND2        0.9860   30.8440   17.2640 N.am   50  ASN50      -0.0877
      9  N          4.9260   32.9670   18.7310 N.am   51  LYS51      -0.1980
     10  CA         5.8220   33.5320   17.7180 C.3    51  LYS51       0.1596
     11  C          7.3070   33.5880   18.1190 C.2    51  LYS51       0.2287
     12  O          8.1830   33.5510   17.2510 O.2    51  LYS51      -0.2864
     13  CB         5.2920   34.8690   17.1880 C.3    51  LYS51       0.0298
     14  CG         3.8850   34.7720   16.5900 C.3    51  LYS51       0.0038
     15  CD         3.8350   33.8450   15.3720 C.3    51  LYS51       0.0206
     16  CE         2.4060   33.4930   14.9890 C.3    51  LYS51       0.1093
     17  NZ         2.3180   32.5020   13.8670 N.3    51  LYS51      -0.1314
     18  N          3.9910   42.3180    9.1980 N.3    73  ALA73      -0.1231
     19  CA         2.6430   42.8460    9.0200 C.3    73  ALA73       0.1694
     20  C          1.6350   42.1050    9.8850 C.2    73  ALA73       0.2593
     21  O          1.8860   40.9900   10.3200 O.2    73  ALA73      -0.2718
     22  CB         2.2410   42.7670    7.5540 C.3    73  ALA73       0.0304
     23  N          0.4890   42.7320   10.1360 N.am   74  GLY74      -0.1942
     24  CA        -0.5950   42.0710   10.8520 C.3    74  GLY74       0.2014
     25  C         -1.7030   43.0430   11.1640 C.2    74  GLY74       0.2638
     26  O         -1.6950   44.1640   10.6650 O.2    74  GLY74      -0.2714
     27  N         -2.6640   42.6020   11.9790 N.am   75  ALA75      -0.1977
     28  CA        -3.7020   43.4760   12.5110 C.3    75  ALA75       0.1597
     29  C         -3.0980   44.4570   13.5140 C.2    75  ALA75       0.2287
     30  O         -1.9960   44.2380   14.0320 O.2    75  ALA75      -0.2864
     31  CB        -4.7950   42.6590   13.1760 C.3    75  ALA75       0.0319
     32  N         -2.3380   42.4610   16.4710 N.3    78  SER78      -0.1202
     33  CA        -1.5160   41.2880   16.1680 C.3    78  SER78       0.2020
     34  C         -0.4640   41.0060   17.2420 C.2    78  SER78       0.2619
     35  O          0.2920   41.8990   17.6430 O.2    78  SER78      -0.2717
     36  CB        -0.8310   41.4740   14.8130 C.3    78  SER78       0.2103
     37  OG         0.3200   40.6530   14.6850 O.3    78  SER78      -0.2182
     38  N         -0.4360   39.7600   17.6990 N.am   79  ASN79      -0.1960
     39  CA         0.5170   39.3130   18.7210 C.3    79  ASN79       0.1819
     40  C          1.9150   39.1470   18.1370 C.2    79  ASN79       0.2621
     41  O          2.9230   39.4360   18.7930 O.2    79  ASN79      -0.2715
     42  CB         0.0500   37.9990   19.3490 C.3    79  ASN79       0.1195
     43  CG        -1.3150   38.1160   20.0080 C.2    79  ASN79       0.2630
     44  OD1       -1.4960   38.8700   20.9720 O.2    79  ASN79      -0.2716
     45  ND2       -2.2850   37.3680   19.4900 N.am   79  ASN79      -0.0877
     46  N          1.9510   38.6550   16.9040 N.am   80  HIS80      -0.1973
     47  CA         3.1790   38.4960   16.1340 C.3    80  HIS80       0.1656
     48  C          3.9360   39.7900   16.0170 C.2    80  HIS80       0.2291
     49  O          5.1300   39.8580   16.3410 O.2    80  HIS80      -0.2864
     50  CB         2.8450   37.9640   14.7410 C.3    80  HIS80       0.0771
     51  CG         4.0150   37.9740   13.7920 C.ar   80  HIS80       0.0820
     52  ND1        4.9930   37.0520   13.8450 N.ar   80  HIS80      -0.2267
     53  CD2        4.3490   38.8460   12.7590 C.ar   80  HIS80       0.1154
     54  CE1        5.9070   37.3160   12.8900 C.ar   80  HIS80       0.1986
     55  NE2        5.5050   38.4110   12.2210 N.ar   80  HIS80      -0.2212
     56  N          3.5770   37.5130    7.3860 N.3   158  VAL158     -0.1231
     57  CA         2.4960   37.4860    8.3690 C.3   158  VAL158      0.1692
     58  C          2.6460   36.2210    9.2160 C.2   158  VAL158      0.2592
     59  O          2.7750   35.1160    8.6810 O.2   158  VAL158     -0.2718
     60  CB         1.1020   37.5450    7.6960 C.3   158  VAL158      0.0266
     61  CG1        0.0010   37.0800    8.6450 C.3   158  VAL158      0.0020
     62  CG2        0.8010   38.9510    7.1800 C.3   158  VAL158      0.0020
     63  N          2.6790   36.4120   10.5330 N.am  159  GLY159     -0.1957
     64  CA         2.7530   35.3130   11.4960 C.3   159  GLY159      0.1869
     65  C          4.0670   34.5590   11.5450 C.2   159  GLY159      0.2309
     66  O          4.1580   33.5110   12.1880 O.2   159  GLY159     -0.2863
     67  N         -5.0340   26.5260   17.3960 N.3   192  ALA192     -0.1231
     68  CA        -5.6160   27.4700   16.4430 C.3   192  ALA192      0.1694
     69  C         -4.7680   27.5190   15.1820 C.2   192  ALA192      0.2593
     70  O         -3.5470   27.3670   15.2320 O.2   192  ALA192     -0.2718
     71  CB        -5.7400   28.8600   17.0580 C.3   192  ALA192      0.0304
     72  N         -5.4250   27.7320   14.0520 N.am  193  SER193     -0.1938
     73  CA        -4.7620   27.6380   12.7660 C.3   193  SER193      0.2055
     74  C         -5.0780   28.8920   11.9700 C.2   193  SER193      0.2644
     75  O         -6.1860   29.0520   11.4480 O.2   193  SER193     -0.2714
     76  CB        -5.2100   26.3650   12.0460 C.3   193  SER193      0.2130
     77  OG        -4.3230   26.0270   11.0040 O.3   193  SER193     -0.2179
     78  N         -4.0990   29.7900   11.9170 N.am  194  GLY194     -0.1939
     79  CA        -4.2570   31.1000   11.3000 C.3   194  GLY194      0.2014
     80  C         -3.2850   31.2570   10.1500 C.2   194  GLY194      0.2640
     81  O         -3.5770   30.8190    9.0250 O.2   194  GLY194     -0.2714
     82  N         -2.1310   31.8690   10.4200 N.am  195  SER195     -0.1935
     83  CA        -1.1080   32.0400    9.3680 C.3   195  SER195      0.2055
     84  C         -0.4820   30.6930    8.9900 C.2   195  SER195      0.2643
     85  O          0.1760   30.5830    7.9500 O.2   195  SER195     -0.2714
     86  CB        -0.0540   33.1010    9.7290 C.3   195  SER195      0.2130
     87  OG         0.8250   32.6630   10.7550 O.3   195  SER195     -0.2179
     88  N         -0.7110   29.6860    9.8420 N.am  196  ALA196     -0.1963
     89  CA        -0.5340   28.2530    9.5420 C.3   196  ALA196      0.1728
     90  C          0.7960   27.5980    9.9300 C.2   196  ALA196      0.2617
     91  O          0.9170   26.3800    9.8410 O.2   196  ALA196     -0.2715
     92  CB        -0.8890   27.9360    8.0840 C.3   196  ALA196      0.0334
     93  N          1.7720   28.3960   10.3620 N.am  197  GLY197     -0.1940
     94  CA         3.1130   27.9020   10.7060 C.3   197  GLY197      0.2014
     95  C          3.1510   27.0510   11.9610 C.2   197  GLY197      0.2640
     96  O          3.9150   26.0900   12.0360 O.2   197  GLY197     -0.2714
     97  N          2.3250   27.4070   12.9510 N.am  198  THR198     -0.1936
     98  CA         2.2050   26.6320   14.1890 C.3   198  THR198      0.2028
     99  C          1.6300   25.2460   13.8890 C.2   198  THR198      0.2642
    100  O          2.2600   24.2300   14.1990 O.2   198  THR198     -0.2714
    101  CB         1.3530   27.3640   15.2410 C.3   198  THR198      0.1808
    102  OG1        1.9120   28.6580   15.4900 O.3   198  THR198     -0.2208
    103  CG2        1.3150   26.5810   16.5520 C.3   198  THR198      0.0379
    104  N          0.4410   25.2090   13.2850 N.am  199  HIS199     -0.1973
    105  CA        -0.1560   23.9610   12.8150 C.3   199  HIS199      0.1656
    106  C          0.8630   23.1350   12.0510 C.2   199  HIS199      0.2291
    107  O          1.0840   21.9540   12.3730 O.2   199  HIS199     -0.2864
    108  CB        -1.3780   24.2670   11.9370 C.3   199  HIS199      0.0771
    109  CG        -2.2530   23.0640   11.6350 C.ar  199  HIS199      0.0820
    110  ND1       -3.5270   23.1900   11.2350 N.ar  199  HIS199     -0.2267
    111  CD2       -1.9950   21.6930   11.6890 C.ar  199  HIS199      0.1154
    112  CE1       -4.0640   21.9700   11.0300 C.ar  199  HIS199      0.1986
    113  NE2       -3.1280   21.0540   11.3150 N.ar  199  HIS199     -0.2212
    114  N        -12.3450   36.5510   11.0980 N.3   261  TYR261     -0.1241
    115  CA       -11.1080   36.8560   11.8110 C.3   261  TYR261      0.1605
    116  C        -11.2240   38.1090   12.6640 C.2   261  TYR261      0.2264
    117  O        -11.6860   39.1490   12.2030 O.2   261  TYR261     -0.2867
    118  CB        -9.9080   36.9960   10.8570 C.3   261  TYR261      0.0534
    119  CG        -8.6390   37.3610   11.5980 C.ar  261  TYR261     -0.0201
    120  CD1       -8.0180   36.4400   12.4360 C.ar  261  TYR261     -0.0009
    121  CD2       -8.0920   38.6380   11.5010 C.ar  261  TYR261     -0.0009
    122  CE1       -6.8690   36.7680   13.1400 C.ar  261  TYR261      0.0417
    123  CE2       -6.9410   38.9820   12.2030 C.ar  261  TYR261      0.0417
    124  CZ        -6.3340   38.0420   13.0210 C.ar  261  TYR261      0.1957
    125  OH        -5.1960   38.3690   13.7220 O.3   261  TYR261     -0.2866
    126  N         -7.9850   34.0720   18.9620 N.3   287  TYR287     -0.1241
    127  CA        -7.3250   32.8140   18.6300 C.3   287  TYR287      0.1605
    128  C         -7.7010   31.6570   19.5440 C.2   287  TYR287      0.2264
    129  O         -8.3700   30.7060   19.1100 O.2   287  TYR287     -0.2867
    130  CB        -5.8020   33.0030   18.6160 C.3   287  TYR287      0.0534
    131  CG        -5.3500   33.9310   17.5160 C.ar  287  TYR287     -0.0201
    132  CD1       -5.3840   33.5210   16.1780 C.ar  287  TYR287     -0.0009
    133  CD2       -4.9040   35.2220   17.8070 C.ar  287  TYR287     -0.0009
    134  CE1       -4.9890   34.3700   15.1560 C.ar  287  TYR287      0.0417
    135  CE2       -4.4950   36.0820   16.7890 C.ar  287  TYR287      0.0417
    136  CZ        -4.5500   35.6490   15.4670 C.ar  287  TYR287      0.1957
    137  OH        -4.1510   36.4870   14.4580 O.3   287  TYR287     -0.2866
    138  N         -1.2080   29.0900   22.5940 N.3   315  THR315     -0.1203
    139  CA        -0.3730   29.8820   21.6990 C.3   315  THR315      0.1994
    140  C         -0.3250   31.3730   22.1050 C.2   315  THR315      0.2618
    141  O          0.3100   32.1970   21.4320 O.2   315  THR315     -0.2717
    142  CB        -0.8910   29.7320   20.2550 C.3   315  THR315      0.1784
    143  OG1       -2.3060   29.8920   20.2620 O.3   315  THR315     -0.2211
    144  CG2       -0.5750   28.3340   19.7100 C.3   315  THR315      0.0376
    145  N         -0.9980   31.7100   23.2050 N.am  316  GLY316     -0.1942
    146  CA        -0.9530   33.0590   23.7820 C.3   316  GLY316      0.2014
    147  C         -2.1800   33.8990   23.4790 C.2   316  GLY316      0.2639
    148  O         -3.3080   33.3860   23.4390 O.2   316  GLY316     -0.2714
    149  N         -1.9610   35.1970   23.2790 N.am  317  GLY317     -0.1954
    150  CA        -3.0160   36.0990   22.8280 C.3   317  GLY317      0.1869
    151  C         -3.6610   37.0090   23.8590 C.2   317  GLY317      0.2309
    152  O         -4.3680   37.9410   23.4910 O.2   317  GLY317     -0.2863
@<TRIPOS>BOND
     1    62    60    1
     2    56    57    1
     3    22    19    1
     4    60    57    1
     5    60    61    1
     6    85    84    2
     7    92    89    1
     8    57    58    1
     9    59    58    2
    10    84    83    1
    11    84    88   am
    12    19    18    1
    13    19    20    1
    14    81    80    2
    15    58    63   am
    16    83    86    1
    17    83    82    1
    18    89    88    1
    19    89    90    1
    20    86    87    1
    21    91    90    2
    22    20    23   am
    23    20    21    2
    24    90    93   am
    25    23    24    1
    26    80    82   am
    27    80    79    1
    28    93    94    1
    29    63    64    1
    30    26    25    2
    31    94    95    1
    32    24    25    1
    33   118   119    1
    34   118   115    1
    35    77    76    1
    36   112   110   ar
    37   112   113   ar
    38   114   115    1
    39    25    27   am
    40   110   109   ar
    41    79    78    1
    42   113   111   ar
    43    75    74    2
    44    64    65    1
    45   121   119   ar
    46   121   123   ar
    47    65    66    2
    48   119   120   ar
    49   109   111   ar
    50   109   108    1
    51   115   116    1
    52    78    74   am
    53   108   105    1
    54    95    96    2
    55    95    97   am
    56    74    73    1
    57    27    28    1
    58    76    73    1
    59   106   107    2
    60   106   105    1
    61   123   124   ar
    62   117   116    2
    63    55    53   ar
    64    55    54   ar
    65   120   122   ar
    66    28    31    1
    67    28    29    1
    68    53    51   ar
    69    73    72    1
    70   105   104    1
    71    54    52   ar
    72    97    98    1
    73   124   122   ar
    74   124   125    1
    75   104    99   am
    76    29    30    2
    77    51    52   ar
    78    51    50    1
    79    17    16    1
    80    99    98    1
    81    99   100    2
    82    72    69   am
    83    98   101    1
    84   137   136    1
    85    37    36    1
    86    50    47    1
    87    36    33    1
    88    16    15    1
    89   134   136   ar
    90   134   132   ar
    91    69    70    2
    92    69    68    1
    93   101   102    1
    94   101   103    1
    95    15    14    1
    96   136   135   ar
    97    48    47    1
    98    48    49    2
    99    47    46    1
   100    33    32    1
   101    33    34    1
   102   132   131   ar
   103    68    71    1
   104    68    67    1
   105    14    13    1
   106   135   133   ar
   107    46    40   am
   108    13    10    1
   109    34    35    2
   110    34    38   am
   111    12    11    2
   112     8     6   am
   113   131   133   ar
   114   131   130    1
   115    38    39    1
   116    10    11    1
   117    10     9    1
   118    40    39    1
   119    40    41    2
   120     6     7    2
   121     6     5    1
   122     4     3    2
   123   130   127    1
   124   127   126    1
   125   127   128    1
   126    39    42    1
   127     9     3   am
   128     3     2    1
   129     5     2    1
   130   129   128    2
   131    42    43    1
   132    45    43   am
   133   144   142    1
   134     2     1    1
   135    43    44    2
   136   142   143    1
   137   142   139    1
   138   141   140    2
   139   139   140    1
   140   139   138    1
   141   140   145   am
   142   150   149    1
   143   150   151    1
   144   145   146    1
   145   149   147   am
   146   148   147    2
   147   147   146    1
   148   152   151    2
