@<TRIPOS>MOLECULE
tmp/4d99D01.pdb
 83 80 0 0 0
SMALL
GASTEIGER

@<TRIPOS>ATOM
      1  N         -6.0090   75.3930   29.1070 N.3    72  ALA72      -0.1231
      2  CA        -6.9110   74.9020   28.0680 C.3    72  ALA72       0.1694
      3  C         -6.7340   75.6960   26.7850 C.2    72  ALA72       0.2593
      4  O         -6.2180   76.8030   26.8220 O.2    72  ALA72      -0.2718
      5  CB        -8.3490   74.9950   28.5460 C.3    72  ALA72       0.0304
      6  N         -7.1580   75.1330   25.6580 N.am   73  GLY73      -0.1942
      7  CA        -7.0990   75.8490   24.3770 C.3    73  GLY73       0.2014
      8  C         -7.4510   74.9680   23.1960 C.2    73  GLY73       0.2638
      9  O         -7.8260   73.8060   23.3700 O.2    73  GLY73      -0.2714
     10  N         -7.3580   75.5270   21.9910 N.am   74  ALA74      -0.1977
     11  CA        -7.4580   74.7300   20.7730 C.3    74  ALA74       0.1597
     12  C         -6.2900   73.7510   20.7180 C.2    74  ALA74       0.2287
     13  O         -5.2380   73.9820   21.3270 O.2    74  ALA74      -0.2864
     14  CB        -7.4540   75.6300   19.5450 C.3    74  ALA74       0.0319
     15  N         -3.2290   75.5340   20.0180 N.3    77  SER77      -0.1202
     16  CA        -2.9700   76.6660   20.9010 C.3    77  SER77       0.2020
     17  C         -1.4750   76.9180   21.0540 C.2    77  SER77       0.2619
     18  O         -0.7050   76.0010   21.3410 O.2    77  SER77      -0.2717
     19  CB        -3.6110   76.4060   22.2670 C.3    77  SER77       0.2103
     20  OG        -3.2580   77.3930   23.2200 O.3    77  SER77      -0.2182
     21  N         -1.0600   78.1580   20.8280 N.am   78  ASN78      -0.1960
     22  CA         0.3120   78.5530   21.1540 C.3    78  ASN78       0.1819
     23  C          0.4850   78.6440   22.6630 C.2    78  ASN78       0.2621
     24  O          1.5610   78.3470   23.1980 O.2    78  ASN78      -0.2715
     25  CB         0.6660   79.8850   20.5010 C.3    78  ASN78       0.1195
     26  CG         0.5550   79.8380   18.9880 C.2    78  ASN78       0.2630
     27  OD1        1.2710   79.0840   18.3300 O.2    78  ASN78      -0.2716
     28  ND2       -0.3410   80.6470   18.4310 N.am   78  ASN78      -0.0877
     29  N         -0.5810   79.0680   23.3420 N.am   79  HIS79      -0.1973
     30  CA        -0.5550   79.2300   24.7880 C.3    79  HIS79       0.1656
     31  C         -0.2680   77.9400   25.5010 C.2    79  HIS79       0.2291
     32  O          0.5740   77.8980   26.4130 O.2    79  HIS79      -0.2864
     33  CB        -1.8580   79.8270   25.2990 C.3    79  HIS79       0.0771
     34  CG        -1.9600   79.8250   26.7980 C.ar   79  HIS79       0.0820
     35  ND1       -2.7810   78.9890   27.4710 N.ar   79  HIS79      -0.2267
     36  CD2       -1.2680   80.5500   27.7550 C.ar   79  HIS79       0.1154
     37  CE1       -2.6400   79.1980   28.7930 C.ar   79  HIS79       0.1986
     38  NE2       -1.7100   80.1440   28.9650 N.ar   79  HIS79      -0.2212
     39  N         -7.6890   80.3730   29.7700 N.3   157  VAL157     -0.1231
     40  CA        -7.4620   80.3600   28.3270 C.3   157  VAL157      0.1692
     41  C         -6.5950   81.5620   27.9370 C.2   157  VAL157      0.2592
     42  O         -6.8080   82.6820   28.4140 O.2   157  VAL157     -0.2718
     43  CB        -8.8030   80.3240   27.5410 C.3   157  VAL157      0.0266
     44  CG1       -8.6030   80.6590   26.0710 C.3   157  VAL157      0.0020
     45  CG2       -9.4640   78.9580   27.6670 C.3   157  VAL157      0.0020
     46  N         -5.5820   81.3050   27.1130 N.am  158  GLY158     -0.1957
     47  CA        -4.6900   82.3520   26.6290 C.3   158  GLY158      0.1869
     48  C         -3.8110   82.9920   27.6890 C.2   158  GLY158      0.2309
     49  O         -3.0350   83.8880   27.3790 O.2   158  GLY158     -0.2863
     50  N         -7.4480   88.4360   21.0620 N.3   193  GLY193     -0.1210
     51  CA        -8.0880   87.1240   21.2580 C.3   193  GLY193      0.1956
     52  C         -8.6530   86.9730   22.6640 C.2   193  GLY193      0.2612
     53  O         -9.7230   87.5130   22.9700 O.2   193  GLY193     -0.2717
     54  N         -7.9430   86.2470   23.5290 N.am  194  SER194     -0.1952
     55  CA        -8.3820   86.1170   24.9250 C.3   194  SER194      0.1924
     56  C         -8.2310   87.4530   25.6630 C.2   194  SER194      0.2314
     57  O         -8.6650   87.5970   26.8090 O.2   194  SER194     -0.2863
     58  CB        -7.6530   84.9710   25.6440 C.3   194  SER194      0.2116
     59  OG        -6.2900   85.2850   25.8730 O.3   194  SER194     -0.2180
     60  N        -12.6880   81.8360   14.4770 N.3   260  TYR260     -0.1241
     61  CA       -11.4200   81.5320   15.1340 C.3   260  TYR260      0.1605
     62  C        -10.8040   80.2550   14.5760 C.2   260  TYR260      0.2264
     63  O        -11.4630   79.2210   14.5010 O.2   260  TYR260     -0.2867
     64  CB       -11.5700   81.4160   16.6540 C.3   260  TYR260      0.0534
     65  CG       -10.2840   80.9670   17.3130 C.ar  260  TYR260     -0.0201
     66  CD1       -9.2020   81.8420   17.4410 C.ar  260  TYR260     -0.0009
     67  CD2      -10.1320   79.6540   17.7750 C.ar  260  TYR260     -0.0009
     68  CE1       -8.0130   81.4320   18.0330 C.ar  260  TYR260      0.0417
     69  CE2       -8.9370   79.2250   18.3570 C.ar  260  TYR260      0.0417
     70  CZ        -7.8850   80.1190   18.4930 C.ar  260  TYR260      0.1957
     71  OH        -6.6970   79.6970   19.0810 O.3   260  TYR260     -0.2866
     72  N         -3.7170   84.0080   14.0640 N.3   286  TYR286     -0.1241
     73  CA        -3.6060   85.3150   14.7200 C.3   286  TYR286      0.1605
     74  C         -2.9650   86.4200   13.8790 C.2   286  TYR286      0.2264
     75  O         -3.6610   87.3380   13.3890 O.2   286  TYR286     -0.2867
     76  CB        -2.8460   85.1830   16.0430 C.3   286  TYR286      0.0534
     77  CG        -3.4740   84.2000   16.9980 C.ar  286  TYR286     -0.0201
     78  CD1       -4.5000   84.5920   17.8580 C.ar  286  TYR286     -0.0009
     79  CD2       -3.0440   82.8710   17.0400 C.ar  286  TYR286     -0.0009
     80  CE1       -5.0770   83.6870   18.7370 C.ar  286  TYR286      0.0417
     81  CE2       -3.6190   81.9580   17.9140 C.ar  286  TYR286      0.0417
     82  CZ        -4.6300   82.3770   18.7570 C.ar  286  TYR286      0.1957
     83  OH        -5.2090   81.4800   19.6140 O.3   286  TYR286     -0.2866
@<TRIPOS>BOND
     1    75    74    2
     2    74    73    1
     3    72    73    1
     4    60    61    1
     5    63    62    2
     6    62    61    1
     7    73    76    1
     8    61    64    1
     9    76    77    1
    10    64    65    1
    11    77    79   ar
    12    77    78   ar
    13    79    81   ar
    14    65    66   ar
    15    65    67   ar
    16    66    68   ar
    17    67    69   ar
    18    78    80   ar
    19    81    82   ar
    20    68    70   ar
    21    27    26    2
    22    69    70   ar
    23    28    26   am
    24    70    71    1
    25    80    82   ar
    26    82    83    1
    27    26    25    1
    28    14    11    1
    29    15    16    1
    30    25    22    1
    31    12    11    1
    32    12    13    2
    33    11    10    1
    34    21    17   am
    35    21    22    1
    36    16    17    1
    37    16    19    1
    38    17    18    2
    39    50    51    1
    40    22    23    1
    41    51    52    1
    42    10     8   am
    43    19    20    1
    44    23    24    2
    45    23    29   am
    46    52    53    2
    47    52    54   am
    48     8     9    2
    49     8     7    1
    50    29    30    1
    51    54    55    1
    52     7     6    1
    53    30    33    1
    54    30    31    1
    55    55    58    1
    56    55    56    1
    57    33    34    1
    58    31    32    2
    59    58    59    1
    60     6     3   am
    61    56    57    2
    62    44    43    1
    63    47    46    1
    64    47    48    1
    65     3     4    2
    66     3     2    1
    67    34    35   ar
    68    34    36   ar
    69    46    41   am
    70    49    48    2
    71    35    37   ar
    72    43    45    1
    73    43    40    1
    74    36    38   ar
    75    41    40    1
    76    41    42    2
    77     2     5    1
    78     2     1    1
    79    40    39    1
    80    37    38   ar
