@<TRIPOS>MOLECULE
tmp/4d9cC00.pdb
 126 123 0 0 0
SMALL
GASTEIGER

@<TRIPOS>ATOM
      1  N         22.5460   77.8030   12.8120 N.3    43  ASN43      -0.1225
      2  CA        23.9850   78.0450   12.5820 C.3    43  ASN43       0.1785
      3  C         24.2550   78.7100   11.2620 C.2    43  ASN43       0.2597
      4  O         25.2510   79.3850   11.0950 O.2    43  ASN43      -0.2718
      5  CB        24.8200   76.6920   12.6890 C.3    43  ASN43       0.1169
      6  CG        24.4350   75.5950   11.6770 C.2    43  ASN43       0.2627
      7  OD1       23.3230   75.5670   11.1230 O.2    43  ASN43      -0.2716
      8  ND2       25.4030   74.6340   11.4140 N.am   43  ASN43      -0.0877
      9  N         23.4370   78.4720   10.2720 N.am   44  LYS44      -0.1980
     10  CA        23.7810   79.0430    8.9570 C.3    44  LYS44       0.1596
     11  C         23.7060   80.5800    8.8240 C.2    44  LYS44       0.2287
     12  O         24.4230   81.1580    7.9800 O.2    44  LYS44      -0.2864
     13  CB        23.0670   78.2980    7.8210 C.3    44  LYS44       0.0298
     14  CG        23.2700   76.7790    7.9340 C.3    44  LYS44       0.0038
     15  CD        24.8010   76.4380    8.0700 C.3    44  LYS44       0.0206
     16  CE        25.0350   74.9540    7.7390 C.3    44  LYS44       0.1093
     17  NZ        26.5180   74.7140    7.7690 N.3    44  LYS44      -0.1314
     18  N         16.6670   70.6890    3.9530 N.3    71  SER71      -0.1202
     19  CA        17.8090   71.5200    4.3520 C.3    71  SER71       0.2020
     20  C         17.4760   72.7880    5.2130 C.2    71  SER71       0.2619
     21  O         16.6840   73.6490    4.7760 O.2    71  SER71      -0.2717
     22  CB        18.5210   72.0140    3.0770 C.3    71  SER71       0.2103
     23  OG        19.5880   72.8500    3.4880 O.3    71  SER71      -0.2182
     24  N         18.0820   72.9040    6.3810 N.am   72  ASN72      -0.1960
     25  CA        17.9820   74.1570    7.1860 C.3    72  ASN72       0.1819
     26  C         18.7760   75.2880    6.5340 C.2    72  ASN72       0.2621
     27  O         18.3980   76.4690    6.5900 O.2    72  ASN72      -0.2715
     28  CB        18.5460   73.9210    8.5850 C.3    72  ASN72       0.1195
     29  CG        17.7900   72.8240    9.3250 C.2    72  ASN72       0.2630
     30  OD1       16.5830   72.9750    9.6000 O.2    72  ASN72      -0.2716
     31  ND2       18.4930   71.7220    9.6640 N.am   72  ASN72      -0.0877
     32  N         19.9020   74.9020    5.9020 N.am   73  HIS73      -0.1973
     33  CA        20.7520   75.8560    5.2380 C.3    73  HIS73       0.1656
     34  C         20.0230   76.5240    4.1180 C.2    73  HIS73       0.2291
     35  O         20.0970   77.7360    3.9830 O.2    73  HIS73      -0.2864
     36  CB        22.0280   75.1560    4.7020 C.3    73  HIS73       0.0771
     37  CG        22.8370   76.0460    3.8150 C.ar   73  HIS73       0.0820
     38  ND1       22.8120   75.9510    2.4460 N.ar   73  HIS73      -0.2267
     39  CD2       23.6220   77.1070    4.1100 C.ar   73  HIS73       0.1154
     40  CE1       23.5800   76.8980    1.9270 C.ar   73  HIS73       0.1986
     41  NE2       24.0870   77.6030    2.9210 N.ar   73  HIS73      -0.2212
     42  N         25.7250   73.7120    2.7230 N.3   152  GLY152     -0.1225
     43  CA        25.9430   74.1860    4.1240 C.3   152  GLY152      0.1811
     44  C         26.6260   75.5640    4.2990 C.2   152  GLY152      0.2280
     45  O         27.0200   75.9490    5.4340 O.2   152  GLY152     -0.2866
     46  N         27.4770   68.8810   15.9500 N.3   185  ALA185     -0.1231
     47  CA        27.2300   68.1130   14.7570 C.3   185  ALA185      0.1694
     48  C         28.2310   68.3980   13.5840 C.2   185  ALA185      0.2593
     49  O         28.4870   69.5510   13.2120 O.2   185  ALA185     -0.2718
     50  CB        25.7630   68.3680   14.2260 C.3   185  ALA185      0.0304
     51  N         28.6770   67.3670   12.8870 N.am  186  SER186     -0.1938
     52  CA        29.6610   67.6320   11.8800 C.3   186  SER186      0.2055
     53  C         29.1920   67.1330   10.5650 C.2   186  SER186      0.2644
     54  O         29.1050   65.8870   10.3890 O.2   186  SER186     -0.2714
     55  CB        31.0130   66.9830   12.3460 C.3   186  SER186      0.2130
     56  OG        31.9620   67.1810   11.2690 O.3   186  SER186     -0.2179
     57  N         28.8090   68.0370    9.6330 N.am  187  GLY187     -0.1939
     58  CA        28.2260   67.6780    8.3370 C.3   187  GLY187      0.2014
     59  C         28.9780   68.2270    7.1590 C.2   187  GLY187      0.2640
     60  O         30.0380   67.6730    6.8020 O.2   187  GLY187     -0.2714
     61  N         28.5120   69.3150    6.5370 N.am  188  SER188     -0.1935
     62  CA        29.2980   69.8780    5.4490 C.3   188  SER188      0.2055
     63  C         30.6080   70.4720    6.0140 C.2   188  SER188      0.2643
     64  O         31.4560   70.8750    5.2150 O.2   188  SER188     -0.2714
     65  CB        28.5280   70.9660    4.6980 C.3   188  SER188      0.2130
     66  OG        28.2980   72.0280    5.6100 O.3   188  SER188     -0.2179
     67  N         30.6830   70.6770    7.3310 N.am  189  ALA189     -0.1963
     68  CA        31.9490   70.8370    8.1380 C.3   189  ALA189      0.1728
     69  C         32.4230   72.2500    8.5260 C.2   189  ALA189      0.2617
     70  O         33.3880   72.3720    9.2920 O.2   189  ALA189     -0.2715
     71  CB        33.1190   70.1120    7.4680 C.3   189  ALA189      0.0334
     72  N         31.7320   73.2960    8.0610 N.am  190  GLY190     -0.1940
     73  CA        32.1040   74.6530    8.2940 C.3   190  GLY190      0.2014
     74  C         31.9630   74.9390    9.7400 C.2   190  GLY190      0.2640
     75  O         32.8160   75.6410   10.3040 O.2   190  GLY190     -0.2714
     76  N         30.9060   74.3990   10.4040 N.am  191  THR191     -0.1936
     77  CA        30.7980   74.6590   11.8200 C.3   191  THR191      0.2028
     78  C         31.9320   74.0240   12.6570 C.2   191  THR191      0.2642
     79  O         32.4910   74.6250   13.6030 O.2   191  THR191     -0.2714
     80  CB        29.3950   74.1920   12.4010 C.3   191  THR191      0.1808
     81  OG1       28.3170   74.6770   11.5600 O.3   191  THR191     -0.2208
     82  CG2       29.2710   74.6760   13.8620 C.3   191  THR191      0.0379
     83  N         32.1660   72.7450   12.4050 N.am  192  HIS192     -0.1973
     84  CA        33.1810   72.0200   13.1290 C.3   192  HIS192      0.1656
     85  C         34.5650   72.7300   12.8700 C.2   192  HIS192      0.2291
     86  O         35.3070   72.9730   13.7930 O.2   192  HIS192     -0.2864
     87  CB        33.2480   70.6010   12.5330 C.3   192  HIS192      0.0771
     88  CG        34.1920   69.6790   13.2700 C.ar  192  HIS192      0.0820
     89  ND1       34.1890   68.3100   13.1060 N.ar  192  HIS192     -0.2267
     90  CD2       35.0860   69.9410   14.2560 C.ar  192  HIS192      0.1154
     91  CE1       35.0670   67.7790   13.9340 C.ar  192  HIS192      0.1986
     92  NE2       35.6330   68.7460   14.6350 N.ar  192  HIS192     -0.2212
     93  N         20.2830   66.3670   12.6350 N.3   280  TYR280     -0.1227
     94  CA        21.5550   66.9350   13.0740 C.3   280  TYR280      0.1736
     95  C         21.7440   66.9300   14.5430 C.2   280  TYR280      0.2596
     96  O         22.5780   66.1390   15.0240 O.2   280  TYR280     -0.2718
     97  CB        21.7380   68.3800   12.5520 C.3   280  TYR280      0.0548
     98  CG        21.7180   68.5070   11.0740 C.ar  280  TYR280     -0.0200
     99  CD1       22.9060   68.3210   10.2990 C.ar  280  TYR280     -0.0009
    100  CD2       20.5700   68.9030   10.4230 C.ar  280  TYR280     -0.0009
    101  CE1       22.8720   68.4820    8.9650 C.ar  280  TYR280      0.0417
    102  CE2       20.5460   69.0480    9.0440 C.ar  280  TYR280      0.0417
    103  CZ        21.7000   68.8770    8.3350 C.ar  280  TYR280      0.1957
    104  OH        21.6510   69.0490    6.9660 O.3   280  TYR280     -0.2866
    105  N         20.9790   67.7540   15.2940 N.am  281  THR281     -0.1953
    106  CA        21.2310   67.9360   16.7270 C.3   281  THR281      0.1897
    107  C         20.8460   66.7150   17.6170 C.2   281  THR281      0.2313
    108  O         21.5390   66.4050   18.5730 O.2   281  THR281     -0.2863
    109  CB        20.6380   69.2660   17.2740 C.3   281  THR281      0.1794
    110  OG1       19.2420   69.3240   16.9570 O.3   281  THR281     -0.2208
    111  CG2       21.2830   70.4790   16.4980 C.3   281  THR281      0.0378
    112  N         22.9610   73.8270   16.9260 N.3   308  THR308     -0.1203
    113  CA        23.0270   74.4810   15.6430 C.3   308  THR308      0.1994
    114  C         21.6800   74.6790   14.9440 C.2   308  THR308      0.2618
    115  O         21.6240   75.2220   13.7980 O.2   308  THR308     -0.2717
    116  CB        23.8820   73.6530   14.6950 C.3   308  THR308      0.1784
    117  OG1       23.5490   72.2680   14.8560 O.3   308  THR308     -0.2211
    118  CG2       25.3850   73.8520   15.0440 C.3   308  THR308      0.0376
    119  N         20.6070   74.2430   15.5910 N.am  309  GLY309     -0.1942
    120  CA        19.2610   74.4530   15.0300 C.3   309  GLY309      0.2014
    121  C         18.5180   73.2140   14.5560 C.2   309  GLY309      0.2639
    122  O         18.5570   72.0960   15.2160 O.2   309  GLY309     -0.2714
    123  N         17.7190   73.4060   13.5150 N.am  310  GLY310     -0.1954
    124  CA        17.0930   72.2760   12.9050 C.3   310  GLY310      0.1869
    125  C         15.6730   71.8880   13.2240 C.2   310  GLY310      0.2309
    126  O         15.1150   71.0990   12.4730 O.2   310  GLY310     -0.2863
@<TRIPOS>BOND
     1    40    38   ar
     2    40    41   ar
     3    38    37   ar
     4    42    43    1
     5    41    39   ar
     6    22    23    1
     7    22    19    1
     8    37    39   ar
     9    37    36    1
    10    18    19    1
    11    35    34    2
    12    34    33    1
    13    43    44    1
    14    44    45    2
    15    19    20    1
    16    65    62    1
    17    65    66    1
    18    36    33    1
    19    21    20    2
    20    20    24   am
    21    64    63    2
    22    33    32    1
    23    62    63    1
    24    62    61    1
    25    32    26   am
    26    63    67   am
    27    24    25    1
    28    26    27    2
    29    26    25    1
    30    61    59   am
    31    60    59    2
    32   104   103    1
    33    59    58    1
    34    25    28    1
    35    67    68    1
    36    71    68    1
    37    16    17    1
    38    16    15    1
    39    13    14    1
    40    13    10    1
    41    14    15    1
    42    12    11    2
    43    72    73    1
    44    72    69   am
    45    68    69    1
    46    73    74    1
    47   103   101   ar
    48   103   102   ar
    49    58    57    1
    50    69    70    2
    51    28    29    1
    52    11    10    1
    53    10     9    1
    54   101    99   ar
    55   102   100   ar
    56    29    30    2
    57    29    31   am
    58    57    53   am
    59    74    75    2
    60    74    76   am
    61     9     3   am
    62    99    98   ar
    63    54    53    2
    64    76    77    1
    65   100    98   ar
    66    53    52    1
    67    98    97    1
    68     4     3    2
    69     7     6    2
    70     3     2    1
    71    56    55    1
    72     8     6   am
    73    81    80    1
    74     6     5    1
    75    77    80    1
    76    77    78    1
    77    52    55    1
    78    52    51    1
    79    80    82    1
    80    83    78   am
    81    83    84    1
    82   126   125    2
    83    87    84    1
    84    87    88    1
    85    97    94    1
    86     2     5    1
    87     2     1    1
    88    93    94    1
    89    78    79    2
    90    85    84    1
    91    85    86    2
    92    51    48   am
    93   124   125    1
    94   124   123    1
    95    94    95    1
    96    89    88   ar
    97    89    91   ar
    98    49    48    2
    99    88    90   ar
   100   123   121   am
   101    48    47    1
   102   115   114    2
   103    91    92   ar
   104    50    47    1
   105    90    92   ar
   106    95    96    2
   107    95   105   am
   108   121   120    1
   109   121   122    2
   110   116   117    1
   111   116   118    1
   112   116   113    1
   113    47    46    1
   114   114   119   am
   115   114   113    1
   116   120   119    1
   117   105   106    1
   118   113   112    1
   119   111   109    1
   120   106   109    1
   121   106   107    1
   122   110   109    1
   123   107   108    2
