@<TRIPOS>MOLECULE
tmp/4d9fA01.pdb
 193 186 0 0 0
SMALL
GASTEIGER

@<TRIPOS>ATOM
      1  N          3.2980   34.6870   24.0390 N.3    49  GLY49      -0.1210
      2  CA         2.6620   34.2420   22.8060 C.3    49  GLY49       0.1956
      3  C          3.4440   33.2020   22.0220 C.2    49  GLY49       0.2612
      4  O          4.6120   32.9280   22.3100 O.2    49  GLY49      -0.2717
      5  N          2.7860   32.6300   21.0170 N.am   50  ASN50      -0.1960
      6  CA         3.3820   31.6080   20.1590 C.3    50  ASN50       0.1819
      7  C          4.4480   32.1450   19.2030 C.2    50  ASN50       0.2621
      8  O          5.3140   31.3980   18.7430 O.2    50  ASN50      -0.2715
      9  CB         2.2920   30.8740   19.3690 C.3    50  ASN50       0.1195
     10  CG         1.4920   31.7970   18.4610 C.2    50  ASN50       0.2630
     11  OD1        1.3860   33.0030   18.7010 O.2    50  ASN50      -0.2716
     12  ND2        0.9130   31.2240   17.4130 N.am   50  ASN50      -0.0877
     13  N          4.3780   33.4410   18.9180 N.am   51  LYS51      -0.1977
     14  CA         5.2590   34.0720   17.9390 C.3    51  LYS51       0.1596
     15  C          6.6840   34.2580   18.4440 C.2    51  LYS51       0.2287
     16  O          7.6140   34.3590   17.6430 O.2    51  LYS51      -0.2864
     17  CB         4.6740   35.4050   17.4680 C.3    51  LYS51       0.0298
     18  CG         3.2620   35.2920   16.9220 C.3    51  LYS51       0.0038
     19  CD         3.1860   34.3040   15.7720 C.3    51  LYS51       0.0206
     20  CE         1.7430   33.9700   15.4560 C.3    51  LYS51       0.1093
     21  NZ         1.5990   32.9470   14.3830 N.3    51  LYS51      -0.1314
     22  N          8.7370   31.4580   17.2200 N.3    54  LYS54      -0.1245
     23  CA         9.0460   31.6580   15.8010 C.3    54  LYS54       0.1561
     24  C         10.1000   32.7420   15.5850 C.2    54  LYS54       0.2260
     25  O         10.9670   32.6050   14.7180 O.2    54  LYS54      -0.2867
     26  CB         7.7810   31.9970   15.0030 C.3    54  LYS54       0.0271
     27  CG         6.6830   30.9510   15.0760 C.3    54  LYS54       0.0035
     28  CD         5.4630   31.4050   14.3010 C.3    54  LYS54       0.0206
     29  CE         4.3440   30.3870   14.3950 C.3    54  LYS54       0.1093
     30  NZ         3.2590   30.7080   13.4310 N.3    54  LYS54      -0.1314
     31  N          0.0990   42.6750    9.9500 N.3    74  GLY74      -0.1210
     32  CA        -1.0190   41.9900   10.5860 C.3    74  GLY74       0.1956
     33  C         -2.1770   42.9250   10.8680 C.2    74  GLY74       0.2611
     34  O         -2.2160   44.0510   10.3680 O.2    74  GLY74      -0.2717
     35  N         -3.1280   42.4490   11.6670 N.am   75  ALA75      -0.1979
     36  CA        -4.2470   43.2700   12.1110 C.3    75  ALA75       0.1597
     37  C         -3.7510   44.2920   13.1250 C.2    75  ALA75       0.2287
     38  O         -2.6810   44.1190   13.7120 O.2    75  ALA75      -0.2864
     39  CB        -5.3340   42.3980   12.7180 C.3    75  ALA75       0.0319
     40  N         -2.9910   42.6470   16.1490 N.3    78  SER78      -0.1202
     41  CA        -2.1900   41.4500   15.8950 C.3    78  SER78       0.2020
     42  C         -1.2600   41.1640   17.0650 C.2    78  SER78       0.2619
     43  O         -0.6150   42.0710   17.5900 O.2    78  SER78      -0.2717
     44  CB        -1.3730   41.6120   14.6110 C.3    78  SER78       0.2103
     45  OG        -0.5250   40.4990   14.3830 O.3    78  SER78      -0.2182
     46  N         -1.2060   39.9010   17.4730 N.am   79  ASN79      -0.1960
     47  CA        -0.3160   39.4830   18.5480 C.3    79  ASN79       0.1819
     48  C          1.1160   39.3160   18.0550 C.2    79  ASN79       0.2621
     49  O          2.0680   39.5230   18.8110 O.2    79  ASN79      -0.2715
     50  CB        -0.8160   38.1910   19.1920 C.3    79  ASN79       0.1195
     51  CG        -2.1470   38.3670   19.8980 C.2    79  ASN79       0.2630
     52  OD1       -2.2890   39.2150   20.7790 O.2    79  ASN79      -0.2716
     53  ND2       -3.1270   37.5560   19.5220 N.am   79  ASN79      -0.0877
     54  N          1.2550   38.9450   16.7820 N.am   80  HIS80      -0.1973
     55  CA         2.5630   38.7940   16.1480 C.3    80  HIS80       0.1656
     56  C          3.3150   40.0950   16.0700 C.2    80  HIS80       0.2291
     57  O          4.4730   40.1720   16.4850 O.2    80  HIS80      -0.2864
     58  CB         2.4290   38.1830   14.7550 C.3    80  HIS80       0.0771
     59  CG         3.7010   38.2420   13.9470 C.ar   80  HIS80       0.0820
     60  ND1        4.7030   37.3600   14.1100 N.ar   80  HIS80      -0.2267
     61  CD2        4.1190   39.1350   12.9620 C.ar   80  HIS80       0.1154
     62  CE1        5.7080   37.6640   13.2690 C.ar   80  HIS80       0.1986
     63  NE2        5.3510   38.7510   12.5670 N.ar   80  HIS80      -0.2212
     64  N          4.5350   41.2040   19.4610 N.3    83  GLN83      -0.1245
     65  CA         5.6800   40.4060   19.9010 C.3    83  GLN83       0.1566
     66  C          6.9440   40.7360   19.0990 C.2    83  GLN83       0.2260
     67  O          8.0430   40.7880   19.6540 O.2    83  GLN83      -0.2867
     68  CB         5.3570   38.9070   19.8320 C.3    83  GLN83       0.0367
     69  CG         4.3630   38.4400   20.8880 C.3    83  GLN83       0.0905
     70  CD         3.7570   37.0800   20.5840 C.2    83  GLN83       0.2608
     71  OE1        4.4110   36.0500   20.7240 O.2    83  GLN83      -0.2717
     72  NE2        2.4910   37.0740   20.1810 N.am   83  GLN83      -0.0878
     73  N          3.4810   37.3460    7.4790 N.3   158  VAL158     -0.1231
     74  CA         2.3370   37.3380    8.3910 C.3   158  VAL158      0.1692
     75  C          2.4510   36.1890    9.3940 C.2   158  VAL158      0.2592
     76  O          2.6100   35.0250    9.0090 O.2   158  VAL158     -0.2718
     77  CB         0.9920   37.2560    7.6310 C.3   158  VAL158      0.0266
     78  CG1       -0.1790   37.2370    8.6020 C.3   158  VAL158      0.0020
     79  CG2        0.8440   38.4310    6.6810 C.3   158  VAL158      0.0020
     80  N          2.3980   36.5380   10.6790 N.am  159  GLY159     -0.1957
     81  CA         2.4690   35.5650   11.7670 C.3   159  GLY159      0.1869
     82  C          3.8190   34.8860   11.9110 C.2   159  GLY159      0.2309
     83  O          3.9690   33.9660   12.7200 O.2   159  GLY159     -0.2863
     84  N         -4.9380   26.4580   17.5130 N.3   192  ALA192     -0.1231
     85  CA        -5.4720   27.4150   16.5570 C.3   192  ALA192      0.1694
     86  C         -4.6540   27.3450   15.2740 C.2   192  ALA192      0.2593
     87  O         -3.4410   27.1250   15.3130 O.2   192  ALA192     -0.2718
     88  CB        -5.4390   28.8200   17.1340 C.3   192  ALA192      0.0304
     89  N         -5.3240   27.5220   14.1400 N.am  193  SER193     -0.1938
     90  CA        -4.6630   27.4660   12.8450 C.3   193  SER193      0.2055
     91  C         -4.9710   28.7240   12.0450 C.2   193  SER193      0.2644
     92  O         -6.0280   28.8320   11.4170 O.2   193  SER193     -0.2714
     93  CB        -5.0890   26.2110   12.0860 C.3   193  SER193      0.2130
     94  OG        -4.2400   25.9770   10.9780 O.3   193  SER193     -0.2179
     95  N         -4.0430   29.6770   12.0950 N.am  194  GLY194     -0.1939
     96  CA        -4.1870   30.9640   11.4190 C.3   194  GLY194      0.2014
     97  C         -3.2990   31.0450   10.1990 C.2   194  GLY194      0.2640
     98  O         -3.6790   30.5890    9.1210 O.2   194  GLY194     -0.2714
     99  N         -2.1100   31.6170   10.3670 N.am  195  SER195     -0.1935
    100  CA        -1.1470   31.7100    9.2690 C.3   195  SER195      0.2055
    101  C         -0.3630   30.4080    9.0730 C.2   195  SER195      0.2643
    102  O          0.5460   30.3470    8.2430 O.2   195  SER195     -0.2714
    103  CB        -0.2070   32.9050    9.4520 C.3   195  SER195      0.2130
    104  OG         0.6770   32.7120   10.5390 O.3   195  SER195     -0.2179
    105  N         -0.7230   29.3860    9.8550 N.am  196  ALA196     -0.1963
    106  CA        -0.2990   27.9840    9.6610 C.3   196  ALA196      0.1728
    107  C          1.0370   27.5420   10.2830 C.2   196  ALA196      0.2617
    108  O          1.2880   26.3410   10.4070 O.2   196  ALA196     -0.2715
    109  CB        -0.3670   27.5880    8.1870 C.3   196  ALA196      0.0334
    110  N          1.8750   28.4950   10.6830 N.am  197  GLY197     -0.1940
    111  CA         3.2170   28.1870   11.1970 C.3   197  GLY197      0.2014
    112  C          3.2760   27.2790   12.4160 C.2   197  GLY197      0.2640
    113  O          4.0750   26.3350   12.4580 O.2   197  GLY197     -0.2714
    114  N          2.4350   27.5670   13.4090 N.am  198  THR198     -0.1936
    115  CA         2.3470   26.7530   14.6220 C.3   198  THR198      0.2028
    116  C          1.8730   25.3360   14.2920 C.2   198  THR198      0.2642
    117  O          2.5300   24.3570   14.6510 O.2   198  THR198     -0.2714
    118  CB         1.4090   27.3970   15.6680 C.3   198  THR198      0.1808
    119  OG1        1.8770   28.7100   15.9880 O.3   198  THR198     -0.2208
    120  CG2        1.3570   26.5750   16.9370 C.3   198  THR198      0.0379
    121  N          0.7390   25.2490   13.5990 N.am  199  HIS199     -0.1973
    122  CA         0.1210   23.9790   13.2110 C.3   199  HIS199      0.1656
    123  C          1.0800   23.0890   12.4610 C.2   199  HIS199      0.2291
    124  O          1.2740   21.9320   12.8380 O.2   199  HIS199     -0.2864
    125  CB        -1.1530   24.2530   12.4010 C.3   199  HIS199      0.0771
    126  CG        -1.9850   23.0250   12.1020 C.ar  199  HIS199      0.0820
    127  ND1       -3.0640   23.0690   11.3000 N.ar  199  HIS199     -0.2267
    128  CD2       -1.8570   21.6980   12.5160 C.ar  199  HIS199      0.1154
    129  CE1       -3.6060   21.8400   11.2130 C.ar  199  HIS199      0.1986
    130  NE2       -2.8650   21.0030   11.9550 N.ar  199  HIS199     -0.2212
    131  N         -9.1960   29.8670   12.2460 N.3   220  VAL220     -0.1231
    132  CA        -9.6500   31.1240   12.8440 C.3   220  VAL220      0.1692
    133  C         -9.9520   32.1990   11.7970 C.2   220  VAL220      0.2593
    134  O        -10.3730   33.3050   12.1370 O.2   220  VAL220     -0.2718
    135  CB        -8.6380   31.6680   13.8860 C.3   220  VAL220      0.0266
    136  CG1       -8.4930   30.7020   15.0570 C.3   220  VAL220      0.0020
    137  CG2       -7.2860   31.9560   13.2440 C.3   220  VAL220      0.0020
    138  N         -9.7440   31.8660   10.5260 N.am  221  SER221     -0.1938
    139  CA        -9.8780   32.8450    9.4520 C.3   221  SER221      0.2055
    140  C        -10.3640   32.2560    8.1270 C.2   221  SER221      0.2642
    141  O        -10.8990   32.9810    7.2890 O.2   221  SER221     -0.2714
    142  CB        -8.5520   33.5930    9.2470 C.3   221  SER221      0.2130
    143  OG        -7.4610   32.6950    9.1340 O.3   221  SER221     -0.2179
    144  N        -10.1920   30.9460    7.9480 N.am  222  ARG222     -0.1977
    145  CA       -10.4380   30.2970    6.6560 C.3   222  ARG222      0.1597
    146  C        -11.1530   28.9540    6.7650 C.2   222  ARG222      0.2287
    147  O        -11.2110   28.3550    7.8360 O.2   222  ARG222     -0.2864
    148  CB        -9.1160   30.0870    5.9130 C.3   222  ARG222      0.0334
    149  CG        -8.6220   31.2920    5.1370 C.3   222  ARG222      0.0492
    150  CD        -7.2520   31.0120    4.5430 C.3   222  ARG222      0.2205
    151  NE        -6.2150   30.9850    5.5710 N.pl3 222  ARG222     -0.0865
    152  CZ        -5.4610   32.0270    5.9070 C.cat 222  ARG222      0.5346
    153  NH1       -5.6130   33.1920    5.2920 N.pl3 222  ARG222      0.1354
    154  NH2       -4.5470   31.8990    6.8610 N.pl3 222  ARG222      0.1354
    155  N        -12.5250   36.2800   10.4770 N.3   261  TYR261     -0.1241
    156  CA       -11.3530   36.5690   11.3060 C.3   261  TYR261      0.1605
    157  C        -11.5330   37.8450   12.1270 C.2   261  TYR261      0.2264
    158  O        -11.9670   38.8740   11.6040 O.2   261  TYR261     -0.2867
    159  CB       -10.0750   36.6700   10.4580 C.3   261  TYR261      0.0534
    160  CG        -8.8740   37.1660   11.2440 C.ar  261  TYR261     -0.0201
    161  CD1       -8.1470   36.3030   12.0700 C.ar  261  TYR261     -0.0009
    162  CD2       -8.4800   38.5040   11.1830 C.ar  261  TYR261     -0.0009
    163  CE1       -7.0600   36.7560   12.8000 C.ar  261  TYR261      0.0417
    164  CE2       -7.3950   38.9670   11.9130 C.ar  261  TYR261      0.0417
    165  CZ        -6.6890   38.0910   12.7180 C.ar  261  TYR261      0.1957
    166  OH        -5.6100   38.5520   13.4390 O.3   261  TYR261     -0.2866
    167  N         -8.2620   34.0120   18.7760 N.3   287  TYR287     -0.1241
    168  CA        -7.5920   32.7330   18.5270 C.3   287  TYR287      0.1605
    169  C         -7.9750   31.6220   19.5060 C.2   287  TYR287      0.2264
    170  O         -8.8090   30.7750   19.1810 O.2   287  TYR287     -0.2867
    171  CB        -6.0670   32.9140   18.4780 C.3   287  TYR287      0.0534
    172  CG        -5.6060   33.9830   17.5160 C.ar  287  TYR287     -0.0201
    173  CD1       -5.5000   33.7220   16.1480 C.ar  287  TYR287     -0.0009
    174  CD2       -5.2770   35.2600   17.9710 C.ar  287  TYR287     -0.0009
    175  CE1       -5.0760   34.7050   15.2630 C.ar  287  TYR287      0.0417
    176  CE2       -4.8520   36.2490   17.0960 C.ar  287  TYR287      0.0417
    177  CZ        -4.7530   35.9690   15.7450 C.ar  287  TYR287      0.1957
    178  OH        -4.3350   36.9580   14.8790 O.3   287  TYR287     -0.2866
    179  N         -1.6690   29.3760   22.8200 N.3   315  THR315     -0.1203
    180  CA        -0.7600   30.1740   22.0090 C.3   315  THR315      0.1994
    181  C         -0.6860   31.6340   22.4660 C.2   315  THR315      0.2618
    182  O          0.1590   32.3940   21.9940 O.2   315  THR315     -0.2717
    183  CB        -1.1380   30.0920   20.5110 C.3   315  THR315      0.1784
    184  OG1       -2.5480   30.2980   20.3540 O.3   315  THR315     -0.2211
    185  CG2       -0.7740   28.7260   19.9400 C.3   315  THR315      0.0376
    186  N         -1.5700   32.0180   23.3830 N.am  316  GLY316     -0.1942
    187  CA        -1.5970   33.3760   23.9300 C.3   316  GLY316      0.2014
    188  C         -2.8060   34.1830   23.5000 C.2   316  GLY316      0.2639
    189  O         -3.9210   33.6630   23.4360 O.2   316  GLY316     -0.2714
    190  N         -2.5810   35.4630   23.2190 N.am  317  GLY317     -0.1954
    191  CA        -3.6030   36.3260   22.6390 C.3   317  GLY317      0.1869
    192  C         -4.3740   37.1970   23.6090 C.2   317  GLY317      0.2309
    193  O         -5.1120   38.0870   23.1890 O.2   317  GLY317     -0.2863
@<TRIPOS>BOND
     1   150   149    1
     2   150   151    1
     3   149   148    1
     4   153   152    1
     5   151   152    2
     6   152   154    1
     7   148   145    1
     8   145   146    1
     9   145   144    1
    10    79    77    1
    11   146   147    2
    12   141   140    2
    13    73    74    1
    14    77    74    1
    15    77    78    1
    16   144   140   am
    17   140   139    1
    18   109   106    1
    19   102   101    2
    20    74    75    1
    21    76    75    2
    22   101   100    1
    23   101   105   am
    24    98    97    2
    25   143   142    1
    26   142   139    1
    27   100   103    1
    28   100    99    1
    29    75    80   am
    30   139   138    1
    31   103   104    1
    32   106   105    1
    33   106   107    1
    34    31    32    1
    35    97    99   am
    36    97    96    1
    37   107   108    2
    38   107   110   am
    39    34    33    2
    40   159   160    1
    41   159   156    1
    42   155   156    1
    43   138   133   am
    44    32    33    1
    45    80    81    1
    46   110   111    1
    47    33    35   am
    48    94    93    1
    49   162   160   ar
    50   162   164   ar
    51   111   112    1
    52   129   127   ar
    53   129   130   ar
    54   160   161   ar
    55   127   126   ar
    56   156   157    1
    57    92    91    2
    58    96    95    1
    59   158   157    2
    60    35    36    1
    61    81    82    1
    62   133   134    2
    63   133   132    1
    64    82    83    2
    65   164   165   ar
    66   130   128   ar
    67    91    95   am
    68    91    90    1
    69   161   163   ar
    70    93    90    1
    71   126   125    1
    72   126   128   ar
    73    36    39    1
    74    36    37    1
    75   131   132    1
    76   125   122    1
    77   112   113    2
    78   112   114   am
    79   123   124    2
    80   123   122    1
    81    63    61   ar
    82    63    62   ar
    83   165   163   ar
    84   165   166    1
    85   132   135    1
    86    90    89    1
    87    61    59   ar
    88    37    38    2
    89   122   121    1
    90   137   135    1
    91    62    60   ar
    92   114   115    1
    93    30    29    1
    94   121   116   am
    95   135   136    1
    96    59    60   ar
    97    59    58    1
    98    89    86   am
    99   116   115    1
   100   116   117    2
   101    28    29    1
   102    28    27    1
   103    45    44    1
   104    21    20    1
   105    44    41    1
   106   115   118    1
   107    25    24    2
   108    58    55    1
   109   178   177    1
   110    26    27    1
   111    26    23    1
   112   175   177   ar
   113   175   173   ar
   114    86    87    2
   115    86    85    1
   116    20    19    1
   117    24    23    1
   118   118   119    1
   119   118   120    1
   120   177   176   ar
   121    19    18    1
   122    23    22    1
   123    41    40    1
   124    41    42    1
   125    56    55    1
   126    56    57    2
   127   173   172   ar
   128    55    54    1
   129    85    88    1
   130    85    84    1
   131    54    48   am
   132    18    17    1
   133    42    46   am
   134    42    43    2
   135   176   174   ar
   136    12    10   am
   137    17    14    1
   138    46    47    1
   139   172   174   ar
   140   172   171    1
   141    16    15    2
   142    14    15    1
   143    14    13    1
   144    48    47    1
   145    48    49    2
   146    10    11    2
   147    10     9    1
   148   171   168    1
   149   168   167    1
   150   168   169    1
   151    47    50    1
   152     8     7    2
   153    13     7   am
   154    66    67    2
   155    66    65    1
   156   170   169    2
   157    50    51    1
   158     7     6    1
   159     9     6    1
   160    64    65    1
   161    53    51   am
   162    68    65    1
   163    68    69    1
   164    51    52    2
   165   185   183    1
   166     6     5    1
   167    72    70   am
   168   184   183    1
   169   183   180    1
   170    70    71    2
   171    70    69    1
   172     5     3   am
   173   182   181    2
   174   180   181    1
   175   180   179    1
   176     3     4    2
   177     3     2    1
   178   181   186   am
   179   191   190    1
   180   191   192    1
   181     2     1    1
   182   193   192    2
   183   190   188   am
   184   186   187    1
   185   189   188    2
   186   188   187    1
