@<TRIPOS>MOLECULE
tmp/4d9gA00.pdb
 86 81 0 0 0
SMALL
GASTEIGER

@<TRIPOS>ATOM
      1  N         23.8710   62.2270   67.3120 N.3   114  THR114     -0.1203
      2  CA        24.7730   61.5670   68.2570 C.3   114  THR114      0.1994
      3  C         26.0020   62.4100   68.5560 C.2   114  THR114      0.2617
      4  O         26.3930   63.2390   67.7400 O.2   114  THR114     -0.2717
      5  CB        25.2270   60.1840   67.7370 C.3   114  THR114      0.1784
      6  OG1       25.8610   59.4500   68.8010 O.3   114  THR114     -0.2211
      7  CG2       26.2020   60.3280   66.5510 C.3   114  THR114      0.0376
      8  N         26.6040   62.2080   69.7270 N.am  115  ASP115     -0.1973
      9  CA        27.9510   62.7270   69.9630 C.3   115  ASP115      0.1709
     10  C         29.0010   61.6220   69.7510 C.2   115  ASP115      0.2293
     11  O         30.1820   61.8150   70.0190 O.2   115  ASP115     -0.2864
     12  CB        28.0800   63.4060   71.3410 C.3   115  ASP115      0.1436
     13  CG        27.7880   62.4650   72.4960 C.2   115  ASP115      0.3671
     14  OD1       27.6710   62.9670   73.6440 O.co2 115  ASP115     -0.2456
     15  OD2       27.6660   61.2300   72.2720 O.co2 115  ASP115     -0.2456
     16  N         28.7500   57.3870   70.0230 N.3   117  ASN117     -0.1225
     17  CA        28.4350   55.9600   70.1040 C.3   117  ASN117      0.1785
     18  C         27.0580   55.5230   69.6040 C.2   117  ASN117      0.2597
     19  O         26.9490   54.5370   68.8620 O.2   117  ASN117     -0.2718
     20  CB        28.6610   55.4320   71.5230 C.3   117  ASN117      0.1169
     21  CG        30.1080   55.5300   71.9490 C.2   117  ASN117      0.2627
     22  OD1       31.0270   55.3720   71.1380 O.2   117  ASN117     -0.2716
     23  ND2       30.3210   55.7890   73.2290 N.am  117  ASN117     -0.0877
     24  N         26.0160   56.2360   70.0330 N.am  118  HIS118     -0.1975
     25  CA        24.6380   55.8950   69.6650 C.3   118  HIS118      0.1656
     26  C         24.4210   55.8380   68.1550 C.2   118  HIS118      0.2291
     27  O         23.9120   54.8350   67.6360 O.2   118  HIS118     -0.2864
     28  CB        23.6380   56.8340   70.3480 C.3   118  HIS118      0.0771
     29  CG        22.2400   56.6780   69.8410 C.ar  118  HIS118      0.0820
     30  ND1       21.5090   55.5630   70.0690 N.ar  118  HIS118     -0.2267
     31  CD2       21.4540   57.5160   69.0610 C.ar  118  HIS118      0.1154
     32  CE1       20.3110   55.6940   69.4710 C.ar  118  HIS118      0.1986
     33  NE2       20.2770   56.8870   68.8550 N.ar  118  HIS118     -0.2212
     34  N         24.5530   69.9640   70.6570 N.3   161  TYR161     -0.1241
     35  CA        23.8350   68.6900   70.6810 C.3   161  TYR161      0.1605
     36  C         22.3130   68.8660   70.5770 C.2   161  TYR161      0.2264
     37  O         21.6770   68.2640   69.7090 O.2   161  TYR161     -0.2867
     38  CB        24.2120   67.8680   71.9290 C.3   161  TYR161      0.0534
     39  CG        23.5510   66.5110   71.9710 C.ar  161  TYR161     -0.0201
     40  CD1       22.3360   66.3220   72.6400 C.ar  161  TYR161     -0.0009
     41  CD2       24.1150   65.4180   71.3150 C.ar  161  TYR161     -0.0009
     42  CE1       21.7090   65.0840   72.6590 C.ar  161  TYR161      0.0417
     43  CE2       23.4990   64.1670   71.3280 C.ar  161  TYR161      0.0417
     44  CZ        22.3030   64.0030   72.0010 C.ar  161  TYR161      0.1957
     45  OH        21.6880   62.7680   72.0190 O.3   161  TYR161     -0.2866
     46  N         18.1350   57.7090   71.7170 N.3   181  ASP181     -0.1225
     47  CA        18.3130   56.9290   72.9380 C.3   181  ASP181      0.1805
     48  C         17.7650   57.6300   74.1900 C.2   181  ASP181      0.2598
     49  O         18.2500   57.3950   75.3050 O.2   181  ASP181     -0.2718
     50  CB        19.7990   56.5460   73.1250 C.3   181  ASP181      0.1424
     51  CG        20.7560   57.7400   72.9840 C.2   181  ASP181      0.3668
     52  OD1       20.3550   58.8250   72.5050 O.co2 181  ASP181     -0.2456
     53  OD2       21.9400   57.5860   73.3420 O.co2 181  ASP181     -0.2456
     54  N         16.7850   58.5100   74.0030 N.am  182  THR182     -0.1953
     55  CA        16.0610   59.1090   75.1240 C.3   182  THR182      0.1897
     56  C         14.5740   59.1490   74.8100 C.2   182  THR182      0.2313
     57  O         14.1720   58.9000   73.6780 O.2   182  THR182     -0.2863
     58  CB        16.5700   60.5260   75.4960 C.3   182  THR182      0.1794
     59  OG1       15.9640   60.9400   76.7300 O.3   182  THR182     -0.2208
     60  CG2       16.2600   61.5600   74.4080 C.3   182  THR182      0.0378
     61  N         24.3040   59.5780   81.3770 N.3   221  GLY221     -0.1210
     62  CA        24.0270   60.7790   80.6070 C.3   221  GLY221      0.1956
     63  C         22.6030   61.1700   80.9380 C.2   221  GLY221      0.2611
     64  O         22.3650   61.9180   81.8970 O.2   221  GLY221     -0.2717
     65  N         21.6570   60.6340   80.1670 N.am  222  VAL222     -0.1979
     66  CA        20.2280   60.8170   80.4350 C.3   222  VAL222      0.1595
     67  C         19.6830   59.6980   81.3140 C.2   222  VAL222      0.2287
     68  O         18.5480   59.7650   81.7690 O.2   222  VAL222     -0.2864
     69  CB        19.3810   60.9330   79.1410 C.3   222  VAL222      0.0276
     70  CG1       19.7990   62.1600   78.3420 C.3   222  VAL222      0.0022
     71  CG2       19.4480   59.6490   78.3030 C.3   222  VAL222      0.0022
     72  N         29.1540   61.2330   75.1710 N.3   268  GLY268     -0.1225
     73  CA        28.3780   60.0980   75.6610 C.3   268  GLY268      0.1811
     74  C         27.6050   60.3540   76.9440 C.2   268  GLY268      0.2280
     75  O         26.6640   59.6130   77.2540 O.2   268  GLY268     -0.2866
     76  N         26.3740   63.6050   77.7740 N.3   270  ALA270     -0.1231
     77  CA        25.5110   64.7790   77.6480 C.3   270  ALA270      0.1694
     78  C         24.0980   64.4400   78.1290 C.2   270  ALA270      0.2592
     79  O         23.6420   63.3010   77.9960 O.2   270  ALA270     -0.2718
     80  CB        25.4800   65.2750   76.2150 C.3   270  ALA270      0.0304
     81  N         23.4200   65.4270   78.7040 N.am  271  CYS271     -0.1970
     82  CA        22.0700   65.2250   79.2060 C.3   271  CYS271      0.1712
     83  C         21.0970   66.3200   78.7620 C.2   271  CYS271      0.2296
     84  O         20.3200   66.1160   77.8210 O.2   271  CYS271     -0.2864
     85  CB        22.0710   65.0810   80.7270 C.3   271  CYS271      0.0983
     86  SG        20.4240   64.7060   81.3730 S.3   271  CYS271     -0.0798
@<TRIPOS>BOND
     1     7     5    1
     2     1     2    1
     3    27    26    2
     4     5     2    1
     5     5     6    1
     6     4     3    2
     7    26    25    1
     8     2     3    1
     9     3     8   am
    10    33    31   ar
    11    33    32   ar
    12    19    18    2
    13    31    29   ar
    14    32    30   ar
    15    18    24   am
    16    18    17    1
    17    25    24    1
    18    25    28    1
    19    37    36    2
    20     8     9    1
    21    10     9    1
    22    10    11    2
    23    29    30   ar
    24    29    28    1
    25     9    12    1
    26    16    17    1
    27    17    20    1
    28    36    35    1
    29    34    35    1
    30    35    38    1
    31    22    21    2
    32    41    43   ar
    33    41    39   ar
    34    43    44   ar
    35    12    13    1
    36    20    21    1
    37    46    47    1
    38    38    39    1
    39    21    23   am
    40    39    40   ar
    41    44    45    1
    42    44    42   ar
    43    15    13   ar
    44    13    14   ar
    45    52    51   ar
    46    40    42   ar
    47    47    50    1
    48    47    48    1
    49    51    50    1
    50    51    53   ar
    51    57    56    2
    52    54    48   am
    53    54    55    1
    54    48    49    2
    55    60    58    1
    56    56    55    1
    57    55    58    1
    58    72    73    1
    59    58    59    1
    60    73    74    1
    61    80    77    1
    62    74    75    2
    63    77    76    1
    64    77    78    1
    65    84    83    2
    66    79    78    2
    67    78    81   am
    68    71    69    1
    69    70    69    1
    70    81    82    1
    71    83    82    1
    72    69    66    1
    73    82    85    1
    74    65    66    1
    75    65    63   am
    76    66    67    1
    77    62    63    1
    78    62    61    1
    79    85    86    1
    80    63    64    2
    81    67    68    2
