@<TRIPOS>MOLECULE
tmp/4d9mB00.pdb
 169 163 0 0 0
SMALL
GASTEIGER

@<TRIPOS>ATOM
      1  N         65.7670   48.3360   87.2940 N.3    74  ALA74      -0.1231
      2  CA        66.7590   49.1630   86.5880 C.3    74  ALA74       0.1694
      3  C         67.9470   48.3180   86.1200 C.2    74  ALA74       0.2592
      4  O         68.0980   47.1720   86.5400 O.2    74  ALA74      -0.2718
      5  CB        67.2360   50.3050   87.4750 C.3    74  ALA74       0.0304
      6  N         68.7880   48.8880   85.2600 N.am   75  PHE75      -0.1962
      7  CA        69.9200   48.1640   84.6610 C.3    75  PHE75       0.1771
      8  C         71.2060   48.2480   85.4880 C.2    75  PHE75       0.2619
      9  O         72.1160   47.4220   85.3160 O.2    75  PHE75      -0.2715
     10  CB        70.2220   48.7260   83.2680 C.3    75  PHE75       0.0574
     11  CG        70.9980   50.0140   83.2930 C.ar   75  PHE75      -0.0200
     12  CD1       70.3470   51.2300   83.4390 C.ar   75  PHE75      -0.0042
     13  CD2       72.3840   50.0090   83.1970 C.ar   75  PHE75      -0.0042
     14  CE1       71.0560   52.4190   83.4810 C.ar   75  PHE75      -0.0003
     15  CE2       73.1020   51.1980   83.2420 C.ar   75  PHE75      -0.0003
     16  CZ        72.4340   52.4060   83.3850 C.ar   75  PHE75      -0.0000
     17  N         71.2800   49.2630   86.3500 N.am   76  LYS76      -0.1977
     18  CA        72.5340   49.7060   86.9710 C.3    76  LYS76       0.1596
     19  C         73.3570   48.6270   87.6730 C.2    76  LYS76       0.2287
     20  O         74.5790   48.7420   87.7550 O.2    76  LYS76      -0.2864
     21  CB        72.2790   50.8790   87.9410 C.3    76  LYS76       0.0298
     22  CG        72.2660   52.2570   87.2850 C.3    76  LYS76       0.0038
     23  CD        73.6710   52.6870   86.9000 C.3    76  LYS76       0.0206
     24  CE        73.7440   54.1190   86.4060 C.3    76  LYS76       0.1093
     25  NZ        75.1540   54.4970   86.0700 N.3    76  LYS76      -0.1314
     26  N         74.8020   57.8240   95.0430 N.3   111  THR111     -0.1203
     27  CA        73.8220   57.4740   94.0270 C.3   111  THR111      0.1994
     28  C         72.6220   58.3920   94.1710 C.2   111  THR111      0.2617
     29  O         72.3570   58.9010   95.2670 O.2   111  THR111     -0.2717
     30  CB        73.3440   56.0130   94.1930 C.3   111  THR111      0.1784
     31  OG1       72.6060   55.5990   93.0370 O.3   111  THR111     -0.2211
     32  CG2       72.4580   55.8520   95.4340 C.3   111  THR111      0.0376
     33  N         71.8960   58.6170   93.0760 N.am  112  ASP112     -0.1973
     34  CA        70.5760   59.2380   93.2010 C.3   112  ASP112      0.1709
     35  C         69.4520   58.2190   93.0350 C.2   112  ASP112      0.2293
     36  O         68.2810   58.5770   92.9050 O.2   112  ASP112     -0.2864
     37  CB        70.4020   60.4740   92.3010 C.3   112  ASP112      0.1436
     38  CG        70.9060   60.2580   90.8990 C.2   112  ASP112      0.3671
     39  OD1       71.5850   61.1750   90.3800 O.co2 112  ASP112     -0.2456
     40  OD2       70.6310   59.1830   90.3190 O.co2 112  ASP112     -0.2456
     41  N         69.5670   54.2690   91.5230 N.3   114  ASN114     -0.1225
     42  CA        69.7290   52.9100   91.0310 C.3   114  ASN114      0.1785
     43  C         71.1000   52.3020   91.3000 C.2   114  ASN114      0.2597
     44  O         71.2010   51.1370   91.7010 O.2   114  ASN114     -0.2718
     45  CB        69.3420   52.8380   89.5500 C.3   114  ASN114      0.1169
     46  CG        67.8810   53.1800   89.3200 C.2   114  ASN114      0.2627
     47  OD1       66.9890   52.6000   89.9420 O.2   114  ASN114     -0.2716
     48  ND2       67.6280   54.1250   88.4190 N.am  114  ASN114     -0.0877
     49  N         72.1510   53.0890   91.1050 N.am  115  HIS115     -0.1975
     50  CA        73.5070   52.5890   91.3130 C.3   115  HIS115      0.1656
     51  C         73.7270   52.0530   92.7100 C.2   115  HIS115      0.2291
     52  O         74.1890   50.9220   92.8730 O.2   115  HIS115     -0.2864
     53  CB        74.5480   53.6450   90.9660 C.3   115  HIS115      0.0771
     54  CG        75.9530   53.2430   91.3290 C.ar  115  HIS115      0.0820
     55  ND1       76.5010   52.0830   90.9190 N.ar  115  HIS115     -0.2267
     56  CD2       76.9200   53.8890   92.0890 C.ar  115  HIS115      0.1154
     57  CE1       77.7560   51.9900   91.3970 C.ar  115  HIS115      0.1986
     58  NE2       78.0100   53.0950   92.1150 N.ar  115  HIS115     -0.2212
     59  N         75.0710   66.1060   94.1770 N.3   160  TYR160     -0.1241
     60  CA        75.6800   64.8260   93.8260 C.3   160  TYR160      0.1605
     61  C         77.2060   64.8300   93.9730 C.2   160  TYR160      0.2264
     62  O         77.7500   64.0190   94.7240 O.2   160  TYR160     -0.2867
     63  CB        75.2670   64.4110   92.4100 C.3   160  TYR160      0.0534
     64  CG        75.7150   63.0220   92.0070 C.ar  160  TYR160     -0.0201
     65  CD1       76.9290   62.8270   91.3480 C.ar  160  TYR160     -0.0009
     66  CD2       74.9240   61.9050   92.2770 C.ar  160  TYR160     -0.0009
     67  CE1       77.3450   61.5610   90.9710 C.ar  160  TYR160      0.0417
     68  CE2       75.3340   60.6330   91.9040 C.ar  160  TYR160      0.0417
     69  CZ        76.5450   60.4650   91.2490 C.ar  160  TYR160      0.1957
     70  OH        76.9650   59.2050   90.8640 O.3   160  TYR160     -0.2866
     71  N         80.1350   54.8660   89.9670 N.3   181  ASP181     -0.1239
     72  CA        79.9130   54.7780   88.5210 C.3   181  ASP181      0.1674
     73  C         80.3630   56.0180   87.7430 C.2   181  ASP181      0.2266
     74  O         79.8410   56.3090   86.6590 O.2   181  ASP181     -0.2867
     75  CB        78.4430   54.4580   88.2160 C.3   181  ASP181      0.1410
     76  CG        77.4730   55.4800   88.7980 C.2   181  ASP181      0.3668
     77  OD1       77.9120   56.4600   89.4390 O.co2 181  ASP181     -0.2456
     78  OD2       76.2520   55.2930   88.6080 O.co2 181  ASP181     -0.2456
     79  N         70.3700   57.7040   76.6100 N.3   222  GLN222     -0.1231
     80  CA        70.2410   58.7380   77.6240 C.3   222  GLN222      0.1698
     81  C         71.5500   58.8320   78.4020 C.2   222  GLN222      0.2592
     82  O         72.2950   57.8530   78.5050 O.2   222  GLN222     -0.2718
     83  CB        69.0420   58.4960   78.5620 C.3   222  GLN222      0.0381
     84  CG        68.9570   57.1150   79.1990 C.3   222  GLN222      0.0905
     85  CD        68.2460   56.1070   78.3140 C.2   222  GLN222      0.2608
     86  OE1       68.8350   55.5500   77.3830 O.2   222  GLN222     -0.2717
     87  NE2       66.9760   55.8640   78.6020 N.am  222  GLN222     -0.0878
     88  N         71.8310   60.0160   78.9320 N.am  223  ALA223     -0.1966
     89  CA        73.0840   60.2360   79.6340 C.3   223  ALA223      0.1728
     90  C         72.9140   61.0640   80.8940 C.2   223  ALA223      0.2617
     91  O         72.1660   62.0470   80.9140 O.2   223  ALA223     -0.2715
     92  CB        74.1030   60.8850   78.7080 C.3   223  ALA223      0.0334
     93  N         73.6030   60.6260   81.9430 N.am  224  GLY224     -0.1940
     94  CA        73.8280   61.4200   83.1410 C.3   224  GLY224      0.2014
     95  C         75.2650   61.8830   83.0560 C.2   224  GLY224      0.2639
     96  O         75.5430   62.9520   82.5160 O.2   224  GLY224     -0.2714
     97  N         76.1810   61.0630   83.5650 N.am  225  VAL225     -0.1963
     98  CA        77.6180   61.3110   83.3840 C.3   225  VAL225      0.1727
     99  C         78.1980   60.5870   82.1580 C.2   225  VAL225      0.2617
    100  O         79.3340   60.8460   81.7540 O.2   225  VAL225     -0.2715
    101  CB        78.4470   60.9760   84.6500 C.3   225  VAL225      0.0290
    102  CG1       78.0970   61.9310   85.7830 C.3   225  VAL225      0.0023
    103  CG2       78.2550   59.5260   85.0720 C.3   225  VAL225      0.0023
    104  N         77.4170   59.6760   81.5820 N.am  226  GLY226     -0.1940
    105  CA        77.7990   58.9910   80.3460 C.3   226  GLY226      0.2014
    106  C         78.5690   57.6940   80.5000 C.2   226  GLY226      0.2639
    107  O         79.2690   57.2810   79.5820 O.2   226  GLY226     -0.2714
    108  N         78.4380   57.0500   81.6580 N.am  227  ALA227     -0.1963
    109  CA        79.0290   55.7350   81.8870 C.3   227  ALA227      0.1728
    110  C         78.2870   54.6790   81.0690 C.2   227  ALA227      0.2616
    111  O         78.9110   53.8400   80.4050 O.2   227  ALA227     -0.2715
    112  CB        78.9980   55.3850   83.3690 C.3   227  ALA227      0.0334
    113  N         76.9530   54.7260   81.1320 N.am  228  MET228     -0.1963
    114  CA        76.1010   53.7840   80.4160 C.3   228  MET228      0.1736
    115  C         76.2170   53.9850   78.9090 C.2   228  MET228      0.2616
    116  O         76.4550   53.0290   78.1870 O.2   228  MET228     -0.2715
    117  CB        74.6430   53.8950   80.8680 C.3   228  MET228      0.0427
    118  CG        73.6900   52.9670   80.1150 C.3   228  MET228      0.0599
    119  SD        73.1740   53.5660   78.4780 S.3   228  MET228     -0.1393
    120  CE        72.5000   52.0600   77.8030 C.3   228  MET228      0.0692
    121  N         76.0390   55.2220   78.4500 N.am  229  ALA229     -0.1977
    122  CA        76.2160   55.5570   77.0420 C.3   229  ALA229      0.1597
    123  C         77.5890   55.0960   76.5420 C.2   229  ALA229      0.2287
    124  O         77.6750   54.3780   75.5470 O.2   229  ALA229     -0.2864
    125  CB        76.0250   57.0500   76.8180 C.3   229  ALA229      0.0319
    126  N         65.8150   62.2770   87.3560 N.3   273  ALA273     -0.1231
    127  CA        66.7940   61.8840   88.3640 C.3   273  ALA273      0.1694
    128  C         67.5230   60.6410   87.8700 C.2   273  ALA273      0.2593
    129  O         66.9070   59.6080   87.5850 O.2   273  ALA273     -0.2718
    130  CB        66.1190   61.6230   89.7060 C.3   273  ALA273      0.0304
    131  N         68.8380   60.7540   87.7610 N.am  274  GLY274     -0.1942
    132  CA        69.6430   59.7290   87.1160 C.3   274  GLY274      0.2014
    133  C         70.4230   60.3560   85.9820 C.2   274  GLY274      0.2639
    134  O         71.5220   59.9140   85.6560 O.2   274  GLY274     -0.2714
    135  N         69.8550   61.4060   85.3950 N.am  275  LEU275     -0.1963
    136  CA        70.4840   62.1030   84.2760 C.3   275  LEU275      0.1728
    137  C         71.0610   63.4660   84.6780 C.2   275  LEU275      0.2616
    138  O         71.4800   64.2560   83.8250 O.2   275  LEU275     -0.2715
    139  CB        69.5130   62.2150   83.0930 C.3   275  LEU275      0.0311
    140  CG        68.8460   60.9130   82.6250 C.3   275  LEU275      0.0022
    141  CD1       67.9270   61.1420   81.4370 C.3   275  LEU275      0.0001
    142  CD2       69.8760   59.8460   82.3000 C.3   275  LEU275      0.0001
    143  N         71.0830   63.7280   85.9820 N.am  276  ALA276     -0.1977
    144  CA        71.7540   64.9060   86.5280 C.3   276  ALA276      0.1597
    145  C         73.2610   64.7740   86.3260 C.2   276  ALA276      0.2287
    146  O         73.8110   63.6720   86.3870 O.2   276  ALA276     -0.2864
    147  CB        71.4240   65.0790   88.0050 C.3   276  ALA276      0.0319
    148  N         64.0670   58.9240   83.8280 N.3   325  SER325     -0.1217
    149  CA        65.3520   58.7480   83.1580 C.3   325  SER325      0.1889
    150  C         65.3030   57.6270   82.1230 C.2   325  SER325      0.2288
    151  O         66.1300   57.5770   81.2090 O.2   325  SER325     -0.2866
    152  CB        66.4510   58.4540   84.1810 C.3   325  SER325      0.2089
    153  OG        66.6510   59.5620   85.0320 O.3   325  SER325     -0.2183
    154  N         65.9350   52.3530   80.5670 N.3   362  THR362     -0.1203
    155  CA        66.9480   52.0880   81.5770 C.3   362  THR362      0.1994
    156  C         66.3770   51.7460   82.9630 C.2   362  THR362      0.2617
    157  O         67.0500   51.0960   83.7610 O.2   362  THR362     -0.2717
    158  CB        67.9650   53.2500   81.6690 C.3   362  THR362      0.1784
    159  OG1       67.2740   54.5000   81.7890 O.3   362  THR362     -0.2211
    160  CG2       68.8470   53.2970   80.4320 C.3   362  THR362      0.0376
    161  N         65.1440   52.1730   83.2370 N.am  363  GLU363     -0.1979
    162  CA        64.4660   51.8600   84.5000 C.3   363  GLU363      0.1602
    163  C         62.9360   51.8610   84.3750 C.2   363  GLU363      0.2287
    164  O         62.3710   52.5550   83.5340 O.2   363  GLU363     -0.2864
    165  CB        64.8750   52.8520   85.5920 C.3   363  GLU363      0.0415
    166  CG        64.5570   54.2970   85.2390 C.3   363  GLU363      0.1163
    167  CD        64.5110   55.2260   86.4320 C.2   363  GLU363      0.3649
    168  OE1       65.0630   54.8890   87.5120 O.co2 363  GLU363     -0.2457
    169  OE2       63.9180   56.3130   86.2780 O.co2 363  GLU363     -0.2457
@<TRIPOS>BOND
     1   124   123    2
     2   123   122    1
     3    79    80    1
     4   125   122    1
     5   122   121    1
     6    86    85    2
     7    80    81    1
     8    80    83    1
     9   120   119    1
    10   116   115    2
    11    85    87   am
    12    85    84    1
    13    81    82    2
    14    81    88   am
    15   121   115   am
    16   119   118    1
    17    83    84    1
    18    92    89    1
    19   115   114    1
    20    88    89    1
    21   107   106    2
    22    89    90    1
    23   118   117    1
    24   105   106    1
    25   105   104    1
    26   111   110    2
    27   114   117    1
    28   114   113    1
    29   160   158    1
    30   106   108   am
    31   154   155    1
    32    90    91    2
    33    90    93   am
    34   110   113   am
    35   110   109    1
    36   151   150    2
    37   141   140    1
    38   155   158    1
    39   155   156    1
    40   104    99   am
    41   108   109    1
    42   158   159    1
    43   100    99    2
    44   109   112    1
    45    93    94    1
    46   150   149    1
    47    99    98    1
    48   142   140    1
    49    96    95    2
    50   140   139    1
    51   156   161   am
    52   156   157    2
    53    95    94    1
    54    95    97   am
    55   139   136    1
    56   149   148    1
    57   149   152    1
    58    13    15   ar
    59    13    11   ar
    60   161   162    1
    61    15    16   ar
    62    10    11    1
    63    10     7    1
    64    11    12   ar
    65    98    97    1
    66    98   101    1
    67    16    14   ar
    68    12    14   ar
    69   164   163    2
    70   138   137    2
    71   152   153    1
    72   136   137    1
    73   136   135    1
    74   163   162    1
    75   162   165    1
    76   101   103    1
    77   101   102    1
    78     7     6    1
    79     7     8    1
    80   137   143   am
    81   166   165    1
    82   166   167    1
    83     6     3   am
    84     9     8    2
    85   135   133   am
    86     8    17   am
    87   134   133    2
    88   133   132    1
    89   143   144    1
    90    25    24    1
    91     3     4    2
    92     3     2    1
    93   169   167   ar
    94   145   146    2
    95   145   144    1
    96    17    18    1
    97    24    23    1
    98   167   168   ar
    99   144   147    1
   100     2     1    1
   101     2     5    1
   102    74    73    2
   103    23    22    1
   104    18    19    1
   105    18    21    1
   106   132   131    1
   107    22    21    1
   108   126   127    1
   109   129   128    2
   110    19    20    2
   111    73    72    1
   112   131   128   am
   113   128   127    1
   114    75    72    1
   115    75    76    1
   116   127   130    1
   117    48    46   am
   118    72    71    1
   119    78    76   ar
   120    76    77   ar
   121    46    45    1
   122    46    47    2
   123    45    42    1
   124    40    38   ar
   125    39    38   ar
   126    70    69    1
   127    38    37    1
   128    55    54   ar
   129    55    57   ar
   130    53    50    1
   131    53    54    1
   132    67    69   ar
   133    67    65   ar
   134    42    43    1
   135    42    41    1
   136    49    43   am
   137    49    50    1
   138    69    68   ar
   139    43    44    2
   140    50    51    1
   141    54    56   ar
   142    65    64   ar
   143    57    58   ar
   144    68    66   ar
   145    64    66   ar
   146    64    63    1
   147    56    58   ar
   148    37    34    1
   149    63    60    1
   150    51    52    2
   151    36    35    2
   152    35    34    1
   153    31    30    1
   154    33    34    1
   155    33    28   am
   156    60    61    1
   157    60    59    1
   158    61    62    2
   159    27    28    1
   160    27    30    1
   161    27    26    1
   162    28    29    2
   163    30    32    1
