@<TRIPOS>MOLECULE
tmp/4d9nA00.pdb
 80 75 0 0 0
SMALL
GASTEIGER

@<TRIPOS>ATOM
      1  N         20.4640   61.8470   66.0020 N.3   116  THR116     -0.1203
      2  CA        21.5120   62.7900   66.3660 C.3   116  THR116      0.1994
      3  C         22.3950   62.1410   67.4220 C.2   116  THR116      0.2619
      4  O         21.8940   61.5710   68.3940 O.2   116  THR116     -0.2717
      5  CB        20.9230   64.1040   66.9240 C.3   116  THR116      0.1784
      6  OG1       20.0400   64.6800   65.9600 O.3   116  THR116     -0.2211
      7  CG2       22.0200   65.1100   67.2430 C.3   116  THR116      0.0376
      8  N         23.7070   62.2300   67.2240 N.am  117  THR117     -0.1938
      9  CA        24.6660   61.6660   68.1650 C.3   117  THR117      0.2028
     10  C         25.9070   62.5360   68.2960 C.2   117  THR117      0.2642
     11  O         26.2200   63.3290   67.4060 O.2   117  THR117     -0.2714
     12  CB        25.0920   60.2390   67.7560 C.3   117  THR117      0.1808
     13  OG1       25.7180   59.5860   68.8660 O.3   117  THR117     -0.2208
     14  CG2       26.0640   60.2640   66.5720 C.3   117  THR117      0.0379
     15  N         26.6030   62.3870   69.4180 N.am  118  ASP118     -0.1971
     16  CA        27.9390   62.9450   69.5660 C.3   118  ASP118      0.1709
     17  C         28.9810   61.8250   69.4860 C.2   118  ASP118      0.2293
     18  O         30.1670   62.0470   69.7520 O.2   118  ASP118     -0.2864
     19  CB        28.0690   63.7620   70.8640 C.3   118  ASP118      0.1436
     20  CG        27.6820   62.9740   72.1050 C.2   118  ASP118      0.3671
     21  OD1       27.3010   63.6100   73.1150 O.co2 118  ASP118     -0.2456
     22  OD2       27.7520   61.7250   72.0820 O.co2 118  ASP118     -0.2456
     23  N         28.6430   57.4530   69.9910 N.3   120  ASN120     -0.1225
     24  CA        28.3500   56.0180   70.0510 C.3   120  ASN120      0.1785
     25  C         26.9530   55.5950   69.5910 C.2   120  ASN120      0.2597
     26  O         26.8140   54.6070   68.8660 O.2   120  ASN120     -0.2718
     27  CB        28.6380   55.4730   71.4550 C.3   120  ASN120      0.1169
     28  CG        30.0900   55.6590   71.8690 C.2   120  ASN120      0.2627
     29  OD1       31.0070   55.5150   71.0600 O.2   120  ASN120     -0.2716
     30  ND2       30.3030   55.9650   73.1400 N.am  120  ASN120     -0.0877
     31  N         25.9300   56.3390   70.0100 N.am  121  HIS121     -0.1975
     32  CA        24.5470   56.0170   69.6600 C.3   121  HIS121      0.1656
     33  C         24.3450   55.9110   68.1760 C.2   121  HIS121      0.2291
     34  O         23.8550   54.8930   67.6840 O.2   121  HIS121     -0.2864
     35  CB        23.5780   57.0290   70.2570 C.3   121  HIS121      0.0771
     36  CG        22.1490   56.8330   69.8140 C.ar  121  HIS121      0.0820
     37  ND1       21.4020   55.7880   70.2200 N.ar  121  HIS121     -0.2267
     38  CD2       21.3430   57.5880   68.9640 C.ar  121  HIS121      0.1154
     39  CE1       20.1800   55.8700   69.6620 C.ar  121  HIS121      0.1986
     40  NE2       20.1460   56.9720   68.8930 N.ar  121  HIS121     -0.2212
     41  N         24.2940   70.2460   70.1940 N.3   166  TYR166     -0.1241
     42  CA        23.5380   68.9890   70.2350 C.3   166  TYR166      0.1605
     43  C         22.0200   69.1940   70.1970 C.2   166  TYR166      0.2264
     44  O         21.3420   68.6530   69.3200 O.2   166  TYR166     -0.2867
     45  CB        23.9360   68.1470   71.4580 C.3   166  TYR166      0.0534
     46  CG        23.2240   66.8090   71.5360 C.ar  166  TYR166     -0.0201
     47  CD1       23.7210   65.6920   70.8620 C.ar  166  TYR166     -0.0009
     48  CD2       22.0490   66.6630   72.2780 C.ar  166  TYR166     -0.0009
     49  CE1       23.0700   64.4690   70.9260 C.ar  166  TYR166      0.0417
     50  CE2       21.3900   65.4450   72.3460 C.ar  166  TYR166      0.0417
     51  CZ        21.9040   64.3520   71.6680 C.ar  166  TYR166      0.1957
     52  OH        21.2560   63.1410   71.7350 O.3   166  TYR166     -0.2866
     53  N         17.9110   57.9280   71.6470 N.3   187  ASP187     -0.1239
     54  CA        18.0990   57.2110   72.9060 C.3   187  ASP187      0.1674
     55  C         17.5420   57.9730   74.1120 C.2   187  ASP187      0.2266
     56  O         17.9750   57.7590   75.2490 O.2   187  ASP187     -0.2867
     57  CB        19.5810   56.8410   73.1120 C.3   187  ASP187      0.1410
     58  CG        20.5110   58.0510   73.0800 C.2   187  ASP187      0.3668
     59  OD1       20.1410   59.1020   72.5140 O.co2 187  ASP187     -0.2456
     60  OD2       21.6290   57.9440   73.6220 O.co2 187  ASP187     -0.2456
     61  N         24.2860   60.3030   81.0550 N.3   230  GLY230     -0.1210
     62  CA        24.0590   61.4460   80.1740 C.3   230  GLY230      0.1956
     63  C         22.6240   61.9000   80.3290 C.2   230  GLY230      0.2611
     64  O         22.3470   62.8230   81.0950 O.2   230  GLY230     -0.2717
     65  N         21.7110   61.2480   79.6090 N.am  231  VAL231     -0.1979
     66  CA        20.2700   61.4740   79.8010 C.3   231  VAL231      0.1595
     67  C         19.6910   60.5270   80.8540 C.2   231  VAL231      0.2287
     68  O         18.6620   60.8230   81.4620 O.2   231  VAL231     -0.2864
     69  CB        19.4480   61.3720   78.4870 C.3   231  VAL231      0.0276
     70  CG1       19.8490   62.4680   77.5050 C.3   231  VAL231      0.0022
     71  CG2       19.5640   59.9880   77.8540 C.3   231  VAL231      0.0022
     72  N         29.3620   61.8700   74.9580 N.3   281  GLY281     -0.1225
     73  CA        28.5920   60.7360   75.4540 C.3   281  GLY281      0.1811
     74  C         27.7130   61.0620   76.6450 C.2   281  GLY281      0.2280
     75  O         26.6640   60.4430   76.8330 O.2   281  GLY281     -0.2866
     76  N         26.5200   64.2420   77.4070 N.3   283  ALA283     -0.1245
     77  CA        25.7050   65.4330   77.1850 C.3   283  ALA283      0.1562
     78  C         24.2430   65.1120   77.4880 C.2   283  ALA283      0.2260
     79  O         23.7880   63.9880   77.2530 O.2   283  ALA283     -0.2867
     80  CB        25.8610   65.9320   75.7570 C.3   283  ALA283      0.0290
@<TRIPOS>BOND
     1     6     5    1
     2     1     2    1
     3     2     5    1
     4     2     3    1
     5    14    12    1
     6     5     7    1
     7     8     3   am
     8     8     9    1
     9    11    10    2
    10     3     4    2
    11    34    33    2
    12    12     9    1
    13    12    13    1
    14     9    10    1
    15    33    32    1
    16    10    15   am
    17    26    25    2
    18    40    38   ar
    19    40    39   ar
    20    38    36   ar
    21    44    43    2
    22    15    16    1
    23    17    16    1
    24    17    18    2
    25    16    19    1
    26    25    31   am
    27    25    24    1
    28    32    31    1
    29    32    35    1
    30    39    37   ar
    31    36    37   ar
    32    36    35    1
    33    23    24    1
    34    24    27    1
    35    41    42    1
    36    43    42    1
    37    42    45    1
    38    47    49   ar
    39    47    46   ar
    40    19    20    1
    41    49    51   ar
    42    29    28    2
    43    27    28    1
    44    45    46    1
    45    46    48   ar
    46    53    54    1
    47    51    52    1
    48    51    50   ar
    49    28    30   am
    50    22    20   ar
    51    20    21   ar
    52    48    50   ar
    53    59    58   ar
    54    54    57    1
    55    54    55    1
    56    58    57    1
    57    58    60   ar
    58    55    56    2
    59    72    73    1
    60    73    74    1
    61    80    77    1
    62    74    75    2
    63    77    76    1
    64    77    78    1
    65    79    78    2
    66    70    69    1
    67    71    69    1
    68    69    66    1
    69    65    66    1
    70    65    63   am
    71    66    67    1
    72    62    63    1
    73    62    61    1
    74    63    64    2
    75    67    68    2
