@<TRIPOS>MOLECULE
tmp/4d9tA00.pdb
 156 144 0 0 0
SMALL
GASTEIGER

@<TRIPOS>ATOM
      1  N        -33.6950    7.2960  -25.8800 N.3    14  ILE14      -0.1231
      2  CA       -33.1540    8.5470  -26.3920 C.3    14  ILE14       0.1692
      3  C        -31.6520    8.6310  -26.1750 C.2    14  ILE14       0.2593
      4  O        -31.0350    9.6480  -26.4770 O.2    14  ILE14      -0.2718
      5  CB       -33.8570    9.7950  -25.7820 C.3    14  ILE14       0.0266
      6  CG1      -33.9010    9.7010  -24.2590 C.3    14  ILE14       0.0019
      7  CG2      -35.2590    9.9160  -26.3050 C.3    14  ILE14       0.0020
      8  CD1      -34.8730   10.6350  -23.6210 C.3    14  ILE14       0.0001
      9  N        -31.0610    7.5530  -25.6740 N.am   15  GLY15      -0.1942
     10  CA       -29.6450    7.5430  -25.3660 C.3    15  GLY15       0.2014
     11  C        -29.2960    6.2610  -24.6510 C.2    15  GLY15       0.2639
     12  O        -30.0910    5.7330  -23.8750 O.2    15  GLY15      -0.2714
     13  N        -28.1030    5.7500  -24.9090 N.am   16  VAL16      -0.1963
     14  CA       -27.7880    4.4300  -24.4070 C.3    16  VAL16       0.1727
     15  C        -26.3020    4.1480  -24.2170 C.2    16  VAL16       0.2616
     16  O        -25.4750    4.3970  -25.0980 O.2    16  VAL16      -0.2715
     17  CB       -28.5040    3.3380  -25.2510 C.3    16  VAL16       0.0290
     18  CG1      -28.7320    3.8220  -26.6790 C.3    16  VAL16       0.0023
     19  CG2      -27.7580    2.0120  -25.2110 C.3    16  VAL16       0.0023
     20  N        -25.9920    3.6390  -23.0300 N.am   17  GLY17      -0.1955
     21  CA       -24.6430    3.2890  -22.6320 C.3    17  GLY17       0.1869
     22  C        -24.7210    2.0160  -21.8190 C.2    17  GLY17       0.2309
     23  O        -25.8050    1.4750  -21.6110 O.2    17  GLY17      -0.2863
     24  N        -26.3290    2.6650  -18.3000 N.3    20  SER20      -0.1202
     25  CA       -27.6920    3.1780  -18.3220 C.3    20  SER20       0.2020
     26  C        -28.1630    3.6330  -19.6990 C.2    20  SER20       0.2619
     27  O        -27.3620    3.9670  -20.5740 O.2    20  SER20      -0.2717
     28  CB       -27.8330    4.3380  -17.3360 C.3    20  SER20       0.2103
     29  OG       -27.0840    5.4580  -17.7640 O.3    20  SER20      -0.2182
     30  N        -29.4830    3.6320  -19.8600 N.am   21  VAL21      -0.1965
     31  CA       -30.1570    4.1490  -21.0400 C.3    21  VAL21       0.1727
     32  C        -31.1720    5.1940  -20.5870 C.2    21  VAL21       0.2616
     33  O        -31.7200    5.0930  -19.4880 O.2    21  VAL21      -0.2715
     34  CB       -30.9460    3.0390  -21.7610 C.3    21  VAL21       0.0290
     35  CG1      -31.8650    2.3430  -20.7780 C.3    21  VAL21       0.0023
     36  CG2      -31.7500    3.6210  -22.9210 C.3    21  VAL21       0.0023
     37  N        -31.4170    6.2000  -21.4220 N.am   22  CYS22      -0.1968
     38  CA       -32.4750    7.1700  -21.1760 C.3    22  CYS22       0.1712
     39  C        -33.6660    6.8440  -22.0710 C.2    22  CYS22       0.2296
     40  O        -33.5120    6.6020  -23.2640 O.2    22  CYS22      -0.2864
     41  CB       -32.0050    8.5950  -21.4810 C.3    22  CYS22       0.0983
     42  SG       -30.4920    9.1700  -20.6480 S.3    22  CYS22      -0.0798
     43  N        -37.9670   12.8540  -19.3890 N.3    35  ALA35      -0.1245
     44  CA       -36.9290   11.8650  -19.6230 C.3    35  ALA35       0.1562
     45  C        -36.7410   11.0560  -18.3550 C.2    35  ALA35       0.2260
     46  O        -37.0200   11.5320  -17.2550 O.2    35  ALA35      -0.2867
     47  CB       -35.6270   12.5360  -20.0100 C.3    35  ALA35       0.0290
     48  N        -33.5900    8.4960  -16.8800 N.3    37  LYS37      -0.1245
     49  CA       -32.3760    7.7290  -16.9210 C.3    37  LYS37       0.1561
     50  C        -32.6350    6.4820  -16.0940 C.2    37  LYS37       0.2260
     51  O        -33.1660    6.5730  -14.9950 O.2    37  LYS37      -0.2867
     52  CB       -31.2770    8.5360  -16.2630 C.3    37  LYS37       0.0271
     53  CG       -29.9010    8.0470  -16.5050 C.3    37  LYS37       0.0035
     54  CD       -28.9310    9.1150  -16.1090 C.3    37  LYS37       0.0206
     55  CE       -27.5470    8.7870  -16.5950 C.3    37  LYS37       0.1093
     56  NZ       -26.6210    9.9200  -16.3530 N.3    37  LYS37      -0.1314
     57  N        -24.2980   11.4720   -8.2920 N.3    49  GLU49      -0.1245
     58  CA       -24.9240   12.2120   -9.3880 C.3    49  GLU49       0.1567
     59  C        -26.2110   12.8190   -8.8560 C.2    49  GLU49       0.2260
     60  O        -26.4250   14.0240   -8.9320 O.2    49  GLU49      -0.2867
     61  CB       -25.2200   11.3250  -10.6140 C.3    49  GLU49       0.0388
     62  CG       -25.8490   12.1270  -11.7490 C.3    49  GLU49       0.1160
     63  CD       -26.1740   11.3050  -12.9850 C.2    49  GLU49       0.3649
     64  OE1      -25.7310   10.1420  -13.0890 O.co2  49  GLU49      -0.2457
     65  OE2      -26.8820   11.8350  -13.8660 O.co2  49  GLU49      -0.2457
     66  N        -27.7410   16.5340   -8.2260 N.3    53  LEU53      -0.1245
     67  CA       -28.9530   17.0100   -8.8870 C.3    53  LEU53       0.1561
     68  C        -29.9960   17.5350   -7.9040 C.2    53  LEU53       0.2260
     69  O        -30.6100   18.5740   -8.1420 O.2    53  LEU53      -0.2867
     70  CB       -29.5870   15.9190   -9.7580 C.3    53  LEU53       0.0270
     71  CG       -29.0300   15.5480  -11.1430 C.3    53  LEU53       0.0019
     72  CD1      -30.0640   14.7080  -11.8770 C.3    53  LEU53       0.0001
     73  CD2      -28.6670   16.7740  -11.9670 C.3    53  LEU53       0.0001
     74  N        -30.3060   20.9900  -15.3160 N.3    63  ILE63      -0.1245
     75  CA       -31.4820   20.1780  -15.5830 C.3    63  ILE63       0.1561
     76  C        -32.1990   19.8890  -14.2700 C.2    63  ILE63       0.2260
     77  O        -31.5630   19.6970  -13.2280 O.2    63  ILE63      -0.2867
     78  CB       -31.1040   18.8850  -16.2970 C.3    63  ILE63       0.0252
     79  CG1      -32.3110   17.9570  -16.3960 C.3    63  ILE63       0.0019
     80  CG2      -29.9700   18.1950  -15.5770 C.3    63  ILE63       0.0019
     81  CD1      -31.9520   16.5540  -16.7410 C.3    63  ILE63       0.0001
     82  N        -34.3730    7.9040  -12.8800 N.3    77  VAL77      -0.1245
     83  CA       -34.1840    9.3160  -12.5890 C.3    77  VAL77       0.1561
     84  C        -34.9770   10.1730  -13.5670 C.2    77  VAL77       0.2260
     85  O        -34.6180   10.2820  -14.7370 O.2    77  VAL77      -0.2867
     86  CB       -32.7030    9.6990  -12.6110 C.3    77  VAL77       0.0252
     87  CG1      -32.5500   11.1720  -12.3200 C.3    77  VAL77       0.0019
     88  CG2      -31.9410    8.8710  -11.5850 C.3    77  VAL77       0.0019
     89  N        -36.5450   13.5520  -15.1620 N.3    79  THR79      -0.1203
     90  CA       -36.2760   14.9730  -15.3390 C.3    79  THR79       0.1994
     91  C        -37.1660   15.5730  -16.4130 C.2    79  THR79       0.2618
     92  O        -37.8600   14.8520  -17.1310 O.2    79  THR79      -0.2717
     93  CB       -34.8290   15.2240  -15.7820 C.3    79  THR79       0.1784
     94  OG1      -34.6230   14.6580  -17.0840 O.3    79  THR79      -0.2211
     95  CG2      -33.8500   14.6170  -14.7930 C.3    79  THR79       0.0376
     96  N        -37.1500   16.9010  -16.5120 N.am   80  GLU80      -0.1965
     97  CA       -37.7580   17.5810  -17.6500 C.3    80  GLU80       0.1733
     98  C        -37.1860   16.9670  -18.9280 C.2    80  GLU80       0.2616
     99  O        -36.0260   16.5540  -18.9570 O.2    80  GLU80      -0.2715
    100  CB       -37.5090   19.1030  -17.5890 C.3    80  GLU80       0.0429
    101  CG       -36.0980   19.5140  -17.1470 C.3    80  GLU80       0.1163
    102  CD       -35.9220   21.0270  -16.9820 C.2    80  GLU80       0.3649
    103  OE1      -36.8650   21.7910  -17.2760 O.co2  80  GLU80      -0.2457
    104  OE2      -34.8320   21.4580  -16.5500 O.co2  80  GLU80      -0.2457
    105  N        -38.0050   16.8700  -19.9690 N.am   81  LEU81      -0.1963
    106  CA       -37.5290   16.3820  -21.2550 C.3    81  LEU81       0.1728
    107  C        -37.0640   17.5700  -22.0900 C.2    81  LEU81       0.2616
    108  O        -37.8010   18.5430  -22.2520 O.2    81  LEU81      -0.2715
    109  CB       -38.6400   15.6170  -21.9800 C.3    81  LEU81       0.0311
    110  CG       -38.3470   15.1140  -23.4040 C.3    81  LEU81       0.0022
    111  CD1      -37.4710   13.8690  -23.3880 C.3    81  LEU81       0.0001
    112  CD2      -39.6510   14.8470  -24.1410 C.3    81  LEU81       0.0001
    113  N        -35.8330   17.4970  -22.5930 N.am   82  MET82      -0.1977
    114  CA       -35.2430   18.5910  -23.3630 C.3    82  MET82       0.1605
    115  C        -35.6940   18.5190  -24.8090 C.2    82  MET82       0.2287
    116  O        -35.3140   17.6040  -25.5360 O.2    82  MET82      -0.2864
    117  CB       -33.7150   18.5290  -23.3280 C.3    82  MET82       0.0413
    118  CG       -33.0900   18.6120  -21.9520 C.3    82  MET82       0.0598
    119  SD       -33.6150   20.0360  -20.9900 S.3    82  MET82      -0.1393
    120  CE       -34.8080   19.2460  -19.9240 C.3    82  MET82       0.0692
    121  N        -22.2460   17.8070  -26.0940 N.3   129  SER129     -0.1202
    122  CA       -23.3820   16.9030  -26.2370 C.3   129  SER129      0.2020
    123  C        -24.1700   16.7830  -24.9400 C.2   129  SER129      0.2618
    124  O        -25.3210   16.3470  -24.9460 O.2   129  SER129     -0.2717
    125  CB       -22.8950   15.5180  -26.6520 C.3   129  SER129      0.2103
    126  OG       -22.4590   14.7770  -25.5300 O.3   129  SER129     -0.2182
    127  N        -23.5430   17.1560  -23.8290 N.am  130  ASN130     -0.1974
    128  CA       -24.2070   17.1100  -22.5320 C.3   130  ASN130      0.1688
    129  C        -24.9200   18.4300  -22.2320 C.2   130  ASN130      0.2292
    130  O        -25.3460   18.6800  -21.0990 O.2   130  ASN130     -0.2864
    131  CB       -23.2050   16.7740  -21.4250 C.3   130  ASN130      0.1181
    132  CG       -22.5870   15.3920  -21.5960 C.2   130  ASN130      0.2629
    133  OD1      -23.1510   14.5320  -22.2710 O.2   130  ASN130     -0.2716
    134  ND2      -21.4320   15.1720  -20.9760 N.am  130  ASN130     -0.0877
    135  N        -28.0090   20.7090  -23.5850 N.3   132  LEU132     -0.1245
    136  CA       -29.1980   20.7280  -24.4250 C.3   132  LEU132      0.1561
    137  C        -30.0090   22.0090  -24.2910 C.2   132  LEU132      0.2260
    138  O        -29.8350   22.7800  -23.3480 O.2   132  LEU132     -0.2867
    139  CB       -30.0910   19.5290  -24.1010 C.3   132  LEU132      0.0270
    140  CG       -29.3290   18.2200  -23.9310 C.3   132  LEU132      0.0019
    141  CD1      -30.2660   17.0980  -23.5190 C.3   132  LEU132      0.0001
    142  CD2      -28.5980   17.8780  -25.2150 C.3   132  LEU132      0.0001
    143  N        -26.7120   18.8350  -18.4770 N.3   146  CYS146     -0.1221
    144  CA       -27.6030   17.6830  -18.3420 C.3   146  CYS146      0.1808
    145  C        -27.0360   16.3560  -17.8220 C.2   146  CYS146      0.2601
    146  O        -27.7870   15.5560  -17.2640 O.2   146  CYS146     -0.2717
    147  CB       -28.3090   17.4240  -19.6730 C.3   146  CYS146      0.0970
    148  SG       -29.5690   18.6240  -20.0640 S.3   146  CYS146     -0.0800
    149  N        -25.7490   16.0930  -18.0010 N.am  147  ASP147     -0.1973
    150  CA       -25.2260   14.8420  -17.4730 C.3   147  ASP147      0.1709
    151  C        -24.1620   15.0360  -16.4180 C.2   147  ASP147      0.2293
    152  O        -23.0290   15.4150  -16.7080 O.2   147  ASP147     -0.2864
    153  CB       -24.7110   13.9210  -18.5700 C.3   147  ASP147      0.1436
    154  CG       -23.8750   12.7840  -18.0140 C.2   147  ASP147      0.3671
    155  OD1      -24.4100   11.6840  -17.7810 O.co2 147  ASP147     -0.2456
    156  OD2      -22.6720   13.0020  -17.8000 O.co2 147  ASP147     -0.2456
@<TRIPOS>BOND
     1    18    17    1
     2   125   122    1
     3   125   126    1
     4     4     3    2
     5     2     3    1
     6     2     1    1
     7     2     5    1
     8     7     5    1
     9   122   121    1
    10   122   123    1
    11     3     9   am
    12     5     6    1
    13     9    10    1
    14   116   115    2
    15    10    11    1
    16    17    19    1
    17    17    14    1
    18   142   140    1
    19    16    15    2
    20   124   123    2
    21   123   127   am
    22    13    11   am
    23    13    14    1
    24   115   114    1
    25    11    12    2
    26   136   137    1
    27   136   139    1
    28   136   135    1
    29    14    15    1
    30   137   138    2
    31     6     8    1
    32    15    20   am
    33   112   110    1
    34   139   140    1
    35   140   141    1
    36   127   128    1
    37   110   111    1
    38   110   109    1
    39   114   117    1
    40   114   113    1
    41   117   118    1
    42    40    39    2
    43    20    21    1
    44    36    34    1
    45    21    22    1
    46   113   107   am
    47   128   129    1
    48   128   131    1
    49   133   132    2
    50   108   107    2
    51   129   130    2
    52   107   106    1
    53    39    38    1
    54   109   106    1
    55   118   119    1
    56    22    23    2
    57    34    31    1
    58    34    35    1
    59   132   131    1
    60   132   134   am
    61    41    38    1
    62    41    42    1
    63    37    38    1
    64    37    32   am
    65   106   105    1
    66    31    32    1
    67    31    30    1
    68   119   120    1
    69    32    33    2
    70    27    26    2
    71   148   147    1
    72    47    44    1
    73   105    98   am
    74    30    26   am
    75    26    25    1
    76   147   144    1
    77    44    43    1
    78    44    45    1
    79    99    98    2
    80    98    97    1
    81   153   154    1
    82   153   150    1
    83   143   144    1
    84    45    46    2
    85   144   145    1
    86    25    24    1
    87    25    28    1
    88   154   156   ar
    89   154   155   ar
    90   149   145   am
    91   149   150    1
    92   145   146    2
    93    29    28    1
    94    97   100    1
    95    97    96    1
    96   100   101    1
    97   150   151    1
    98   103   102   ar
    99   101   102    1
   100    92    91    2
   101    94    93    1
   102   102   104   ar
   103    49    48    1
   104    49    52    1
   105    49    50    1
   106    81    79    1
   107   152   151    2
   108    55    56    1
   109    55    54    1
   110    96    91   am
   111    53    52    1
   112    53    54    1
   113    91    90    1
   114    79    78    1
   115    78    75    1
   116    78    80    1
   117    50    51    2
   118    93    90    1
   119    93    95    1
   120    75    74    1
   121    75    76    1
   122    90    89    1
   123    85    84    2
   124    76    77    2
   125    65    63   ar
   126    84    83    1
   127    64    63   ar
   128    63    62    1
   129    82    83    1
   130    86    83    1
   131    86    87    1
   132    86    88    1
   133    73    71    1
   134    72    71    1
   135    62    61    1
   136    71    70    1
   137    61    58    1
   138    70    67    1
   139    58    59    1
   140    58    57    1
   141    60    59    2
   142    67    66    1
   143    67    68    1
   144    69    68    2
