@<TRIPOS>MOLECULE
tmp/4d9wA00.pdb
 178 174 0 0 0
SMALL
GASTEIGER

@<TRIPOS>ATOM
      1  N         14.1760   46.7700    1.3180 N.3   111  ASN111     -0.1225
      2  CA        13.0020   45.9500    1.6240 C.3   111  ASN111      0.1785
      3  C         12.7300   45.0480    0.4120 C.2   111  ASN111      0.2597
      4  O         11.6470   45.0650   -0.1670 O.2   111  ASN111     -0.2718
      5  CB        11.7420   46.8250    1.7110 C.3   111  ASN111      0.1169
      6  CG        11.7000   47.6480    2.9810 C.2   111  ASN111      0.2627
      7  OD1       12.0690   47.1800    4.0410 O.2   111  ASN111     -0.2716
      8  ND2       11.2610   48.8810    2.8740 N.am  111  ASN111     -0.0877
      9  N         13.7190   44.3020   -0.0320 N.am  112  ASN112     -0.1960
     10  CA        13.4590   43.2760   -1.0170 C.3   112  ASN112      0.1819
     11  C         14.5730   42.2340   -0.9950 C.2   112  ASN112      0.2621
     12  O         15.5670   42.3660   -0.2610 O.2   112  ASN112     -0.2715
     13  CB        13.3170   43.9110   -2.4200 C.3   112  ASN112      0.1195
     14  CG        12.2520   43.2420   -3.2870 C.2   112  ASN112      0.2630
     15  OD1       11.9220   42.0620   -3.1240 O.2   112  ASN112     -0.2716
     16  ND2       11.7190   44.0020   -4.2320 N.am  112  ASN112     -0.0877
     17  N         14.3750   41.2010   -1.8150 N.am  113  ALA113     -0.1963
     18  CA        15.3450   40.1500   -2.0620 C.3   113  ALA113      0.1728
     19  C         15.1710   39.7390   -3.5150 C.2   113  ALA113      0.2616
     20  O         14.1020   39.9280   -4.0900 O.2   113  ALA113     -0.2715
     21  CB        15.1060   38.9680   -1.1330 C.3   113  ALA113      0.0334
     22  N         16.2240   39.2080   -4.1190 N.am  114  PHE114     -0.1960
     23  CA        16.1630   38.8680   -5.5300 C.3   114  PHE114      0.1771
     24  C         17.2510   37.8910   -5.9310 C.2   114  PHE114      0.2619
     25  O         18.2450   37.7120   -5.2210 O.2   114  PHE114     -0.2715
     26  CB        16.1720   40.1190   -6.4360 C.3   114  PHE114      0.0574
     27  CG        17.3760   41.0250   -6.2850 C.ar  114  PHE114     -0.0200
     28  CD1       17.4300   41.9690   -5.2740 C.ar  114  PHE114     -0.0042
     29  CD2       18.4200   40.9820   -7.1870 C.ar  114  PHE114     -0.0042
     30  CE1       18.4990   42.8590   -5.1730 C.ar  114  PHE114     -0.0003
     31  CE2       19.5000   41.8610   -7.0640 C.ar  114  PHE114     -0.0003
     32  CZ        19.5220   42.7910   -6.0650 C.ar  114  PHE114     -0.0000
     33  N         17.0430   37.2870   -7.1000 N.am  115  TRP115     -0.1974
     34  CA        18.0470   36.5240   -7.8260 C.3   115  TRP115      0.1640
     35  C         18.5290   37.4140   -8.9600 C.2   115  TRP115      0.2290
     36  O         17.7270   37.8890   -9.7580 O.2   115  TRP115     -0.2864
     37  CB        17.4320   35.2260   -8.3480 C.3   115  TRP115      0.0576
     38  CG        18.3460   34.4710   -9.2740 C.ar  115  TRP115      0.0006
     39  CD1       18.3210   34.4730  -10.6340 C.ar  115  TRP115      0.0946
     40  CD2       19.4160   33.5860   -8.8990 C.ar  115  TRP115      0.0152
     41  NE1       19.3070   33.6440  -11.1280 N.ar  115  TRP115     -0.2442
     42  CE2       19.9910   33.0950  -10.0830 C.ar  115  TRP115      0.0810
     43  CE3       19.9290   33.1480   -7.6750 C.ar  115  TRP115      0.0012
     44  CZ2       21.0750   32.2010  -10.0820 C.ar  115  TRP115      0.0191
     45  CZ3       20.9840   32.2390   -7.6800 C.ar  115  TRP115      0.0001
     46  CH2       21.5430   31.7830   -8.8730 C.ar  115  TRP115      0.0015
     47  N          8.6850   47.8530    7.4480 N.3   129  THR129     -0.1203
     48  CA         8.0450   47.0110    6.4540 C.3   129  THR129      0.1994
     49  C          8.6190   45.5960    6.5010 C.2   129  THR129      0.2617
     50  O          7.8750   44.6310    6.3950 O.2   129  THR129     -0.2717
     51  CB         8.2340   47.5960    5.0400 C.3   129  THR129      0.1784
     52  OG1        7.6670   48.9060    4.9850 O.3   129  THR129     -0.2211
     53  CG2        7.5640   46.7370    3.9850 C.3   129  THR129      0.0376
     54  N          9.9430   45.4740    6.6360 N.am  130  PHE130     -0.1975
     55  CA        10.6120   44.1730    6.7420 C.3   130  PHE130      0.1639
     56  C         11.7190   44.2210    7.7830 C.2   130  PHE130      0.2290
     57  O         12.3140   45.2740    8.0310 O.2   130  PHE130     -0.2864
     58  CB        11.2870   43.7850    5.4230 C.3   130  PHE130      0.0560
     59  CG        10.3540   43.2930    4.3520 C.ar  130  PHE130     -0.0200
     60  CD1        9.9370   41.9800    4.3230 C.ar  130  PHE130     -0.0042
     61  CD2        9.9230   44.1390    3.3550 C.ar  130  PHE130     -0.0042
     62  CE1        9.1080   41.5120    3.3270 C.ar  130  PHE130     -0.0003
     63  CE2        9.0810   43.6680    2.3520 C.ar  130  PHE130     -0.0003
     64  CZ         8.6920   42.3520    2.3420 C.ar  130  PHE130     -0.0000
     65  N         15.5270   39.8830    5.2440 N.3   133  LEU133     -0.1245
     66  CA        14.6290   39.0250    4.4900 C.3   133  LEU133      0.1561
     67  C         14.9980   37.5490    4.4540 C.2   133  LEU133      0.2260
     68  O         14.1250   36.6930    4.2850 O.2   133  LEU133     -0.2867
     69  CB        14.4180   39.5800    3.0840 C.3   133  LEU133      0.0270
     70  CG        13.3940   40.7420    3.1220 C.3   133  LEU133      0.0019
     71  CD1       14.0460   42.0850    3.4290 C.3   133  LEU133      0.0001
     72  CD2       12.5470   40.7750    1.9220 C.3   133  LEU133      0.0001
     73  N         10.9610   32.8800    1.7620 N.3   139  VAL139     -0.1245
     74  CA        11.6510   33.8920    0.9750 C.3   139  VAL139      0.1561
     75  C         12.9170   33.3180    0.3320 C.2   139  VAL139      0.2260
     76  O         13.1490   33.4820   -0.8690 O.2   139  VAL139     -0.2867
     77  CB        11.9830   35.1390    1.8290 C.3   139  VAL139      0.0252
     78  CG1       12.8050   36.1260    1.0010 C.3   139  VAL139      0.0019
     79  CG2       10.7140   35.7630    2.3670 C.3   139  VAL139      0.0019
     80  N         11.9130   30.9170   -2.2930 N.3   142  HIS142     -0.1226
     81  CA        11.3500   31.6790   -3.4040 C.3   142  HIS142      0.1752
     82  C         12.5160   32.1650   -4.3070 C.2   142  HIS142      0.2595
     83  O         12.4710   32.0390   -5.5390 O.2   142  HIS142     -0.2718
     84  CB        10.5270   32.8610   -2.8420 C.3   142  HIS142      0.0759
     85  CG         9.9590   33.7900   -3.8910 C.ar  142  HIS142      0.0818
     86  ND1        8.6080   33.9020   -4.1590 N.ar  142  HIS142     -0.2268
     87  CD2       10.5720   34.6870   -4.7030 C.ar  142  HIS142      0.1154
     88  CE1        8.4210   34.8160   -5.1010 C.ar  142  HIS142      0.1986
     89  NE2        9.6010   35.2880   -5.4670 N.ar  142  HIS142     -0.2212
     90  N         13.5550   32.7180   -3.6980 N.am  143  GLU143     -0.1979
     91  CA        14.6750   33.2590   -4.4860 C.3   143  GLU143      0.1602
     92  C         15.4520   32.1540   -5.2010 C.2   143  GLU143      0.2287
     93  O         15.7460   32.2780   -6.3830 O.2   143  GLU143     -0.2864
     94  CB        15.6080   34.0980   -3.6410 C.3   143  GLU143      0.0415
     95  CG        14.9440   35.2380   -2.8600 C.3   143  GLU143      0.1163
     96  CD        14.0300   36.1270   -3.6760 C.2   143  GLU143      0.3649
     97  OE1       14.2520   36.2830   -4.8710 O.co2 143  GLU143     -0.2457
     98  OE2       13.0550   36.6610   -3.1020 O.co2 143  GLU143     -0.2457
     99  N         13.7330   30.9360   -8.2850 N.3   146  HIS146     -0.1241
    100  CA        13.9150   31.7380   -9.4900 C.3   146  HIS146      0.1621
    101  C         15.1030   31.1920  -10.3230 C.2   146  HIS146      0.2264
    102  O         15.0400   31.1450  -11.5530 O.2   146  HIS146     -0.2867
    103  CB        14.1420   33.2140   -9.1520 C.3   146  HIS146      0.0745
    104  CG        12.8840   33.9970   -8.8950 C.ar  146  HIS146      0.0817
    105  ND1       11.8320   34.0230   -9.7870 N.ar  146  HIS146     -0.2268
    106  CD2       12.5180   34.8030   -7.8660 C.ar  146  HIS146      0.1154
    107  CE1       10.8710   34.8020   -9.3150 C.ar  146  HIS146      0.1986
    108  NE2       11.2670   35.3010   -8.1580 N.ar  146  HIS146     -0.2212
    109  N         10.1650   37.2180  -17.5750 N.3   157  TYR157     -0.1241
    110  CA         9.6580   37.9040  -16.3690 C.3   157  TYR157      0.1605
    111  C          8.7350   39.0810  -16.6790 C.2   157  TYR157      0.2264
    112  O          8.9720   40.2160  -16.2570 O.2   157  TYR157     -0.2867
    113  CB        10.8180   38.3300  -15.4740 C.3   157  TYR157      0.0534
    114  CG        10.4800   38.5130  -14.0210 C.ar  157  TYR157     -0.0201
    115  CD1       10.0640   37.4390  -13.2630 C.ar  157  TYR157     -0.0009
    116  CD2       10.6150   39.7530  -13.3990 C.ar  157  TYR157     -0.0009
    117  CE1        9.7940   37.5780  -11.9180 C.ar  157  TYR157      0.0417
    118  CE2       10.3320   39.9100  -12.0560 C.ar  157  TYR157      0.0417
    119  CZ         9.9320   38.8200  -11.3140 C.ar  157  TYR157      0.1957
    120  OH         9.6500   38.9860   -9.9680 O.3   157  TYR157     -0.2866
    121  N          6.6010   33.8450  -11.0060 N.3   166  GLU166     -0.1245
    122  CA         6.3790   34.2430   -9.6200 C.3   166  GLU166      0.1567
    123  C          5.6290   33.1800   -8.8140 C.2   166  GLU166      0.2260
    124  O          6.0170   32.8740   -7.6870 O.2   166  GLU166     -0.2867
    125  CB         5.6130   35.5650   -9.5700 C.3   166  GLU166      0.0388
    126  CG         6.5310   36.7630   -9.5390 C.3   166  GLU166      0.1160
    127  CD         7.4910   36.6890   -8.3600 C.2   166  GLU166      0.3649
    128  OE1        7.0200   36.5030   -7.2270 O.co2 166  GLU166     -0.2457
    129  OE2        8.7010   36.7820   -8.5820 O.co2 166  GLU166     -0.2457
    130  N          2.9850   34.1160    2.2760 N.3   188  ILE188     -0.1231
    131  CA         4.3410   34.4000    1.8000 C.3   188  ILE188      0.1692
    132  C          4.9780   35.5350    2.6030 C.2   188  ILE188      0.2592
    133  O          4.4470   36.6410    2.6440 O.2   188  ILE188     -0.2718
    134  CB         4.3780   34.7970    0.3190 C.3   188  ILE188      0.0266
    135  CG1        3.7520   33.6980   -0.5470 C.3   188  ILE188      0.0019
    136  CG2        5.8140   35.0950   -0.1210 C.3   188  ILE188      0.0020
    137  CD1        4.4370   32.3650   -0.4770 C.3   188  ILE188      0.0001
    138  N          6.1040   35.2540    3.2550 N.am  189  GLY189     -0.1957
    139  CA         6.9120   36.2930    3.8740 C.3   189  GLY189      0.1869
    140  C          6.5130   36.6840    5.2830 C.2   189  GLY189      0.2309
    141  O          7.0800   37.6220    5.8380 O.2   189  GLY189     -0.2863
    142  N          2.9370   39.1980    2.9940 N.3   202  LEU202     -0.1231
    143  CA         3.0700   39.9180    1.7420 C.3   202  LEU202      0.1693
    144  C          2.0080   39.4760    0.7180 C.2   202  LEU202      0.2591
    145  O          1.4290   40.3020   -0.0010 O.2   202  LEU202     -0.2718
    146  CB         4.4710   39.6790    1.2200 C.3   202  LEU202      0.0284
    147  CG         4.9060   40.4150   -0.0010 C.3   202  LEU202      0.0019
    148  CD1        4.8440   41.9070    0.2400 C.3   202  LEU202      0.0001
    149  CD2        6.3210   39.9720   -0.3270 C.3   202  LEU202      0.0001
    150  N          1.7850   38.1670    0.6450 N.am  203  ARG203     -0.1980
    151  CA         0.7890   37.5490   -0.2340 C.3   203  ARG203      0.1597
    152  C          0.2010   36.3520    0.4880 C.2   203  ARG203      0.2287
    153  O          0.8250   35.7950    1.4020 O.2   203  ARG203     -0.2864
    154  CB         1.3900   37.0410   -1.5480 C.3   203  ARG203      0.0334
    155  CG         1.9010   38.0970   -2.4660 C.3   203  ARG203      0.0492
    156  CD         2.4810   37.4980   -3.7320 C.3   203  ARG203      0.2205
    157  NE         3.7890   36.8500   -3.5700 N.pl3 203  ARG203     -0.0865
    158  CZ         4.9570   37.4800   -3.5880 C.cat 203  ARG203      0.5346
    159  NH1        5.0040   38.8080   -3.6110 N.pl3 203  ARG203      0.1354
    160  NH2        6.0780   36.7730   -3.5290 N.pl3 203  ARG203      0.1354
    161  N          4.7670   46.6810  -12.2940 N.3   226  ASP226     -0.1239
    162  CA         5.2150   45.3850  -11.7980 C.3   226  ASP226      0.1674
    163  C          5.4340   44.3920  -12.9480 C.2   226  ASP226      0.2266
    164  O          5.0630   43.2290  -12.8600 O.2   226  ASP226     -0.2867
    165  CB         4.1880   44.8510  -10.7770 C.3   226  ASP226      0.1410
    166  CG         4.6140   43.5610  -10.1010 C.2   226  ASP226      0.3668
    167  OD1        5.8270   43.3360   -9.8390 O.co2 226  ASP226     -0.2456
    168  OD2        3.7040   42.7630   -9.8010 O.co2 226  ASP226     -0.2456
    169  N          3.7300   39.9410   -9.7540 N.3   231  HIS231     -0.1241
    170  CA         3.4710   39.6120   -8.3490 C.3   231  HIS231      0.1621
    171  C          2.0040   39.7680   -7.9560 C.2   231  HIS231      0.2264
    172  O          1.6360   39.5560   -6.8040 O.2   231  HIS231     -0.2867
    173  CB         4.2830   40.5060   -7.3930 C.3   231  HIS231      0.0745
    174  CG         5.7630   40.3630   -7.5310 C.ar  231  HIS231      0.0817
    175  ND1        6.5160   41.1800   -8.3460 N.ar  231  HIS231     -0.2268
    176  CD2        6.6410   39.5260   -6.9320 C.ar  231  HIS231      0.1154
    177  CE1        7.7900   40.8200   -8.2760 C.ar  231  HIS231      0.1986
    178  NE2        7.8870   39.8160   -7.4250 N.ar  231  HIS231     -0.2212
@<TRIPOS>BOND
     1   109   110    1
     2   111   110    1
     3   111   112    2
     4   110   113    1
     5   113   114    1
     6   114   116   ar
     7   114   115   ar
     8   116   118   ar
     9   115   117   ar
    10   163   164    2
    11   163   162    1
    12   161   162    1
    13   118   119   ar
    14   117   119   ar
    15   162   165    1
    16   102   101    2
    17   119   120    1
    18    41    39   ar
    19    41    42   ar
    20   121   122    1
    21   165   166    1
    22    39    38   ar
    23   101   100    1
    24   166   167   ar
    25   166   168   ar
    26    42    44   ar
    27    42    40   ar
    28    44    46   ar
    29   105   107   ar
    30   105   104   ar
    31    36    35    2
    32   169   170    1
    33   122   125    1
    34   122   123    1
    35   125   126    1
    36   126   127    1
    37   100   103    1
    38   100    99    1
    39   107   108   ar
    40    38    40   ar
    41    38    37    1
    42   103   104    1
    43    35    34    1
    44    40    43   ar
    45   104   106   ar
    46    46    45   ar
    47   123   124    2
    48   129   127   ar
    49   127   128   ar
    50   170   171    1
    51   170   173    1
    52    37    34    1
    53   175   177   ar
    54   175   174   ar
    55   177   178   ar
    56   108   106   ar
    57   171   172    2
    58    34    33    1
    59    45    43   ar
    60   174   173    1
    61   174   176   ar
    62   178   176   ar
    63    29    31   ar
    64    29    27   ar
    65    33    24   am
    66    31    32   ar
    67    26    27    1
    68    26    23    1
    69    93    92    2
    70    27    28   ar
    71    32    30   ar
    72    24    23    1
    73    24    25    2
    74    83    82    2
    75    23    22    1
    76    89    88   ar
    77    89    87   ar
    78    28    30   ar
    79    92    91    1
    80    88    86   ar
    81    97    96   ar
    82    87    85   ar
    83    91    90    1
    84    91    94    1
    85    82    90   am
    86    82    81    1
    87    16    14   am
    88    86    85   ar
    89    22    19   am
    90    20    19    2
    91    85    84    1
    92   156   157    1
    93   156   155    1
    94    96    98   ar
    95    96    95    1
    96    94    95    1
    97   159   158    1
    98   158   157    2
    99   158   160    1
   100    19    18    1
   101    81    84    1
   102    81    80    1
   103    14    15    2
   104    14    13    1
   105   155   154    1
   106    13    10    1
   107    18    17    1
   108    18    21    1
   109    17    11   am
   110   154   151    1
   111    10    11    1
   112    10     9    1
   113    11    12    2
   114    76    75    2
   115   135   137    1
   116   135   134    1
   117   149   147    1
   118   151   152    1
   119   151   150    1
   120     4     3    2
   121   136   134    1
   122     9     3   am
   123   147   148    1
   124   147   146    1
   125   145   144    2
   126   134   131    1
   127    75    74    1
   128     3     2    1
   129   152   153    2
   130   150   144   am
   131   144   143    1
   132    74    73    1
   133    74    77    1
   134    78    77    1
   135   146   143    1
   136     1     2    1
   137     2     5    1
   138     5     6    1
   139   143   142    1
   140   131   130    1
   141   131   132    1
   142    77    79    1
   143    72    70    1
   144    64    63   ar
   145    64    62   ar
   146    63    61   ar
   147   132   133    2
   148   132   138   am
   149     8     6   am
   150     6     7    2
   151    69    70    1
   152    69    66    1
   153    70    71    1
   154   138   139    1
   155    62    60   ar
   156    61    59   ar
   157   139   140    1
   158    53    51    1
   159    68    67    2
   160    60    59   ar
   161    59    58    1
   162    67    66    1
   163    66    65    1
   164    52    51    1
   165    51    48    1
   166   140   141    2
   167    58    55    1
   168    50    49    2
   169    48    49    1
   170    48    47    1
   171    49    54   am
   172    54    55    1
   173    55    56    1
   174    56    57    2
