@<TRIPOS>MOLECULE
tmp/4da0A00.pdb
 116 107 0 0 0
SMALL
GASTEIGER

@<TRIPOS>ATOM
      1  N         -9.1080  -48.2770  -16.1910 N.3    19  GLY19      -0.1225
      2  CA        -7.7090  -48.6670  -16.2410 C.3    19  GLY19       0.1811
      3  C         -6.8180  -47.4390  -16.2310 C.2    19  GLY19       0.2280
      4  O         -5.7690  -47.3880  -15.5620 O.2    19  GLY19      -0.2866
      5  N         -4.4620  -48.9190  -13.2540 N.3    62  GLY62      -0.1210
      6  CA        -3.4140  -49.4280  -14.1310 C.3    62  GLY62       0.1956
      7  C         -3.8790  -50.6730  -14.8880 C.2    62  GLY62       0.2611
      8  O         -5.0750  -51.0230  -14.9100 O.2    62  GLY62      -0.2717
      9  N         -2.9190  -51.3540  -15.4960 N.am   63  MET63      -0.1979
     10  CA        -3.2140  -52.4650  -16.4000 C.3    63  MET63       0.1605
     11  C         -2.6800  -53.8220  -15.9210 C.2    63  MET63       0.2287
     12  O         -1.6010  -53.9180  -15.3260 O.2    63  MET63      -0.2864
     13  CB        -2.6560  -52.1670  -17.7860 C.3    63  MET63       0.0413
     14  CG        -3.1030  -50.8660  -18.3500 C.3    63  MET63       0.0598
     15  SD        -2.5000  -50.6530  -20.0250 S.3    63  MET63      -0.1393
     16  CE        -0.7310  -50.4240  -19.8000 C.3    63  MET63       0.0692
     17  N        -15.8180  -51.8430  -12.3860 N.3    86  ARG86      -0.1245
     18  CA       -14.8310  -51.5560  -13.3960 C.3    86  ARG86       0.1563
     19  C        -15.5630  -50.8950  -14.5350 C.2    86  ARG86       0.2260
     20  O        -16.6820  -51.2960  -14.8910 O.2    86  ARG86      -0.2867
     21  CB       -14.1120  -52.8280  -13.8740 C.3    86  ARG86       0.0307
     22  CG       -13.3210  -52.6390  -15.1680 C.3    86  ARG86       0.0489
     23  CD       -12.2300  -53.6790  -15.3710 C.3    86  ARG86       0.2205
     24  NE       -11.9260  -53.8230  -16.7940 N.pl3  86  ARG86      -0.0865
     25  CZ       -11.1080  -53.0350  -17.4860 C.cat  86  ARG86       0.5346
     26  NH1      -10.9320  -53.2650  -18.7830 N.pl3  86  ARG86       0.1354
     27  NH2      -10.4620  -52.0310  -16.8900 N.pl3  86  ARG86       0.1354
     28  N        -12.6060  -50.6680  -21.3760 N.3    89  SER89      -0.1217
     29  CA       -12.9760  -51.2930  -22.6400 C.3    89  SER89       0.1889
     30  C        -12.3830  -52.6960  -22.7860 C.2    89  SER89       0.2288
     31  O        -11.5770  -53.1510  -21.9630 O.2    89  SER89      -0.2866
     32  CB       -12.5310  -50.4250  -23.8130 C.3    89  SER89       0.2089
     33  OG       -11.1190  -50.4640  -23.9560 O.3    89  SER89      -0.2183
     34  N        -11.4200  -55.8380  -26.0890 N.3    91  GLY91      -0.1225
     35  CA       -11.3380  -56.1490  -27.4940 C.3    91  GLY91       0.1811
     36  C        -12.3970  -57.1740  -27.7570 C.2    91  GLY91       0.2280
     37  O        -12.3980  -58.2280  -27.1400 O.2    91  GLY91      -0.2866
     38  N         -6.6650  -61.4960  -19.7330 N.3   155  ALA155     -0.1245
     39  CA        -5.3750  -61.9820  -20.2230 C.3   155  ALA155      0.1562
     40  C         -4.2050  -61.3620  -19.4780 C.2   155  ALA155      0.2260
     41  O         -4.3390  -60.2920  -18.8960 O.2   155  ALA155     -0.2867
     42  CB        -5.2450  -61.7020  -21.6950 C.3   155  ALA155      0.0290
     43  N         -1.2740  -61.0090  -21.2460 N.3   157  GLN157     -0.1231
     44  CA        -0.4340  -60.4620  -22.3070 C.3   157  GLN157      0.1698
     45  C         -1.2410  -59.8170  -23.4260 C.2   157  GLN157      0.2592
     46  O         -1.9280  -60.5070  -24.1710 O.2   157  GLN157     -0.2718
     47  CB         0.4640  -61.5700  -22.8810 C.3   157  GLN157      0.0381
     48  CG         1.3160  -62.2900  -21.8260 C.3   157  GLN157      0.0905
     49  CD         2.7760  -61.8130  -21.7870 C.2   157  GLN157      0.2608
     50  OE1        3.1510  -60.9710  -20.9520 O.2   157  GLN157     -0.2717
     51  NE2        3.6060  -62.3650  -22.6840 N.am  157  GLN157     -0.0878
     52  N         -1.1440  -58.4940  -23.5330 N.am  158  PHE158     -0.1976
     53  CA        -1.7580  -57.7310  -24.6250 C.3   158  PHE158      0.1639
     54  C         -1.3930  -58.3020  -26.0010 C.2   158  PHE158      0.2290
     55  O         -2.2540  -58.5040  -26.8620 O.2   158  PHE158     -0.2864
     56  CB        -1.3170  -56.2680  -24.5390 C.3   158  PHE158      0.0560
     57  CG        -2.1340  -55.3320  -25.3870 C.ar  158  PHE158     -0.0200
     58  CD1       -3.3540  -54.8380  -24.9280 C.ar  158  PHE158     -0.0042
     59  CD2       -1.6770  -54.9290  -26.6370 C.ar  158  PHE158     -0.0042
     60  CE1       -4.1010  -53.9750  -25.7010 C.ar  158  PHE158     -0.0003
     61  CE2       -2.4210  -54.0650  -27.4160 C.ar  158  PHE158     -0.0003
     62  CZ        -3.6330  -53.5850  -26.9470 C.ar  158  PHE158     -0.0000
     63  N        -11.8100  -59.5710  -24.6550 N.3   176  VAL176     -0.1231
     64  CA       -10.6000  -59.7150  -23.8670 C.3   176  VAL176      0.1692
     65  C        -10.1930  -58.3870  -23.2540 C.2   176  VAL176      0.2592
     66  O        -10.1670  -57.3560  -23.9220 O.2   176  VAL176     -0.2718
     67  CB        -9.4420  -60.3070  -24.6930 C.3   176  VAL176      0.0266
     68  CG1       -9.2850  -59.5860  -26.0300 C.3   176  VAL176      0.0020
     69  CG2       -8.1320  -60.2840  -23.8910 C.3   176  VAL176      0.0020
     70  N         -9.9130  -58.4360  -21.9570 N.am  177  GLU177     -0.1966
     71  CA        -9.3230  -57.3260  -21.2320 C.3   177  GLU177      0.1733
     72  C         -8.3150  -57.8980  -20.2350 C.2   177  GLU177      0.2616
     73  O         -7.8370  -59.0230  -20.4070 O.2   177  GLU177     -0.2715
     74  CB       -10.4030  -56.5080  -20.5550 C.3   177  GLU177      0.0429
     75  CG       -11.4620  -57.3620  -19.9690 C.3   177  GLU177      0.1163
     76  CD       -11.2430  -57.5700  -18.5020 C.2   177  GLU177      0.3649
     77  OE1      -11.6250  -56.6480  -17.7440 O.co2 177  GLU177     -0.2457
     78  OE2      -10.7110  -58.6390  -18.1090 O.co2 177  GLU177     -0.2457
     79  N         -7.9680  -57.1380  -19.2030 N.am  178  MET178     -0.1963
     80  CA        -6.8470  -57.5370  -18.3510 C.3   178  MET178      0.1736
     81  C         -7.0650  -57.2660  -16.8760 C.2   178  MET178      0.2616
     82  O         -6.1180  -57.0780  -16.1350 O.2   178  MET178     -0.2715
     83  CB        -5.5620  -56.8610  -18.8320 C.3   178  MET178      0.0427
     84  CG        -5.1770  -57.2710  -20.2390 C.3   178  MET178      0.0599
     85  SD        -3.9000  -56.2500  -20.9800 S.3   178  MET178     -0.1393
     86  CE        -2.4290  -56.9940  -20.2470 C.3   178  MET178      0.0692
     87  N         -8.3130  -57.2480  -16.4330 N.am  179  GLU179     -0.1977
     88  CA        -8.5670  -56.8170  -15.0760 C.3   179  GLU179      0.1602
     89  C         -9.5960  -57.6390  -14.3650 C.2   179  GLU179      0.2287
     90  O         -9.4610  -57.8630  -13.1530 O.2   179  GLU179     -0.2864
     91  CB        -9.0060  -55.3500  -15.0450 C.3   179  GLU179      0.0415
     92  CG        -7.8870  -54.3430  -15.2270 C.3   179  GLU179      0.1163
     93  CD        -7.4090  -54.2230  -16.6730 C.2   179  GLU179      0.3649
     94  OE1       -8.2430  -54.2660  -17.6140 O.co2 179  GLU179     -0.2457
     95  OE2       -6.1750  -54.0920  -16.8670 O.co2 179  GLU179     -0.2457
     96  N        -13.3280  -51.6730  -27.6950 N.3   201  SER201     -0.1202
     97  CA       -12.2260  -50.8170  -28.1350 C.3   201  SER201      0.2020
     98  C        -11.9180  -51.0130  -29.6240 C.2   201  SER201      0.2618
     99  O        -11.4690  -50.0780  -30.3080 O.2   201  SER201     -0.2717
    100  CB       -10.9750  -51.1180  -27.3120 C.3   201  SER201      0.2103
    101  OG       -10.7970  -52.5300  -27.1940 O.3   201  SER201     -0.2182
    102  N        -12.1450  -52.2360  -30.1070 N.am  202  ASP202     -0.1973
    103  CA       -11.9460  -52.6130  -31.4990 C.3   202  ASP202      0.1709
    104  C        -12.2510  -54.0950  -31.5650 C.2   202  ASP202      0.2293
    105  O        -12.3970  -54.7430  -30.5330 O.2   202  ASP202     -0.2864
    106  CB       -10.5010  -52.3480  -31.9530 C.3   202  ASP202      0.1436
    107  CG       -10.4020  -51.9620  -33.4430 C.2   202  ASP202      0.3671
    108  OD1      -11.0100  -50.9330  -33.8560 O.co2 202  ASP202     -0.2456
    109  OD2       -9.7010  -52.6760  -34.2060 O.co2 202  ASP202     -0.2456
    110  N        -10.8440  -57.6680  -32.3820 N.3   204  VAL204     -0.1245
    111  CA        -9.5170  -58.2860  -32.4170 C.3   204  VAL204      0.1561
    112  C         -9.3400  -59.2560  -33.5930 C.2   204  VAL204      0.2260
    113  O         -8.3100  -59.2370  -34.2730 O.2   204  VAL204     -0.2867
    114  CB        -9.2100  -58.9740  -31.0830 C.3   204  VAL204      0.0252
    115  CG1       -7.9750  -59.8710  -31.2110 C.3   204  VAL204      0.0019
    116  CG2       -9.0080  -57.9150  -30.0040 C.3   204  VAL204      0.0019
@<TRIPOS>BOND
     1   113   112    2
     2   109   107   ar
     3   108   107   ar
     4   112   111    1
     5   107   106    1
     6   111   110    1
     7   111   114    1
     8   106   103    1
     9   104   103    1
    10   104   105    2
    11   103   102    1
    12   115   114    1
    13   114   116    1
    14    99    98    2
    15   102    98   am
    16    98    97    1
    17    97    96    1
    18    97   100    1
    19    36    35    1
    20    36    37    2
    21    35    34    1
    22    61    62   ar
    23    61    59   ar
    24   100   101    1
    25    62    60   ar
    26    55    54    2
    27    59    57   ar
    28    68    67    1
    29    54    53    1
    30    60    58   ar
    31    57    58   ar
    32    57    56    1
    33    67    69    1
    34    67    64    1
    35    63    64    1
    36    53    56    1
    37    53    52    1
    38    46    45    2
    39    33    32    1
    40    66    65    2
    41    64    65    1
    42    32    29    1
    43    52    45   am
    44    45    44    1
    45    65    70   am
    46    47    44    1
    47    47    48    1
    48    30    29    1
    49    30    31    2
    50    51    49   am
    51    29    28    1
    52    44    43    1
    53    70    71    1
    54    48    49    1
    55    49    50    2
    56    42    39    1
    57    71    74    1
    58    71    72    1
    59    85    86    1
    60    85    84    1
    61    74    75    1
    62    73    72    2
    63    84    83    1
    64    72    79   am
    65    39    38    1
    66    39    40    1
    67    15    16    1
    68    15    14    1
    69    75    76    1
    70    40    41    2
    71    79    80    1
    72    83    80    1
    73    26    25    1
    74    76    78   ar
    75    76    77   ar
    76    80    81    1
    77    14    13    1
    78    13    10    1
    79    94    93   ar
    80    25    27    1
    81    25    24    2
    82    81    87   am
    83    81    82    2
    84    95    93   ar
    85    24    23    1
    86    93    92    1
    87    87    88    1
    88    10    11    1
    89    10     9    1
    90     2     3    1
    91     2     1    1
    92     3     4    2
    93    11    12    2
    94     9     7   am
    95    23    22    1
    96    92    91    1
    97    22    21    1
    98    88    91    1
    99    88    89    1
   100     8     7    2
   101    20    19    2
   102     7     6    1
   103    19    18    1
   104    89    90    2
   105     6     5    1
   106    21    18    1
   107    18    17    1
