@<TRIPOS>MOLECULE
tmp/4da5A00.pdb
 142 140 0 0 0
SMALL
GASTEIGER

@<TRIPOS>ATOM
      1  N        -10.6820   -5.8780    1.8620 N.3   201  ASP201     -0.1239
      2  CA       -11.2900   -7.1090    2.3970 C.3   201  ASP201      0.1674
      3  C        -12.8360   -6.9390    2.4730 C.2   201  ASP201      0.2266
      4  O        -13.4830   -7.3090    3.4660 O.2   201  ASP201     -0.2867
      5  CB       -10.6670   -7.4160    3.7980 C.3   201  ASP201      0.1410
      6  CG       -10.9770   -8.7720    4.4160 C.2   201  ASP201      0.3668
      7  OD1      -11.3550   -9.7080    3.6560 O.co2 201  ASP201     -0.2456
      8  OD2      -10.8650   -8.8930    5.6660 O.co2 201  ASP201     -0.2456
      9  N        -15.7600   -8.2290    2.1440 N.3   203  GLN203     -0.1231
     10  CA       -16.4390   -9.5210    2.1990 C.3   203  GLN203      0.1698
     11  C        -17.6340   -9.4200    3.1570 C.2   203  GLN203      0.2592
     12  O        -17.7110   -8.4640    3.9390 O.2   203  GLN203     -0.2718
     13  CB       -15.4520  -10.6280    2.6350 C.3   203  GLN203      0.0381
     14  CG       -14.7530  -10.3880    3.9590 C.3   203  GLN203      0.0905
     15  CD       -15.1480  -11.3650    5.0450 C.2   203  GLN203      0.2608
     16  OE1      -16.1250  -12.1390    4.9460 O.2   203  GLN203     -0.2717
     17  NE2      -14.3840  -11.3400    6.1260 N.am  203  GLN203     -0.0878
     18  N        -18.5530  -10.4060    3.0940 N.am  204  GLU204     -0.1966
     19  CA       -19.7790  -10.4510    3.9120 C.3   204  GLU204      0.1733
     20  C        -19.5690  -10.3000    5.4220 C.2   204  GLU204      0.2617
     21  O        -20.2830   -9.5240    6.0510 O.2   204  GLU204     -0.2715
     22  CB       -20.6890  -11.6420    3.5510 C.3   204  GLU204      0.0429
     23  CG       -20.0920  -13.0160    3.8330 C.3   204  GLU204      0.1163
     24  CD       -19.1050  -13.5880    2.8260 C.2   204  GLU204      0.3649
     25  OE1      -18.7830  -14.7870    2.9790 O.co2 204  GLU204     -0.2457
     26  OE2      -18.6420  -12.8620    1.9080 O.co2 204  GLU204     -0.2457
     27  N        -18.5540  -10.9750    5.9570 N.am  205  GLY205     -0.1940
     28  CA       -18.1580  -10.9130    7.3640 C.3   205  GLY205      0.2014
     29  C        -17.7090   -9.5500    7.8730 C.2   205  GLY205      0.2638
     30  O        -17.5340   -9.3880    9.0740 O.2   205  GLY205     -0.2714
     31  N        -17.5460   -8.5520    6.9790 N.am  206  ASN206     -0.1972
     32  CA       -17.1630   -7.1730    7.3100 C.3   206  ASN206      0.1688
     33  C        -18.2610   -6.1780    6.9250 C.2   206  ASN206      0.2292
     34  O        -18.0360   -4.9720    6.9080 O.2   206  ASN206     -0.2864
     35  CB       -15.8250   -6.7860    6.6610 C.3   206  ASN206      0.1181
     36  CG       -14.6610   -7.6170    7.1200 C.2   206  ASN206      0.2629
     37  OD1      -14.6010   -8.1540    8.2320 O.2   206  ASN206     -0.2716
     38  ND2      -13.6920   -7.7140    6.2810 N.am  206  ASN206     -0.0877
     39  N         -6.8210   -4.1820    6.7510 N.3   228  TYR228     -0.1241
     40  CA        -6.0790   -4.4000    5.4950 C.3   228  TYR228      0.1605
     41  C         -6.0930   -3.1490    4.6100 C.2   228  TYR228      0.2264
     42  O         -5.4430   -3.1130    3.5620 O.2   228  TYR228     -0.2867
     43  CB        -6.6890   -5.5820    4.7290 C.3   228  TYR228      0.0534
     44  CG        -6.4870   -6.9110    5.4170 C.ar  228  TYR228     -0.0201
     45  CD1       -5.2340   -7.5160    5.4520 C.ar  228  TYR228     -0.0009
     46  CD2       -7.5490   -7.5700    6.0310 C.ar  228  TYR228     -0.0009
     47  CE1       -5.0400   -8.7440    6.0800 C.ar  228  TYR228      0.0417
     48  CE2       -7.3670   -8.8030    6.6610 C.ar  228  TYR228      0.0417
     49  CZ        -6.1080   -9.3800    6.6880 C.ar  228  TYR228      0.1957
     50  OH        -5.8930  -10.5880    7.2910 O.3   228  TYR228     -0.2866
     51  N        -15.2520  -12.6450   -3.5480 N.3   244  GLU244     -0.1245
     52  CA       -15.9420  -13.0040   -2.3020 C.3   244  GLU244      0.1567
     53  C        -17.3230  -13.6390   -2.4340 C.2   244  GLU244      0.2260
     54  O        -17.7780  -14.2960   -1.5020 O.2   244  GLU244     -0.2867
     55  CB       -15.8920  -11.8800   -1.2490 C.3   244  GLU244      0.0388
     56  CG       -14.5020  -11.7540   -0.6320 C.3   244  GLU244      0.1160
     57  CD       -13.9950  -12.9230    0.2050 C.2   244  GLU244      0.3649
     58  OE1      -14.7880  -13.8510    0.4800 O.co2 244  GLU244     -0.2457
     59  OE2      -12.8020  -12.9160    0.5850 O.co2 244  GLU244     -0.2457
     60  N        -17.5830  -18.7840    4.2820 N.3   249  TYR249     -0.1241
     61  CA       -16.7150  -19.0710    5.4240 C.3   249  TYR249      0.1605
     62  C        -17.4600  -19.6300    6.6570 C.2   249  TYR249      0.2264
     63  O        -16.8390  -19.9020    7.6970 O.2   249  TYR249     -0.2867
     64  CB       -15.9110  -17.8150    5.7770 C.3   249  TYR249      0.0534
     65  CG       -15.0620  -17.2970    4.6380 C.ar  249  TYR249     -0.0201
     66  CD1      -13.8670  -17.9220    4.2930 C.ar  249  TYR249     -0.0009
     67  CD2      -15.4410  -16.1710    3.9180 C.ar  249  TYR249     -0.0009
     68  CE1      -13.0720  -17.4400    3.2560 C.ar  249  TYR249      0.0417
     69  CE2      -14.6340  -15.6560    2.9070 C.ar  249  TYR249      0.0417
     70  CZ       -13.4610  -16.3090    2.5600 C.ar  249  TYR249      0.1957
     71  OH       -12.6840  -15.8320    1.5260 O.3   249  TYR249     -0.2866
     72  N         -4.5160  -13.7050   -1.6670 N.3   315  TRP315     -0.1241
     73  CA        -5.0640  -14.5020   -0.5780 C.3   315  TRP315      0.1605
     74  C         -4.6110  -15.9630   -0.5960 C.2   315  TRP315      0.2264
     75  O         -4.6270  -16.6250    0.4420 O.2   315  TRP315     -0.2867
     76  CB        -6.5770  -14.3370   -0.4790 C.3   315  TRP315      0.0550
     77  CG        -7.0080  -12.9200   -0.2550 C.ar  315  TRP315      0.0003
     78  CD1       -7.8240  -12.1780   -1.0560 C.ar  315  TRP315      0.0946
     79  CD2       -6.6290  -12.0650    0.8320 C.ar  315  TRP315      0.0152
     80  NE1       -7.9730  -10.9170   -0.5440 N.ar  315  TRP315     -0.2442
     81  CE2       -7.2850  -10.8300    0.6380 C.ar  315  TRP315      0.0810
     82  CE3       -5.8670  -12.2500    2.0040 C.ar  315  TRP315      0.0012
     83  CZ2       -7.1710   -9.7700    1.5470 C.ar  315  TRP315      0.0191
     84  CZ3       -5.7390  -11.1940    2.8920 C.ar  315  TRP315      0.0001
     85  CH2       -6.3920   -9.9770    2.6680 C.ar  315  TRP315      0.0015
     86  N         -1.1600  -15.5900    1.2320 N.3   318  TRP318     -0.1241
     87  CA        -1.4920  -15.2680    2.6260 C.3   318  TRP318      0.1605
     88  C         -1.8810  -16.5700    3.3400 C.2   318  TRP318      0.2264
     89  O         -1.3330  -16.8860    4.3930 O.2   318  TRP318     -0.2867
     90  CB        -2.6750  -14.2800    2.6480 C.3   318  TRP318      0.0550
     91  CG        -3.2600  -14.0060    4.0110 C.ar  318  TRP318      0.0003
     92  CD1       -2.8910  -13.0160    4.8730 C.ar  318  TRP318      0.0946
     93  CD2       -4.3610  -14.6980    4.6390 C.ar  318  TRP318      0.0152
     94  NE1       -3.6840  -13.0470    5.9980 N.ar  318  TRP318     -0.2442
     95  CE2       -4.6090  -14.0560    5.8710 C.ar  318  TRP318      0.0810
     96  CE3       -5.2270  -15.7340    4.2340 C.ar  318  TRP318      0.0012
     97  CZ2       -5.6090  -14.4870    6.7530 C.ar  318  TRP318      0.0191
     98  CZ3       -6.1850  -16.1980    5.1280 C.ar  318  TRP318      0.0001
     99  CH2       -6.3670  -15.5800    6.3750 C.ar  318  TRP318      0.0015
    100  N         -5.3660  -20.5110   14.5930 N.3   328  ILE328     -0.1245
    101  CA        -6.7940  -20.5960   14.2790 C.3   328  ILE328      0.1561
    102  C         -7.0340  -21.7960   13.3610 C.2   328  ILE328      0.2260
    103  O         -6.3430  -21.9290   12.3580 O.2   328  ILE328     -0.2867
    104  CB        -7.2690  -19.2870   13.5890 C.3   328  ILE328      0.0252
    105  CG1       -6.8390  -18.0260   14.3680 C.3   328  ILE328      0.0019
    106  CG2       -8.7730  -19.3100   13.3090 C.3   328  ILE328      0.0019
    107  CD1       -6.5940  -16.7810   13.4970 C.3   328  ILE328      0.0001
    108  N         -8.5370  -23.6340   10.4830 N.3   330  PHE330     -0.1241
    109  CA        -9.0430  -23.2960    9.1520 C.3   330  PHE330      0.1605
    110  C         -8.2400  -24.1570    8.2120 C.2   330  PHE330      0.2264
    111  O         -7.0790  -24.4350    8.5020 O.2   330  PHE330     -0.2867
    112  CB        -8.7910  -21.8070    8.8410 C.3   330  PHE330      0.0534
    113  CG        -9.5160  -21.3160    7.6180 C.ar  330  PHE330     -0.0203
    114  CD1      -10.8830  -21.0430    7.6590 C.ar  330  PHE330     -0.0042
    115  CD2       -8.8420  -21.1460    6.4100 C.ar  330  PHE330     -0.0042
    116  CE1      -11.5600  -20.6130    6.5110 C.ar  330  PHE330     -0.0003
    117  CE2       -9.5220  -20.7060    5.2700 C.ar  330  PHE330     -0.0003
    118  CZ       -10.8740  -20.4530    5.3250 C.ar  330  PHE330     -0.0000
    119  N         -6.3560  -23.8600    5.6480 N.3   332  TYR332     -0.1241
    120  CA        -5.5190  -22.9070    4.9050 C.3   332  TYR332      0.1605
    121  C         -4.9140  -23.4000    3.6010 C.2   332  TYR332      0.2264
    122  O         -4.8720  -22.6290    2.6520 O.2   332  TYR332     -0.2867
    123  CB        -4.3860  -22.3780    5.7910 C.3   332  TYR332      0.0534
    124  CG        -4.8490  -21.5000    6.9270 C.ar  332  TYR332     -0.0201
    125  CD1       -5.3790  -20.2360    6.6850 C.ar  332  TYR332     -0.0009
    126  CD2       -4.7060  -21.9070    8.2470 C.ar  332  TYR332     -0.0009
    127  CE1       -5.8150  -19.4260    7.7310 C.ar  332  TYR332      0.0417
    128  CE2       -5.1160  -21.0980    9.3010 C.ar  332  TYR332      0.0417
    129  CZ        -5.6640  -19.8540    9.0390 C.ar  332  TYR332      0.1957
    130  OH        -6.0110  -19.0290   10.0830 O.3   332  TYR332     -0.2866
    131  N         -7.6570  -23.8970    1.1580 N.3   335  TYR335     -0.1241
    132  CA        -8.0620  -22.5460    0.7570 C.3   335  TYR335      0.1605
    133  C         -7.1030  -21.9270   -0.2650 C.2   335  TYR335      0.2264
    134  O         -7.5610  -21.2950   -1.2230 O.2   335  TYR335     -0.2867
    135  CB        -8.3070  -21.6410    1.9630 C.3   335  TYR335      0.0534
    136  CG        -8.8350  -20.2810    1.5800 C.ar  335  TYR335     -0.0201
    137  CD1      -10.1790  -20.0940    1.2690 C.ar  335  TYR335     -0.0009
    138  CD2       -7.9960  -19.1700    1.5500 C.ar  335  TYR335     -0.0009
    139  CE1      -10.6740  -18.8350    0.9330 C.ar  335  TYR335      0.0417
    140  CE2       -8.4820  -17.9080    1.2280 C.ar  335  TYR335      0.0417
    141  CZ        -9.8160  -17.7480    0.8950 C.ar  335  TYR335      0.1957
    142  OH       -10.2820  -16.5000    0.5500 O.3   335  TYR335     -0.2866
@<TRIPOS>BOND
     1    51    52    1
     2    53    52    1
     3    53    54    2
     4    52    55    1
     5    72    73    1
     6    55    56    1
     7   134   133    2
     8    78    80   ar
     9    78    77   ar
    10    56    57    1
    11    74    73    1
    12    74    75    2
    13    73    76    1
    14    80    81   ar
    15    76    77    1
    16   133   132    1
    17    77    79   ar
    18    57    58   ar
    19    57    59   ar
    20   142   141    1
    21    81    79   ar
    22    81    83   ar
    23   132   131    1
    24   132   135    1
    25    79    82   ar
    26   141   139   ar
    27   141   140   ar
    28   139   137   ar
    29   140   138   ar
    30    86    87    1
    31   137   136   ar
    32    71    70    1
    33    83    85   ar
    34   138   136   ar
    35   136   135    1
    36     1     2    1
    37    26    24   ar
    38    82    84   ar
    39     9    10    1
    40    10    13    1
    41    10    11    1
    42     2     3    1
    43     2     5    1
    44     3     4    2
    45    70    69   ar
    46    70    68   ar
    47    87    90    1
    48    87    88    1
    49    13    14    1
    50    90    91    1
    51   122   121    2
    52    85    84   ar
    53    24    25   ar
    54    24    23    1
    55    69    67   ar
    56    18    11   am
    57    18    19    1
    58    11    12    2
    59    68    66   ar
    60    88    89    2
    61    22    23    1
    62    22    19    1
    63    42    41    2
    64   121   120    1
    65     7     6   ar
    66     5     6    1
    67    19    20    1
    68    67    65   ar
    69    14    15    1
    70    91    93   ar
    71    91    92   ar
    72    96    93   ar
    73    96    98   ar
    74    60    61    1
    75    66    65   ar
    76     6     8   ar
    77    41    40    1
    78    65    64    1
    79    93    95   ar
    80    43    44    1
    81    43    40    1
    82    92    94   ar
    83   120   119    1
    84   120   123    1
    85    16    15    2
    86    15    17   am
    87    98    99   ar
    88   117   118   ar
    89   117   115   ar
    90   118   116   ar
    91    44    45   ar
    92    44    46   ar
    93    20    27   am
    94    20    21    2
    95    61    64    1
    96    61    62    1
    97    45    47   ar
    98    40    39    1
    99   123   124    1
   100    95    94   ar
   101    95    97   ar
   102    27    28    1
   103    46    48   ar
   104    47    49   ar
   105    38    36   am
   106    99    97   ar
   107   115   113   ar
   108   116   114   ar
   109    62    63    2
   110    35    36    1
   111    35    32    1
   112    48    49   ar
   113   125   124   ar
   114   125   127   ar
   115    49    50    1
   116    34    33    2
   117    33    32    1
   118   124   126   ar
   119    31    32    1
   120    31    29   am
   121    36    37    2
   122    28    29    1
   123   113   114   ar
   124   113   112    1
   125   127   129   ar
   126    29    30    2
   127   110   111    2
   128   110   109    1
   129   126   128   ar
   130   112   109    1
   131   129   128   ar
   132   129   130    1
   133   109   108    1
   134   103   102    2
   135   106   104    1
   136   102   101    1
   137   107   105    1
   138   104   101    1
   139   104   105    1
   140   101   100    1
