@<TRIPOS>MOLECULE
tmp/4da6A00.pdb
 122 114 0 0 0
SMALL
GASTEIGER

@<TRIPOS>ATOM
      1  N        -46.4440   16.2320   16.2170 N.3    19  GLY19      -0.1225
      2  CA       -46.0250   17.6320   16.2290 C.3    19  GLY19       0.1811
      3  C        -44.5090   17.8110   16.3230 C.2    19  GLY19       0.2280
      4  O        -43.9360   18.7120   15.7550 O.2    19  GLY19      -0.2866
      5  N        -44.7550   20.5790   13.5640 N.3    62  GLY62      -0.1210
      6  CA       -44.6130   21.7960   14.3830 C.3    62  GLY62       0.1956
      7  C        -45.9240   22.0000   15.1530 C.2    62  GLY62       0.2611
      8  O        -46.8420   21.1830   15.0440 O.2    62  GLY62      -0.2717
      9  N        -45.9860   23.1060   15.8930 N.am   63  MET63      -0.1979
     10  CA       -47.1030   23.3780   16.8330 C.3    63  MET63       0.1605
     11  C        -47.9870   24.4930   16.2890 C.2    63  MET63       0.2287
     12  O        -47.4990   25.5630   15.9070 O.2    63  MET63      -0.2864
     13  CB       -46.5230   23.8010   18.1810 C.3    63  MET63       0.0413
     14  CG       -45.6510   22.7180   18.8200 C.3    63  MET63       0.0598
     15  SD       -44.9460   23.2750   20.3970 S.3    63  MET63      -0.1393
     16  CE       -43.7500   24.5050   19.9230 C.3    63  MET63       0.0692
     17  N        -52.8130   12.3410   12.5260 N.3    86  ARG86      -0.1245
     18  CA       -52.0510   13.0380   13.5530 C.3    86  ARG86       0.1563
     19  C        -51.9670   12.0830   14.7430 C.2    86  ARG86       0.2260
     20  O        -52.9290   11.4220   15.0770 O.2    86  ARG86      -0.2867
     21  CB       -52.7340   14.3770   13.9430 C.3    86  ARG86       0.0307
     22  CG       -52.3230   14.9130   15.3330 C.3    86  ARG86       0.0489
     23  CD       -52.7320   16.4070   15.4920 C.3    86  ARG86       0.2205
     24  NE       -52.7700   16.7080   16.9190 N.pl3  86  ARG86      -0.0865
     25  CZ       -51.7030   16.8770   17.6990 C.cat  86  ARG86       0.5346
     26  NH1      -51.8740   17.0900   19.0030 N.pl3  86  ARG86       0.1354
     27  NH2      -50.4640   16.8790   17.2020 N.pl3  86  ARG86       0.1354
     28  N        -50.6100   14.5600   21.5630 N.3    89  SER89      -0.1202
     29  CA       -51.2040   14.5970   22.8960 C.3    89  SER89       0.2020
     30  C        -52.1060   15.8030   23.0730 C.2    89  SER89       0.2619
     31  O        -52.1430   16.7020   22.2200 O.2    89  SER89      -0.2717
     32  CB       -50.1040   14.5770   23.9600 C.3    89  SER89       0.2103
     33  OG       -49.3300   15.7500   23.9330 O.3    89  SER89      -0.2182
     34  N        -52.8650   15.8060   24.1630 N.am   90  CYS90      -0.1955
     35  CA       -53.7300   16.9280   24.4450 C.3    90  CYS90       0.1843
     36  C        -53.8530   17.0490   25.9540 C.2    90  CYS90       0.2626
     37  O        -53.5650   16.0810   26.6940 O.2    90  CYS90      -0.2714
     38  CB       -55.1070   16.7600   23.7730 C.3    90  CYS90       0.0997
     39  SG       -56.1390   15.3910   24.4940 S.3    90  CYS90      -0.0797
     40  N        -54.2290   18.2300   26.4250 N.am   91  GLY91      -0.1954
     41  CA       -54.4590   18.4040   27.8540 C.3    91  GLY91       0.1869
     42  C        -55.8990   18.0480   28.1260 C.2    91  GLY91       0.2309
     43  O        -56.8080   18.6410   27.5410 O.2    91  GLY91      -0.2863
     44  N        -56.4580   24.9610   19.9930 N.3   155  ALA155     -0.1245
     45  CA       -56.1240   26.2690   20.5760 C.3   155  ALA155      0.1562
     46  C        -55.0240   26.9300   19.7840 C.2   155  ALA155      0.2260
     47  O        -54.0480   26.2840   19.4200 O.2   155  ALA155     -0.2867
     48  CB       -55.6150   26.0910   22.0190 C.3   155  ALA155      0.0290
     49  N        -53.4730   29.5410   21.4790 N.3   157  GLN157     -0.1231
     50  CA       -52.6470   30.0550   22.5760 C.3   157  GLN157      0.1698
     51  C        -52.4800   28.9960   23.6570 C.2   157  GLN157      0.2592
     52  O        -53.4130   28.7290   24.4540 O.2   157  GLN157     -0.2718
     53  CB       -53.2480   31.3330   23.1810 C.3   157  GLN157      0.0381
     54  CG       -53.1950   32.5190   22.1650 C.3   157  GLN157      0.0905
     55  CD       -53.5710   33.8190   22.8090 C.2   157  GLN157      0.2608
     56  OE1      -52.7590   34.4110   23.5390 O.2   157  GLN157     -0.2717
     57  NE2      -54.7840   34.3260   22.5040 N.am  157  GLN157     -0.0878
     58  N        -51.2990   28.3700   23.6730 N.am  158  PHE158     -0.1976
     59  CA       -50.9760   27.4140   24.7570 C.3   158  PHE158      0.1639
     60  C        -51.1420   28.1050   26.1170 C.2   158  PHE158      0.2290
     61  O        -51.6140   27.4720   27.0910 O.2   158  PHE158     -0.2864
     62  CB       -49.5350   26.9200   24.5540 C.3   158  PHE158      0.0560
     63  CG       -49.1260   25.8110   25.5180 C.ar  158  PHE158     -0.0200
     64  CD1      -49.3590   24.4830   25.1980 C.ar  158  PHE158     -0.0042
     65  CD2      -48.5230   26.1370   26.7300 C.ar  158  PHE158     -0.0042
     66  CE1      -48.9770   23.4620   26.0810 C.ar  158  PHE158     -0.0003
     67  CE2      -48.1410   25.1220   27.6300 C.ar  158  PHE158     -0.0003
     68  CZ       -48.3840   23.8000   27.2950 C.ar  158  PHE158     -0.0000
     69  N        -57.5930   19.6110   25.0060 N.3   176  VAL176     -0.1231
     70  CA       -57.0870   20.7690   24.2150 C.3   176  VAL176      0.1692
     71  C        -55.7330   20.4140   23.5580 C.2   176  VAL176      0.2592
     72  O        -54.7670   19.9300   24.2060 O.2   176  VAL176     -0.2718
     73  CB       -56.9920   22.0430   25.0660 C.3   176  VAL176      0.0266
     74  CG1      -56.1660   21.8000   26.3200 C.3   176  VAL176      0.0020
     75  CG2      -56.3580   23.1960   24.2790 C.3   176  VAL176      0.0020
     76  N        -55.6550   20.7000   22.2580 N.am  177  GLU177     -0.1966
     77  CA       -54.3850   20.5820   21.5320 C.3   177  GLU177      0.1733
     78  C        -54.3450   21.7300   20.5270 C.2   177  GLU177      0.2616
     79  O        -55.0290   22.7320   20.7470 O.2   177  GLU177     -0.2715
     80  CB       -54.1830   19.2060   20.8730 C.3   177  GLU177      0.0429
     81  CG       -55.3900   18.6090   20.1950 C.3   177  GLU177      0.1163
     82  CD       -55.3760   18.8570   18.7040 C.2   177  GLU177      0.3649
     83  OE1      -54.9470   17.9480   17.9610 O.co2 177  GLU177     -0.2457
     84  OE2      -55.8300   19.9250   18.2970 O.co2 177  GLU177     -0.2457
     85  N        -53.4980   21.6350   19.5030 N.am  178  MET178     -0.1963
     86  CA       -53.2270   22.8450   18.6830 C.3   178  MET178      0.1736
     87  C        -53.1580   22.5430   17.2140 C.2   178  MET178      0.2616
     88  O        -52.4960   23.2730   16.4790 O.2   178  MET178     -0.2715
     89  CB       -51.9040   23.5030   19.1250 C.3   178  MET178      0.0427
     90  CG       -51.8710   23.8880   20.6360 C.3   178  MET178      0.0599
     91  SD       -50.4180   24.7230   21.1940 S.3   178  MET178     -0.1393
     92  CE       -50.4520   26.2520   20.2040 C.3   178  MET178      0.0692
     93  N        -53.8530   21.5070   16.7540 N.am  179  GLU179     -0.1977
     94  CA       -53.6720   21.0530   15.3700 C.3   179  GLU179      0.1602
     95  C        -54.9020   20.5530   14.6420 C.2   179  GLU179      0.2287
     96  O        -54.9980   20.6890   13.4290 O.2   179  GLU179     -0.2864
     97  CB       -52.6210   19.9340   15.3190 C.3   179  GLU179      0.0415
     98  CG       -51.1740   20.4040   15.5240 C.3   179  GLU179      0.1163
     99  CD       -50.7660   20.5550   17.0120 C.2   179  GLU179      0.3649
    100  OE1      -51.4710   20.0080   17.9130 O.co2 179  GLU179     -0.2457
    101  OE2      -49.7770   21.2840   17.2730 O.co2 179  GLU179     -0.2457
    102  N        -51.7750   14.4340   28.1150 N.3   201  SER201     -0.1202
    103  CA       -50.4990   14.9500   28.6160 C.3   201  SER201      0.2020
    104  C        -50.6190   15.2880   30.1080 C.2   201  SER201      0.2618
    105  O        -49.6480   15.1880   30.8500 O.2   201  SER201     -0.2717
    106  CB       -50.0930   16.2230   27.8450 C.3   201  SER201      0.2103
    107  OG       -51.0590   17.2750   28.0680 O.3   201  SER201     -0.2182
    108  N        -51.8050   15.7230   30.5140 N.am  202  ASP202     -0.1973
    109  CA       -52.0950   16.1370   31.8930 C.3   202  ASP202      0.1709
    110  C        -53.5640   16.4900   32.0070 C.2   202  ASP202      0.2293
    111  O        -54.2820   16.5130   30.9970 O.2   202  ASP202     -0.2864
    112  CB       -51.2540   17.3580   32.2790 C.3   202  ASP202      0.1436
    113  CG       -51.7890   18.6690   31.6890 C.2   202  ASP202      0.3671
    114  OD1      -52.4120   18.6570   30.5980 O.co2 202  ASP202     -0.2456
    115  OD2      -51.5740   19.7400   32.3150 O.co2 202  ASP202     -0.2456
    116  N        -55.4340   19.6570   32.7070 N.3   204  VAL204     -0.1245
    117  CA       -55.1610   21.0940   32.7140 C.3   204  VAL204      0.1561
    118  C        -55.8450   21.8090   33.8830 C.2   204  VAL204      0.2260
    119  O        -55.2820   22.7490   34.4340 O.2   204  VAL204     -0.2867
    120  CB       -55.6350   21.7750   31.3860 C.3   204  VAL204      0.0252
    121  CG1      -55.1750   23.2380   31.3170 C.3   204  VAL204      0.0019
    122  CG2      -55.1020   21.0290   30.1880 C.3   204  VAL204      0.0019
@<TRIPOS>BOND
     1    17    18    1
     2    96    95    2
     3    18    21    1
     4    18    19    1
     5     5     6    1
     6    21    22    1
     7     6     7    1
     8    95    94    1
     9    19    20    2
    10     8     7    2
    11     7     9   am
    12    97    94    1
    13    97    98    1
    14    22    23    1
    15    94    93    1
    16    23    24    1
    17    98    99    1
    18     4     3    2
    19     9    10    1
    20    12    11    2
    21     1     2    1
    22     2     3    1
    23    11    10    1
    24    88    87    2
    25    93    87   am
    26    10    13    1
    27    24    25    2
    28    99   101   ar
    29    99   100   ar
    30    27    25    1
    31    87    86    1
    32    25    26    1
    33    83    82   ar
    34    13    14    1
    35    84    82   ar
    36    86    89    1
    37    86    85    1
    38    82    81    1
    39    14    15    1
    40    89    90    1
    41    47    46    2
    42    85    78   am
    43    46    45    1
    44    16    15    1
    45    44    45    1
    46    81    80    1
    47    92    91    1
    48    78    79    2
    49    78    77    1
    50    45    48    1
    51    90    91    1
    52    80    77    1
    53    49    50    1
    54    77    76    1
    55    28    29    1
    56    54    55    1
    57    54    53    1
    58    31    30    2
    59    76    71   am
    60    57    55   am
    61    50    53    1
    62    50    51    1
    63    55    56    2
    64    29    30    1
    65    29    32    1
    66    30    34   am
    67    71    72    2
    68    71    70    1
    69    51    58   am
    70    51    52    2
    71    58    59    1
    72    38    35    1
    73    38    39    1
    74    33    32    1
    75    34    35    1
    76    70    69    1
    77    70    73    1
    78    75    73    1
    79    35    36    1
    80    62    59    1
    81    62    63    1
    82    59    60    1
    83    73    74    1
    84    64    63   ar
    85    64    66   ar
    86    63    65   ar
    87    36    40   am
    88    36    37    2
    89    66    68   ar
    90    60    61    2
    91    40    41    1
    92    65    67   ar
    93    68    67   ar
    94    43    42    2
    95   106   107    1
    96   106   103    1
    97    41    42    1
    98   102   103    1
    99   103   104    1
   100   104   108   am
   101   104   105    2
   102   122   120    1
   103   108   109    1
   104   114   113   ar
   105   111   110    2
   106   121   120    1
   107   120   117    1
   108   113   112    1
   109   113   115   ar
   110   109   110    1
   111   109   112    1
   112   116   117    1
   113   117   118    1
   114   118   119    2
