@<TRIPOS>MOLECULE
tmp/4da7A00.pdb
 86 81 0 0 0
SMALL
GASTEIGER

@<TRIPOS>ATOM
      1  N        -50.2620   14.4850   21.4810 N.3    89  SER89      -0.1202
      2  CA       -50.8220   14.4600   22.8100 C.3    89  SER89       0.2020
      3  C        -51.7230   15.6690   22.9900 C.2    89  SER89       0.2619
      4  O        -51.7840   16.5710   22.1210 O.2    89  SER89      -0.2717
      5  CB       -49.7110   14.4000   23.8730 C.3    89  SER89       0.2103
      6  OG       -48.9500   15.5720   23.8760 O.3    89  SER89      -0.2182
      7  N        -52.4210   15.6730   24.1120 N.am   90  CYS90      -0.1955
      8  CA       -53.3150   16.7500   24.4530 C.3    90  CYS90       0.1843
      9  C        -53.3860   16.8870   25.9810 C.2    90  CYS90       0.2626
     10  O        -52.9300   15.9890   26.7220 O.2    90  CYS90      -0.2714
     11  CB       -54.6860   16.4950   23.8330 C.3    90  CYS90       0.0997
     12  SG       -55.6600   15.1710   24.6330 S.3    90  CYS90      -0.0797
     13  N        -53.8970   18.0210   26.4500 N.am   91  GLY91      -0.1954
     14  CA       -54.0970   18.2250   27.8710 C.3    91  GLY91       0.1869
     15  C        -55.5450   17.8670   28.1010 C.2    91  GLY91       0.2309
     16  O        -56.4310   18.4560   27.4680 O.2    91  GLY91      -0.2863
     17  N        -56.2080   24.7710   19.9970 N.3   155  ALA155     -0.1245
     18  CA       -55.9270   26.0720   20.5710 C.3   155  ALA155      0.1562
     19  C        -54.7820   26.7800   19.8270 C.2   155  ALA155      0.2260
     20  O        -53.8430   26.1210   19.4150 O.2   155  ALA155     -0.2867
     21  CB       -55.5930   25.9200   22.0460 C.3   155  ALA155      0.0290
     22  N        -53.3100   29.4440   21.5020 N.3   157  GLN157     -0.1231
     23  CA       -52.4580   29.8990   22.5950 C.3   157  GLN157      0.1698
     24  C        -52.2500   28.8630   23.6920 C.2   157  GLN157      0.2592
     25  O        -53.1870   28.5690   24.4610 O.2   157  GLN157     -0.2718
     26  CB       -53.0110   31.2030   23.1700 C.3   157  GLN157      0.0381
     27  CG       -52.9030   32.3620   22.1510 C.3   157  GLN157      0.0905
     28  CD       -53.2960   33.6790   22.7950 C.2   157  GLN157      0.2608
     29  OE1      -52.4900   34.2990   23.5140 O.2   157  GLN157     -0.2717
     30  NE2      -54.5650   34.0950   22.5800 N.am  157  GLN157     -0.0878
     31  N        -51.0470   28.2690   23.7450 N.am  158  PHE158     -0.1976
     32  CA       -50.7180   27.3450   24.8320 C.3   158  PHE158      0.1639
     33  C        -50.8650   28.0300   26.2080 C.2   158  PHE158      0.2290
     34  O        -51.3230   27.4190   27.1680 O.2   158  PHE158     -0.2864
     35  CB       -49.2970   26.8080   24.6340 C.3   158  PHE158      0.0560
     36  CG       -48.9050   25.6800   25.5780 C.ar  158  PHE158     -0.0200
     37  CD1      -49.0820   24.3380   25.2030 C.ar  158  PHE158     -0.0042
     38  CD2      -48.3120   25.9550   26.8210 C.ar  158  PHE158     -0.0042
     39  CE1      -48.6740   23.2790   26.0530 C.ar  158  PHE158     -0.0003
     40  CE2      -47.9120   24.8700   27.7030 C.ar  158  PHE158     -0.0003
     41  CZ       -48.1010   23.5630   27.2990 C.ar  158  PHE158     -0.0000
     42  N        -57.2880   19.4790   24.9990 N.3   176  VAL176     -0.1231
     43  CA       -56.8160   20.5940   24.1890 C.3   176  VAL176      0.1692
     44  C        -55.4420   20.2790   23.5720 C.2   176  VAL176      0.2592
     45  O        -54.5010   19.8610   24.2700 O.2   176  VAL176     -0.2718
     46  CB       -56.7510   21.8860   25.0380 C.3   176  VAL176      0.0266
     47  CG1      -55.9660   21.6220   26.3260 C.3   176  VAL176      0.0020
     48  CG2      -56.0930   23.0810   24.2410 C.3   176  VAL176      0.0020
     49  N        -55.3470   20.4840   22.2520 N.am  177  GLU177     -0.1966
     50  CA       -54.0800   20.3800   21.5300 C.3   177  GLU177      0.1733
     51  C        -54.0520   21.5180   20.5030 C.2   177  GLU177      0.2616
     52  O        -54.8420   22.4780   20.6290 O.2   177  GLU177     -0.2715
     53  CB       -53.9390   18.9800   20.9190 C.3   177  GLU177      0.0429
     54  CG       -55.2080   18.4880   20.2070 C.3   177  GLU177      0.1163
     55  CD       -55.1990   18.8170   18.7240 C.2   177  GLU177      0.3649
     56  OE1      -54.6500   18.0070   17.9350 O.co2 177  GLU177     -0.2457
     57  OE2      -55.7580   19.8570   18.3250 O.co2 177  GLU177     -0.2457
     58  N        -53.1710   21.4360   19.5040 N.am  178  MET178     -0.1977
     59  CA       -52.8770   22.5920   18.6790 C.3   178  MET178      0.1605
     60  C        -52.8370   22.3490   17.1570 C.2   178  MET178      0.2287
     61  O        -52.2270   23.1170   16.4230 O.2   178  MET178     -0.2864
     62  CB       -51.5730   23.2320   19.1700 C.3   178  MET178      0.0413
     63  CG       -51.6260   23.7250   20.6630 C.3   178  MET178      0.0598
     64  SD       -50.1500   24.5740   21.2560 S.3   178  MET178     -0.1393
     65  CE       -50.1280   26.0970   20.2550 C.3   178  MET178      0.0692
     66  N        -51.2950   14.0920   28.1910 N.3   201  SER201     -0.1202
     67  CA       -50.0370   14.4150   28.8540 C.3   201  SER201      0.2020
     68  C        -50.2430   14.9660   30.2750 C.2   201  SER201      0.2618
     69  O        -49.3030   15.0160   31.0720 O.2   201  SER201     -0.2717
     70  CB       -49.2560   15.4090   28.0080 C.3   201  SER201      0.2103
     71  OG       -49.9790   16.6150   27.9330 O.3   201  SER201     -0.2182
     72  N        -51.4590   15.4270   30.5750 N.am  202  ASP202     -0.1973
     73  CA       -51.7660   15.9570   31.8840 C.3   202  ASP202      0.1709
     74  C        -53.2350   16.2830   31.9580 C.2   202  ASP202      0.2293
     75  O        -53.9440   16.1510   30.9580 O.2   202  ASP202     -0.2864
     76  CB       -50.9020   17.2010   32.1950 C.3   202  ASP202      0.1436
     77  CG       -51.2680   18.4330   31.3470 C.2   202  ASP202      0.3671
     78  OD1      -52.1030   18.3610   30.4200 O.co2 202  ASP202     -0.2456
     79  OD2      -50.7170   19.5250   31.6250 O.co2 202  ASP202     -0.2456
     80  N        -55.1560   19.6420   32.6950 N.3   204  VAL204     -0.1245
     81  CA       -54.7900   21.0410   32.7100 C.3   204  VAL204      0.1561
     82  C        -55.4770   21.7640   33.8640 C.2   204  VAL204      0.2260
     83  O        -54.9250   22.7110   34.4030 O.2   204  VAL204     -0.2867
     84  CB       -55.1730   21.7390   31.3850 C.3   204  VAL204      0.0252
     85  CG1      -54.4740   23.0930   31.2900 C.3   204  VAL204      0.0019
     86  CG2      -54.7830   20.8790   30.1900 C.3   204  VAL204      0.0019
@<TRIPOS>BOND
     1    61    60    2
     2    60    59    1
     3    56    55   ar
     4    57    55   ar
     5    59    62    1
     6    59    58    1
     7    55    54    1
     8    62    63    1
     9    20    19    2
    10    58    51   am
    11    19    18    1
    12    17    18    1
    13    54    53    1
    14    65    64    1
    15    51    52    2
    16    51    50    1
    17    18    21    1
    18    63    64    1
    19    53    50    1
    20     1     2    1
    21    22    23    1
    22    50    49    1
    23     4     3    2
    24    27    28    1
    25    27    26    1
    26    49    44   am
    27    30    28   am
    28    23    26    1
    29    23    24    1
    30    28    29    2
    31     2     3    1
    32     2     5    1
    33     3     7   am
    34    44    43    1
    35    44    45    2
    36    24    31   am
    37    24    25    2
    38    31    32    1
    39    11     8    1
    40    11    12    1
    41     5     6    1
    42     7     8    1
    43    43    42    1
    44    43    46    1
    45    48    46    1
    46     8     9    1
    47    35    32    1
    48    35    36    1
    49    32    33    1
    50    46    47    1
    51    37    36   ar
    52    37    39   ar
    53    36    38   ar
    54     9    13   am
    55     9    10    2
    56    39    41   ar
    57    33    34    2
    58    13    14    1
    59    38    40   ar
    60    41    40   ar
    61    16    15    2
    62    14    15    1
    63    71    70    1
    64    70    67    1
    65    66    67    1
    66    67    68    1
    67    86    84    1
    68    68    72   am
    69    68    69    2
    70    78    77   ar
    71    72    73    1
    72    75    74    2
    73    85    84    1
    74    77    79   ar
    75    77    76    1
    76    84    81    1
    77    73    74    1
    78    73    76    1
    79    80    81    1
    80    81    82    1
    81    82    83    2
