@<TRIPOS>MOLECULE
tmp/4daeA00.pdb
 122 114 0 0 0
SMALL
GASTEIGER

@<TRIPOS>ATOM
      1  N        -46.2330   16.1950   15.9970 N.3    20  GLY20      -0.1225
      2  CA       -45.8310   17.5890   15.9710 C.3    20  GLY20       0.1811
      3  C        -44.3240   17.7740   16.0330 C.2    20  GLY20       0.2280
      4  O        -43.7450   18.6030   15.2950 O.2    20  GLY20      -0.2866
      5  N        -44.7340   20.4900   13.2060 N.3    63  GLY63      -0.1210
      6  CA       -44.6290   21.6600   14.0830 C.3    63  GLY63       0.1956
      7  C        -45.9170   21.8750   14.8990 C.2    63  GLY63       0.2611
      8  O        -46.8400   21.0460   14.8720 O.2    63  GLY63      -0.2717
      9  N        -45.9650   23.0020   15.6060 N.am   64  MET64      -0.1979
     10  CA       -47.0490   23.3350   16.5280 C.3    64  MET64       0.1605
     11  C        -47.9520   24.4870   16.0160 C.2    64  MET64       0.2287
     12  O        -47.4690   25.5530   15.5910 O.2    64  MET64      -0.2864
     13  CB       -46.4850   23.6930   17.9050 C.3    64  MET64       0.0413
     14  CG       -45.5230   22.6480   18.5010 C.3    64  MET64       0.0598
     15  SD       -44.9750   23.1090   20.1890 S.3    64  MET64      -0.1393
     16  CE       -43.8980   24.4940   19.9000 C.3    64  MET64       0.0692
     17  N        -52.7630   12.3080   12.2630 N.3    87  ARG87      -0.1245
     18  CA       -52.0700   13.0070   13.3160 C.3    87  ARG87       0.1563
     19  C        -51.9120   12.0260   14.4650 C.2    87  ARG87       0.2260
     20  O        -52.8670   11.3320   14.8270 O.2    87  ARG87      -0.2867
     21  CB       -52.8510   14.2400   13.7810 C.3    87  ARG87       0.0307
     22  CG       -52.2730   14.8940   15.0230 C.3    87  ARG87       0.0489
     23  CD       -52.6790   16.3940   15.1350 C.3    87  ARG87       0.2205
     24  NE       -52.6660   16.7770   16.5410 N.pl3  87  ARG87      -0.0865
     25  CZ       -51.5590   16.9660   17.2410 C.cat  87  ARG87       0.5346
     26  NH1      -51.6440   17.2630   18.5340 N.pl3  87  ARG87       0.1354
     27  NH2      -50.3620   16.8630   16.6460 N.pl3  87  ARG87       0.1354
     28  N        -50.4540   14.5390   21.3230 N.3    90  SER90      -0.1202
     29  CA       -51.1360   14.5750   22.6070 C.3    90  SER90       0.2020
     30  C        -52.0180   15.7960   22.7990 C.2    90  SER90       0.2619
     31  O        -52.0420   16.7280   21.9690 O.2    90  SER90      -0.2717
     32  CB       -50.1530   14.3850   23.7570 C.3    90  SER90       0.2103
     33  OG       -49.1400   15.3710   23.7500 O.3    90  SER90      -0.2182
     34  N        -52.7800   15.7740   23.8810 N.am   91  CYS91      -0.1955
     35  CA       -53.6360   16.8710   24.1870 C.3    91  CYS91       0.1843
     36  C        -53.7730   16.9170   25.7110 C.2    91  CYS91       0.2626
     37  O        -53.4860   15.9120   26.3820 O.2    91  CYS91      -0.2714
     38  CB       -54.9850   16.6780   23.4880 C.3    91  CYS91       0.0997
     39  SG       -56.0320   15.3940   24.2320 S.3    91  CYS91      -0.0797
     40  N        -54.1660   18.0720   26.2530 N.am   92  GLY92      -0.1954
     41  CA       -54.3840   18.2190   27.6800 C.3    92  GLY92       0.1869
     42  C        -55.8420   17.8890   27.9290 C.2    92  GLY92       0.2309
     43  O        -56.7210   18.5040   27.3220 O.2    92  GLY92      -0.2863
     44  N        -56.5670   24.9830   19.8060 N.3   156  ALA156     -0.1245
     45  CA       -56.2510   26.3180   20.3520 C.3   156  ALA156      0.1562
     46  C        -55.0980   26.9530   19.5860 C.2   156  ALA156      0.2260
     47  O        -54.2130   26.2320   19.1030 O.2   156  ALA156     -0.2867
     48  CB       -55.8830   26.2150   21.8380 C.3   156  ALA156      0.0290
     49  N        -53.4690   29.4660   21.2230 N.3   158  GLN158     -0.1231
     50  CA       -52.6340   29.9500   22.3080 C.3   158  GLN158      0.1698
     51  C        -52.4680   28.9090   23.4130 C.2   158  GLN158      0.2592
     52  O        -53.4150   28.6640   24.1690 O.2   158  GLN158     -0.2718
     53  CB       -53.2200   31.2580   22.8670 C.3   158  GLN158      0.0381
     54  CG       -52.9960   32.4910   21.9520 C.3   158  GLN158      0.0905
     55  CD       -53.5280   33.7880   22.5430 C.2   158  GLN158      0.2608
     56  OE1      -52.8150   34.4790   23.2930 O.2   158  GLN158     -0.2717
     57  NE2      -54.7830   34.1460   22.1950 N.am  158  GLN158     -0.0878
     58  N        -51.2770   28.3050   23.5060 N.am  159  PHE159     -0.1976
     59  CA       -50.9240   27.3720   24.5880 C.3   159  PHE159      0.1639
     60  C        -51.1170   28.0570   25.9340 C.2   159  PHE159      0.2290
     61  O        -51.7110   27.4740   26.8300 O.2   159  PHE159     -0.2864
     62  CB       -49.4770   26.8810   24.4290 C.3   159  PHE159      0.0560
     63  CG       -49.0760   25.7570   25.3750 C.ar  159  PHE159     -0.0200
     64  CD1      -49.2730   24.4170   25.0240 C.ar  159  PHE159     -0.0042
     65  CD2      -48.4430   26.0480   26.5970 C.ar  159  PHE159     -0.0042
     66  CE1      -48.8880   23.3640   25.9010 C.ar  159  PHE159     -0.0003
     67  CE2      -48.0440   25.0210   27.4790 C.ar  159  PHE159     -0.0003
     68  CZ       -48.2750   23.6640   27.1360 C.ar  159  PHE159     -0.0000
     69  N        -57.5830   19.6820   24.7630 N.3   177  VAL177     -0.1231
     70  CA       -57.0650   20.7990   24.0060 C.3   177  VAL177      0.1692
     71  C        -55.7070   20.4560   23.3570 C.2   177  VAL177      0.2592
     72  O        -54.8010   19.8960   23.9960 O.2   177  VAL177     -0.2718
     73  CB       -56.9270   22.0710   24.9010 C.3   177  VAL177      0.0266
     74  CG1      -56.1820   21.7660   26.2040 C.3   177  VAL177      0.0020
     75  CG2      -56.2230   23.1950   24.1620 C.3   177  VAL177      0.0020
     76  N        -55.5910   20.8080   22.0820 N.am  178  GLU178     -0.1966
     77  CA       -54.3660   20.6120   21.3300 C.3   178  GLU178      0.1733
     78  C        -54.3640   21.7410   20.3110 C.2   178  GLU178      0.2616
     79  O        -55.0910   22.7100   20.4940 O.2   178  GLU178     -0.2715
     80  CB       -54.3260   19.2080   20.7050 C.3   178  GLU178      0.0429
     81  CG       -55.6080   18.8360   20.0450 C.3   178  GLU178      0.1163
     82  CD       -55.6140   19.1850   18.5800 C.2   178  GLU178      0.3649
     83  OE1      -54.9130   18.5140   17.8090 O.co2 178  GLU178     -0.2457
     84  OE2      -56.3360   20.1150   18.1780 O.co2 178  GLU178     -0.2457
     85  N        -53.5500   21.6530   19.2630 N.am  179  MET179     -0.1963
     86  CA       -53.3090   22.8300   18.4310 C.3   179  MET179      0.1736
     87  C        -53.1830   22.5940   16.9330 C.2   179  MET179      0.2616
     88  O        -52.6280   23.4570   16.2370 O.2   179  MET179     -0.2715
     89  CB       -52.0730   23.5740   18.9410 C.3   179  MET179      0.0427
     90  CG       -52.1510   23.9600   20.4630 C.3   179  MET179      0.0599
     91  SD       -50.6130   24.6840   21.0690 S.3   179  MET179     -0.1393
     92  CE       -50.6500   26.3690   20.4080 C.3   179  MET179      0.0692
     93  N        -53.6920   21.4660   16.4230 N.am  180  GLU180     -0.1977
     94  CA       -53.4870   21.0860   15.0100 C.3   180  GLU180      0.1602
     95  C        -54.7160   20.4840   14.3220 C.2   180  GLU180      0.2287
     96  O        -54.8860   20.6140   13.1080 O.2   180  GLU180     -0.2864
     97  CB       -52.3210   20.0870   14.8930 C.3   180  GLU180      0.0415
     98  CG       -50.9150   20.6820   15.1510 C.3   180  GLU180      0.1163
     99  CD       -50.5580   20.7000   16.6210 C.2   180  GLU180      0.3649
    100  OE1      -51.0970   19.8510   17.3550 O.co2 180  GLU180     -0.2457
    101  OE2      -49.7430   21.5560   17.0480 O.co2 180  GLU180     -0.2457
    102  N        -51.4170   14.4340   27.6750 N.3   202  SER202     -0.1202
    103  CA       -50.1870   14.9820   28.2350 C.3   202  SER202      0.2020
    104  C        -50.3510   15.3550   29.7370 C.2   202  SER202      0.2618
    105  O        -49.3680   15.3770   30.4830 O.2   202  SER202     -0.2717
    106  CB       -49.7770   16.2310   27.4440 C.3   202  SER202      0.2103
    107  OG       -50.8440   17.1810   27.5190 O.3   202  SER202     -0.2182
    108  N        -51.5850   15.6830   30.1360 N.am  203  ASP203     -0.1973
    109  CA       -51.9270   16.1930   31.4610 C.3   203  ASP203      0.1709
    110  C        -53.4210   16.4790   31.5520 C.2   203  ASP203      0.2293
    111  O        -54.1320   16.3920   30.5520 O.2   203  ASP203     -0.2864
    112  CB       -51.0840   17.4380   31.8510 C.3   203  ASP203      0.1436
    113  CG       -51.7320   18.7900   31.4510 C.2   203  ASP203      0.3671
    114  OD1      -52.7240   18.8340   30.6540 O.co2 203  ASP203     -0.2456
    115  OD2      -51.2280   19.8340   31.9490 O.co2 203  ASP203     -0.2456
    116  N        -55.6370   19.6110   32.4050 N.3   205  VAL205     -0.1245
    117  CA       -55.3640   21.0480   32.4220 C.3   205  VAL205      0.1561
    118  C        -56.0640   21.7430   33.5960 C.2   205  VAL205      0.2260
    119  O        -55.5410   22.7020   34.1660 O.2   205  VAL205     -0.2867
    120  CB       -55.7880   21.6980   31.0870 C.3   205  VAL205      0.0252
    121  CG1      -55.6200   23.2140   31.1430 C.3   205  VAL205      0.0019
    122  CG2      -54.9480   21.1500   29.9680 C.3   205  VAL205      0.0019
@<TRIPOS>BOND
     1    17    18    1
     2    96    95    2
     3     5     6    1
     4    18    21    1
     5    18    19    1
     6    21    22    1
     7     6     7    1
     8    95    94    1
     9    19    20    2
    10     8     7    2
    11    97    94    1
    12    97    98    1
    13     7     9   am
    14    94    93    1
    15    22    23    1
    16    23    24    1
    17    98    99    1
    18     4     3    2
    19    12    11    2
    20     9    10    1
    21     2     1    1
    22     2     3    1
    23    11    10    1
    24    88    87    2
    25    93    87   am
    26    10    13    1
    27    24    25    2
    28    99   101   ar
    29    99   100   ar
    30    27    25    1
    31    87    86    1
    32    25    26    1
    33    83    82   ar
    34    13    14    1
    35    84    82   ar
    36    86    89    1
    37    86    85    1
    38    14    15    1
    39    82    81    1
    40    89    90    1
    41    47    46    2
    42    85    78   am
    43    46    45    1
    44    44    45    1
    45    16    15    1
    46    81    80    1
    47    78    79    2
    48    78    77    1
    49    45    48    1
    50    92    91    1
    51    90    91    1
    52    80    77    1
    53    49    50    1
    54    28    29    1
    55    77    76    1
    56    54    55    1
    57    54    53    1
    58    31    30    2
    59    76    71   am
    60    57    55   am
    61    50    53    1
    62    50    51    1
    63    55    56    2
    64    29    30    1
    65    29    32    1
    66    30    34   am
    67    71    72    2
    68    71    70    1
    69    51    58   am
    70    51    52    2
    71    38    35    1
    72    38    39    1
    73    58    59    1
    74    33    32    1
    75    34    35    1
    76    70    69    1
    77    70    73    1
    78    75    73    1
    79    35    36    1
    80    62    59    1
    81    62    63    1
    82    59    60    1
    83    73    74    1
    84    64    63   ar
    85    64    66   ar
    86    63    65   ar
    87    36    40   am
    88    36    37    2
    89    66    68   ar
    90    60    61    2
    91    40    41    1
    92    65    67   ar
    93    68    67   ar
    94    43    42    2
    95   106   107    1
    96   106   103    1
    97   102   103    1
    98    41    42    1
    99   103   104    1
   100   104   108   am
   101   104   105    2
   102   122   120    1
   103   108   109    1
   104   111   110    2
   105   114   113   ar
   106   120   121    1
   107   120   117    1
   108   113   112    1
   109   113   115   ar
   110   109   110    1
   111   109   112    1
   112   116   117    1
   113   117   118    1
   114   118   119    2
