@<TRIPOS>MOLECULE
tmp/4daiA00.pdb
 131 119 0 0 0
SMALL
GASTEIGER

@<TRIPOS>ATOM
      1  N        -21.4620   25.9530   11.6220 N.3    24  ILE24      -0.1245
      2  CA       -20.2370   25.2630   12.0120 C.3    24  ILE24       0.1561
      3  C        -20.3260   24.8320   13.4680 C.2    24  ILE24       0.2260
      4  O        -20.4350   25.6770   14.3590 O.2    24  ILE24      -0.2867
      5  CB       -19.0230   26.1890   11.8410 C.3    24  ILE24       0.0252
      6  CG1      -19.0590   26.8210   10.4490 C.3    24  ILE24       0.0019
      7  CG2      -17.7290   25.4080   12.0440 C.3    24  ILE24       0.0019
      8  CD1      -18.0130   27.8740   10.2400 C.3    24  ILE24       0.0001
      9  N        -16.8490   17.3650    7.9520 N.3    89  ASP89      -0.1239
     10  CA       -15.7740   18.2140    7.4530 C.3    89  ASP89       0.1674
     11  C        -14.4160   17.5070    7.4520 C.2    89  ASP89       0.2266
     12  O        -13.6700   17.5900    8.4200 O.2    89  ASP89      -0.2867
     13  CB       -15.7160   19.4850    8.3090 C.3    89  ASP89       0.1410
     14  CG       -14.7120   20.5050    7.8020 C.2    89  ASP89       0.3668
     15  OD1      -14.6250   21.5910    8.4180 O.co2  89  ASP89      -0.2456
     16  OD2      -14.0130   20.2370    6.8050 O.co2  89  ASP89      -0.2456
     17  N        -17.6730   16.9900    3.1690 N.3   108  ASN108     -0.1225
     18  CA       -17.1520   18.3330    2.9990 C.3   108  ASN108      0.1785
     19  C        -15.6310   18.2790    2.8840 C.2   108  ASN108      0.2597
     20  O        -14.9070   18.5110    3.8540 O.2   108  ASN108     -0.2718
     21  CB       -17.5770   19.1810    4.1960 C.3   108  ASN108      0.1169
     22  CG       -17.3900   20.6520    3.9570 C.2   108  ASN108      0.2627
     23  OD1      -17.6820   21.1540    2.8720 O.2   108  ASN108     -0.2716
     24  ND2      -16.9170   21.3630    4.9740 N.am  108  ASN108     -0.0877
     25  N        -15.1520   17.9810    1.6810 N.am  109  ASP109     -0.1960
     26  CA       -13.7200   17.8580    1.4280 C.3   109  ASP109      0.1840
     27  C        -13.0430   19.1950    1.1400 C.2   109  ASP109      0.2621
     28  O        -13.2690   19.7860    0.0940 O.2   109  ASP109     -0.2715
     29  CB       -13.5060   16.8950    0.2600 C.3   109  ASP109      0.1450
     30  CG       -12.0550   16.5360    0.0620 C.2   109  ASP109      0.3671
     31  OD1      -11.7720   15.5980   -0.7120 O.co2 109  ASP109     -0.2456
     32  OD2      -11.1930   17.1950    0.6760 O.co2 109  ASP109     -0.2456
     33  N        -12.2060   19.6640    2.0630 N.am  110  ILE110     -0.1977
     34  CA       -11.5230   20.9400    1.8840 C.3   110  ILE110      0.1596
     35  C        -10.3960   20.8460    0.8510 C.2   110  ILE110      0.2287
     36  O         -9.6960   21.8360    0.5800 O.2   110  ILE110     -0.2864
     37  CB       -10.9230   21.4540    3.2110 C.3   110  ILE110      0.0276
     38  CG1       -9.8870   20.4540    3.7280 C.3   110  ILE110      0.0022
     39  CG2      -12.0200   21.6610    4.2360 C.3   110  ILE110      0.0022
     40  CD1       -8.8690   21.0590    4.6560 C.3   110  ILE110      0.0001
     41  N        -19.0880   18.2220   -1.2220 N.3   131  ILE131     -0.1245
     42  CA       -18.6280   19.5910   -1.4230 C.3   131  ILE131      0.1561
     43  C        -17.1490   19.5980   -1.8370 C.2   131  ILE131      0.2260
     44  O        -16.2710   19.1520   -1.0870 O.2   131  ILE131     -0.2867
     45  CB       -18.8140   20.4420   -0.1310 C.3   131  ILE131      0.0252
     46  CG1      -20.3030   20.7500    0.0720 C.3   131  ILE131      0.0019
     47  CG2      -17.9530   21.7150   -0.1980 C.3   131  ILE131      0.0019
     48  CD1      -20.6360   21.3790    1.4180 C.3   131  ILE131      0.0001
     49  N        -14.1910   21.8870   -2.4840 N.3   133  MET133     -0.1245
     50  CA       -13.6950   23.2320   -2.2270 C.3   133  MET133      0.1570
     51  C        -12.3850   23.4300   -2.9740 C.2   133  MET133      0.2261
     52  O        -11.6190   22.4900   -3.1310 O.2   133  MET133     -0.2867
     53  CB       -13.4760   23.4420   -0.7260 C.3   133  MET133      0.0387
     54  CG       -13.0220   24.8430   -0.3580 C.3   133  MET133      0.0595
     55  SD       -12.3560   25.0440    1.3150 S.3   133  MET133     -0.1393
     56  CE       -10.6500   24.6880    1.0310 C.3   133  MET133      0.0692
     57  N        -17.1910   25.0310   -3.8710 N.3   172  ASP172     -0.1239
     58  CA       -16.8190   26.0500   -2.8740 C.3   172  ASP172      0.1674
     59  C        -15.5450   26.7360   -3.4130 C.2   172  ASP172      0.2266
     60  O        -14.5860   26.0690   -3.7900 O.2   172  ASP172     -0.2867
     61  CB       -16.5620   25.3770   -1.5100 C.3   172  ASP172      0.1410
     62  CG       -16.3260   26.3720   -0.3690 C.2   172  ASP172      0.3668
     63  OD1      -15.2250   26.9370   -0.2690 O.co2 172  ASP172     -0.2456
     64  OD2      -17.2370   26.5810    0.4550 O.co2 172  ASP172     -0.2456
     65  N        -12.3600   30.3510   -0.1360 N.3   175  ILE175     -0.1245
     66  CA       -11.9340   31.6350    0.4050 C.3   175  ILE175      0.1561
     67  C        -11.0480   31.3810    1.6200 C.2   175  ILE175      0.2260
     68  O        -11.4440   30.6800    2.5470 O.2   175  ILE175     -0.2867
     69  CB       -13.1530   32.4680    0.8550 C.3   175  ILE175      0.0252
     70  CG1      -14.1130   32.6570   -0.3190 C.3   175  ILE175      0.0019
     71  CG2      -12.7010   33.8130    1.3970 C.3   175  ILE175      0.0019
     72  CD1      -13.5480   33.4500   -1.4820 C.3   175  ILE175      0.0001
     73  N         -7.9320   30.0120    1.3420 N.3   177  PHE177     -0.1241
     74  CA        -7.0200   28.8960    1.0920 C.3   177  PHE177      0.1605
     75  C         -6.1490   29.1230   -0.1310 C.2   177  PHE177      0.2264
     76  O         -6.6640   29.3040   -1.2380 O.2   177  PHE177     -0.2867
     77  CB        -7.8000   27.5890    0.9160 C.3   177  PHE177      0.0534
     78  CG        -8.4960   27.1390    2.1600 C.ar  177  PHE177     -0.0203
     79  CD1       -9.6910   27.7350    2.5570 C.ar  177  PHE177     -0.0042
     80  CD2       -7.9390   26.1420    2.9560 C.ar  177  PHE177     -0.0042
     81  CE1      -10.3170   27.3490    3.7370 C.ar  177  PHE177     -0.0003
     82  CE2       -8.5500   25.7500    4.1300 C.ar  177  PHE177     -0.0003
     83  CZ        -9.7460   26.3490    4.5250 C.ar  177  PHE177     -0.0000
     84  N        -21.2350   26.7760   -2.4300 N.3   202  LEU202     -0.1245
     85  CA       -21.2200   27.0320   -0.9940 C.3   202  LEU202      0.1561
     86  C        -20.1010   28.0320   -0.6940 C.2   202  LEU202      0.2260
     87  O        -18.9720   27.8630   -1.1520 O.2   202  LEU202     -0.2867
     88  CB       -20.9420   25.7400   -0.2210 C.3   202  LEU202      0.0270
     89  CG       -20.3280   26.0020    1.1610 C.3   202  LEU202      0.0019
     90  CD1      -21.3960   26.5470    2.1050 C.3   202  LEU202      0.0001
     91  CD2      -19.7130   24.7350    1.7080 C.3   202  LEU202      0.0001
     92  N        -17.7110   29.7940    2.1700 N.3   204  GLY204     -0.1225
     93  CA       -17.2430   29.7400    3.5470 C.3   204  GLY204      0.1811
     94  C        -16.2490   30.8510    3.8490 C.2   204  GLY204      0.2280
     95  O        -15.0650   30.7290    3.5340 O.2   204  GLY204     -0.2866
     96  N        -16.7940   32.8110    6.9990 N.3   206  SER206     -0.1217
     97  CA       -17.0460   33.1880    8.3820 C.3   206  SER206      0.1889
     98  C        -15.8120   33.5350    9.2180 C.2   206  SER206      0.2288
     99  O        -14.8940   32.7260    9.3460 O.2   206  SER206     -0.2866
    100  CB       -17.8420   32.0840    9.0780 C.3   206  SER206      0.2089
    101  OG       -18.3300   32.5280   10.3280 O.3   206  SER206     -0.2183
    102  N        -13.1570   34.7520    8.8540 N.3   208  LYS208     -0.1245
    103  CA       -11.8390   34.5120    8.2930 C.3   208  LYS208      0.1561
    104  C        -10.8670   35.6900    8.3210 C.2   208  LYS208      0.2260
    105  O        -11.2480   36.8510    8.4920 O.2   208  LYS208     -0.2867
    106  CB       -11.9780   33.9650    6.8710 C.3   208  LYS208      0.0271
    107  CG       -12.4040   32.5080    6.8330 C.3   208  LYS208      0.0035
    108  CD       -12.6390   32.0240    5.4150 C.3   208  LYS208      0.0206
    109  CE       -12.7640   30.5160    5.3730 C.3   208  LYS208      0.1093
    110  NZ       -11.5460   29.9050    5.9700 N.3   208  LYS208     -0.1314
    111  N        -21.5740   28.9160    4.8560 N.3   242  ARG242     -0.1245
    112  CA       -21.0730   28.2310    6.0440 C.3   242  ARG242      0.1563
    113  C        -20.6550   29.2860    7.0790 C.2   242  ARG242      0.2260
    114  O        -19.6130   29.9170    6.9310 O.2   242  ARG242     -0.2867
    115  CB       -19.8820   27.3670    5.6300 C.3   242  ARG242      0.0307
    116  CG       -19.1560   26.6590    6.7450 C.3   242  ARG242      0.0489
    117  CD       -18.2140   25.6250    6.1460 C.3   242  ARG242      0.2205
    118  NE       -17.4490   24.8920    7.1470 N.pl3 242  ARG242     -0.0865
    119  CZ       -16.5230   25.4360    7.9320 C.cat 242  ARG242      0.5346
    120  NH1      -16.2440   26.7280    7.8360 N.pl3 242  ARG242      0.1354
    121  NH2      -15.8620   24.6850    8.8040 N.pl3 242  ARG242      0.1354
    122  N        -20.5360   30.8710   11.4440 N.3   244  HIS244     -0.1241
    123  CA       -20.4480   30.5960   12.8750 C.3   244  HIS244      0.1621
    124  C        -21.6500   31.2300   13.5580 C.2   244  HIS244      0.2264
    125  O        -22.3670   30.5880   14.3250 O.2   244  HIS244     -0.2867
    126  CB       -19.1880   31.2110   13.4850 C.3   244  HIS244      0.0745
    127  CG       -17.9140   30.5550   13.0640 C.ar  244  HIS244      0.0817
    128  ND1      -17.2270   30.9170   11.9250 N.ar  244  HIS244     -0.2268
    129  CD2      -17.1780   29.5820   13.6520 C.ar  244  HIS244      0.1154
    130  CE1      -16.1200   30.2000   11.8330 C.ar  244  HIS244      0.1986
    131  NE2      -16.0660   29.3830   12.8690 N.ar  244  HIS244     -0.2212
@<TRIPOS>BOND
     1    57    58    1
     2    60    59    2
     3    59    58    1
     4    52    51    2
     5    51    50    1
     6    58    61    1
     7    49    50    1
     8    84    85    1
     9    50    53    1
    10    43    42    1
    11    43    44    2
    12    61    62    1
    13    72    70    1
    14    42    41    1
    15    42    45    1
    16    76    75    2
    17    87    86    2
    18    85    86    1
    19    85    88    1
    20    53    54    1
    21    31    30   ar
    22    62    63   ar
    23    62    64   ar
    24    54    55    1
    25    70    69    1
    26    88    89    1
    27    47    45    1
    28    65    66    1
    29    45    46    1
    30    75    74    1
    31    30    29    1
    32    30    32   ar
    33    46    48    1
    34    28    27    2
    35    29    26    1
    36    66    69    1
    37    66    67    1
    38    36    35    2
    39    35    34    1
    40    69    71    1
    41    77    74    1
    42    77    78    1
    43    56    55    1
    44    74    73    1
    45    27    26    1
    46    27    33   am
    47    89    91    1
    48    89    90    1
    49    26    25    1
    50    67    68    2
    51    25    19   am
    52    34    33    1
    53    34    37    1
    54    78    79   ar
    55    78    80   ar
    56    92    93    1
    57    79    81   ar
    58    23    22    2
    59    19    18    1
    60    19    20    2
    61    80    82   ar
    62    18    17    1
    63    18    21    1
    64    37    38    1
    65    37    39    1
    66    95    94    2
    67    93    94    1
    68    38    40    1
    69    81    83   ar
    70    22    21    1
    71    22    24   am
    72    82    83   ar
    73   111   112    1
    74   109   108    1
    75   109   110    1
    76   108   107    1
    77   115   112    1
    78   115   116    1
    79   112   113    1
    80   117   116    1
    81   117   118    1
    82    16    14   ar
    83   107   106    1
    84   106   103    1
    85   114   113    2
    86    96    97    1
    87   118   119    2
    88    11    10    1
    89    11    12    2
    90    10     9    1
    91    10    13    1
    92    14    13    1
    93    14    15   ar
    94   120   119    1
    95   119   121    1
    96   103   104    1
    97   103   102    1
    98   104   105    2
    99    97   100    1
   100    97    98    1
   101   100   101    1
   102    98    99    2
   103     8     6    1
   104     6     5    1
   105   122   123    1
   106     1     2    1
   107   130   128   ar
   108   130   131   ar
   109     5     2    1
   110     5     7    1
   111   128   127   ar
   112     2     3    1
   113   131   129   ar
   114   123   126    1
   115   123   124    1
   116   127   126    1
   117   127   129   ar
   118     3     4    2
   119   124   125    2
