@<TRIPOS>MOLECULE
tmp/4danB00.pdb
 118 110 0 0 0
SMALL
GASTEIGER

@<TRIPOS>ATOM
      1  N         45.6060   17.0480   11.7160 N.3    19  GLY19      -0.1225
      2  CA        45.3220   18.4880   11.5990 C.3    19  GLY19       0.1811
      3  C         43.8410   18.7930   11.6310 C.2    19  GLY19       0.2280
      4  O         43.3810   19.7800   12.2260 O.2    19  GLY19      -0.2866
      5  N         45.3770   24.0120   12.0540 N.3    63  MET63      -0.1245
      6  CA        46.5010   24.2430   11.1480 C.3    63  MET63       0.1570
      7  C         47.3970   25.3460   11.6730 C.2    63  MET63       0.2261
      8  O         46.9040   26.3430   12.1740 O.2    63  MET63      -0.2867
      9  CB        45.9830   24.6790    9.7860 C.3    63  MET63       0.0387
     10  CG        44.7610   23.9280    9.2900 C.3    63  MET63       0.0595
     11  SD        44.2790   24.5420    7.6810 S.3    63  MET63      -0.1393
     12  CE        43.4990   26.0980    8.1290 C.3    63  MET63       0.0692
     13  N         51.8470   12.7950   15.5580 N.3    86  ARG86      -0.1245
     14  CA        51.0950   13.5640   14.5560 C.3    86  ARG86       0.1563
     15  C         50.9780   12.7050   13.3320 C.2    86  ARG86       0.2260
     16  O         51.9110   12.0410   12.9400 O.2    86  ARG86      -0.2867
     17  CB        51.7450   14.9190   14.2010 C.3    86  ARG86       0.0307
     18  CG        51.4270   15.4470   12.7800 C.3    86  ARG86       0.0489
     19  CD        51.6400   16.9100   12.6090 C.3    86  ARG86       0.2205
     20  NE        51.8190   17.2520   11.1900 N.pl3  86  ARG86      -0.0865
     21  CZ        50.8390   17.4460   10.2950 C.cat  86  ARG86       0.5346
     22  NH1       51.1470   17.7480    9.0350 N.pl3  86  ARG86       0.1354
     23  NH2       49.5570   17.3430   10.6440 N.pl3  86  ARG86       0.1354
     24  N         49.6620   15.1060    6.5780 N.3    89  SER89      -0.1202
     25  CA        50.0850   15.0800    5.1910 C.3    89  SER89       0.2020
     26  C         51.0440   16.2290    5.0290 C.2    89  SER89       0.2619
     27  O         51.0000   17.1700    5.8220 O.2    89  SER89      -0.2717
     28  CB        48.8770   15.2430    4.2500 C.3    89  SER89       0.2103
     29  OG        48.1340   16.4520    4.5080 O.3    89  SER89      -0.2182
     30  N         51.9300   16.1360    4.0410 N.am   90  CYS90      -0.1955
     31  CA        52.7870   17.2570    3.6630 C.3    90  CYS90       0.1843
     32  C         52.8640   17.4050    2.1420 C.2    90  CYS90       0.2626
     33  O         52.3500   16.5720    1.3980 O.2    90  CYS90      -0.2714
     34  CB        54.1750   17.0680    4.2530 C.3    90  CYS90       0.0997
     35  SG        55.0280   15.5990    3.6510 S.3    90  CYS90      -0.0797
     36  N         53.4790   18.4880    1.6880 N.am   91  GLY91      -0.1954
     37  CA        53.7520   18.6730    0.2660 C.3    91  GLY91       0.1869
     38  C         55.1730   18.2220    0.0150 C.2    91  GLY91       0.2309
     39  O         56.1040   18.7300    0.6250 O.2    91  GLY91      -0.2863
     40  N         56.1790   25.3380    7.6470 N.3   155  ALA155     -0.1245
     41  CA        55.8350   26.6760    7.1210 C.3   155  ALA155      0.1562
     42  C         54.8980   27.4270    8.0620 C.2   155  ALA155      0.2260
     43  O         54.1080   26.7920    8.7640 O.2   155  ALA155     -0.2867
     44  CB        55.2160   26.5660    5.7790 C.3   155  ALA155      0.0290
     45  N         53.2240   30.0730    6.4970 N.3   157  GLN157     -0.1231
     46  CA        52.3310   30.6480    5.5100 C.3   157  GLN157      0.1698
     47  C         52.1890   29.6720    4.3870 C.2   157  GLN157      0.2592
     48  O         53.1700   29.3240    3.7330 O.2   157  GLN157     -0.2718
     49  CB        52.8820   31.9780    4.9820 C.3   157  GLN157      0.0381
     50  CG        53.0780   33.0350    6.0650 C.3   157  GLN157      0.0905
     51  CD        53.4490   34.3840    5.5110 C.2   157  GLN157      0.2608
     52  OE1       52.6130   35.0800    4.9320 O.2   157  GLN157     -0.2717
     53  NE2       54.7070   34.7840    5.7070 N.am  157  GLN157     -0.0878
     54  N         50.9650   29.2180    4.1820 N.am  158  PHE158     -0.1976
     55  CA        50.6570   28.2900    3.1390 C.3   158  PHE158      0.1639
     56  C         50.9070   28.8790    1.7280 C.2   158  PHE158      0.2290
     57  O         51.5080   28.2160    0.8700 O.2   158  PHE158     -0.2864
     58  CB        49.2170   27.8410    3.3130 C.3   158  PHE158      0.0560
     59  CG        48.8500   26.6250    2.5060 C.ar  158  PHE158     -0.0200
     60  CD1       49.2320   25.3530    2.9100 C.ar  158  PHE158     -0.0042
     61  CD2       48.1030   26.7590    1.3460 C.ar  158  PHE158     -0.0042
     62  CE1       48.8540   24.2450    2.1690 C.ar  158  PHE158     -0.0003
     63  CE2       47.7530   25.6760    0.6090 C.ar  158  PHE158     -0.0003
     64  CZ        48.1280   24.4140    1.0180 C.ar  158  PHE158     -0.0000
     65  N         56.9410   19.9860    3.0660 N.3   176  VAL176     -0.1231
     66  CA        56.4560   21.0930    3.8670 C.3   176  VAL176      0.1692
     67  C         55.0560   20.8010    4.4550 C.2   176  VAL176      0.2592
     68  O         54.1530   20.3460    3.7690 O.2   176  VAL176     -0.2718
     69  CB        56.4380   22.3990    3.0590 C.3   176  VAL176      0.0266
     70  CG1       55.7940   22.1830    1.7220 C.3   176  VAL176      0.0020
     71  CG2       55.7160   23.5380    3.8530 C.3   176  VAL176      0.0020
     72  N         54.9150   21.0320    5.7480 N.am  177  GLU177     -0.1966
     73  CA        53.6280   21.0590    6.4000 C.3   177  GLU177      0.1733
     74  C         53.7660   22.2090    7.3820 C.2   177  GLU177      0.2616
     75  O         54.6200   23.0600    7.1690 O.2   177  GLU177     -0.2715
     76  CB        53.3060   19.7090    7.0590 C.3   177  GLU177      0.0429
     77  CG        54.4980   18.9880    7.6910 C.3   177  GLU177      0.1163
     78  CD        54.7050   19.3670    9.1240 C.2   177  GLU177      0.3649
     79  OE1       53.9830   18.8230    9.9970 O.co2 177  GLU177     -0.2457
     80  OE2       55.6010   20.1980    9.3920 O.co2 177  GLU177     -0.2457
     81  N         52.9760   22.2480    8.4500 N.am  178  MET178     -0.1963
     82  CA        52.8930   23.4500    9.2950 C.3   178  MET178      0.1736
     83  C         52.7830   23.1800   10.8120 C.2   178  MET178      0.2616
     84  O         52.3120   24.0280   11.5570 O.2   178  MET178     -0.2715
     85  CB        51.6830   24.3140    8.8470 C.3   178  MET178      0.0427
     86  CG        51.5300   24.5500    7.3450 C.3   178  MET178      0.0599
     87  SD        49.9320   25.2870    6.9070 S.3   178  MET178     -0.1393
     88  CE        50.0490   26.8540    7.7750 C.3   178  MET178      0.0692
     89  N         53.2290   22.0260   11.2770 N.am  179  GLU179     -0.1977
     90  CA        52.9920   21.6370   12.6710 C.3   179  GLU179      0.1602
     91  C         54.2000   21.0150   13.3840 C.2   179  GLU179      0.2287
     92  O         54.4660   21.3210   14.5360 O.2   179  GLU179     -0.2864
     93  CB        51.7680   20.7030   12.7260 C.3   179  GLU179      0.0415
     94  CG        50.4020   21.4060   12.4330 C.3   179  GLU179      0.1163
     95  CD        50.0750   21.5820   10.9220 C.2   179  GLU179      0.3649
     96  OE1       50.7980   21.0220   10.0640 O.co2 179  GLU179     -0.2457
     97  OE2       49.0780   22.2760   10.5810 O.co2 179  GLU179     -0.2457
     98  N         50.6700   14.7880    0.1730 N.3   201  SER201     -0.1202
     99  CA        49.4080   15.3030   -0.3690 C.3   201  SER201      0.2020
    100  C         49.6070   15.6660   -1.8520 C.2   201  SER201      0.2618
    101  O         48.8090   15.2920   -2.7100 O.2   201  SER201     -0.2717
    102  CB        48.8910   16.5020    0.4410 C.3   201  SER201      0.2103
    103  OG        49.8480   17.5590    0.4720 O.3   201  SER201     -0.2182
    104  N         50.6820   16.3820   -2.1440 N.am  202  ASP202     -0.1973
    105  CA        51.0430   16.6980   -3.5280 C.3   202  ASP202      0.1709
    106  C         52.5440   16.8580   -3.6530 C.2   202  ASP202      0.2293
    107  O         53.2680   16.7690   -2.6490 O.2   202  ASP202     -0.2864
    108  CB        50.2980   17.9560   -4.0440 C.3   202  ASP202      0.1436
    109  CG        50.6620   19.2520   -3.2820 C.2   202  ASP202      0.3671
    110  OD1       51.2260   19.2010   -2.1480 O.co2 202  ASP202     -0.2456
    111  OD2       50.3390   20.3490   -3.8290 O.co2 202  ASP202     -0.2456
    112  N         54.8230   19.8270   -4.5960 N.3   204  VAL204     -0.1245
    113  CA        54.6340   21.2740   -4.6260 C.3   204  VAL204      0.1561
    114  C         55.3320   21.8840   -5.8370 C.2   204  VAL204      0.2260
    115  O         54.8180   22.8370   -6.4350 O.2   204  VAL204     -0.2867
    116  CB        55.1420   21.9260   -3.3320 C.3   204  VAL204      0.0252
    117  CG1       55.0330   23.4430   -3.4070 C.3   204  VAL204      0.0019
    118  CG2       54.3440   21.4040   -2.1590 C.3   204  VAL204      0.0019
@<TRIPOS>BOND
     1   115   114    2
     2   114   113    1
     3   113   112    1
     4   113   116    1
     5   108   105    1
     6   108   109    1
     7   111   109   ar
     8   106   105    1
     9   106   107    2
    10   105   104    1
    11   117   116    1
    12   116   118    1
    13   109   110   ar
    14   101   100    2
    15   104   100   am
    16   100    99    1
    17    99    98    1
    18    99   102    1
    19    38    37    1
    20    38    39    2
    21    37    36    1
    22   102   103    1
    23    63    64   ar
    24    63    61   ar
    25    57    56    2
    26    64    62   ar
    27    61    59   ar
    28    33    32    2
    29    36    32   am
    30    70    69    1
    31    56    55    1
    32    32    31    1
    33    62    60   ar
    34    59    60   ar
    35    59    58    1
    36    69    71    1
    37    69    66    1
    38    65    66    1
    39    55    58    1
    40    55    54    1
    41    35    34    1
    42    31    30    1
    43    31    34    1
    44    48    47    2
    45    68    67    2
    46    66    67    1
    47    30    26   am
    48    54    47   am
    49    28    29    1
    50    28    25    1
    51    47    46    1
    52    67    72   am
    53    52    51    2
    54    49    46    1
    55    49    50    1
    56    26    25    1
    57    26    27    2
    58    25    24    1
    59    46    45    1
    60    51    53   am
    61    51    50    1
    62    72    73    1
    63    44    41    1
    64    73    76    1
    65    73    74    1
    66    87    86    1
    67    87    88    1
    68    76    77    1
    69    41    40    1
    70    41    42    1
    71    75    74    2
    72    86    85    1
    73    74    81   am
    74    11    12    1
    75    11    10    1
    76    77    78    1
    77    42    43    2
    78    81    82    1
    79    85    82    1
    80    22    21    1
    81    78    80   ar
    82    78    79   ar
    83    10     9    1
    84    82    83    1
    85     9     6    1
    86    96    95   ar
    87    21    23    1
    88    21    20    2
    89    97    95   ar
    90    83    89   am
    91    83    84    2
    92    95    94    1
    93     6     7    1
    94     6     5    1
    95    20    19    1
    96    89    90    1
    97     2     3    1
    98     2     1    1
    99     3     4    2
   100     7     8    2
   101    94    93    1
   102    19    18    1
   103    90    93    1
   104    90    91    1
   105    18    17    1
   106    16    15    2
   107    15    14    1
   108    91    92    2
   109    17    14    1
   110    14    13    1
