@<TRIPOS>MOLECULE
tmp/4daoA00.pdb
 86 81 0 0 0
SMALL
GASTEIGER

@<TRIPOS>ATOM
      1  N        -51.6050  -14.1420  -20.8510 N.3    89  SER89      -0.1202
      2  CA       -52.0310  -14.3760  -22.2130 C.3    89  SER89       0.2020
      3  C        -53.0650  -15.4830  -22.2190 C.2    89  SER89       0.2619
      4  O        -53.2680  -16.1860  -21.2180 O.2    89  SER89      -0.2717
      5  CB       -50.8360  -14.7470  -23.0890 C.3    89  SER89       0.2103
      6  OG       -50.8070  -16.1500  -23.3320 O.3    89  SER89      -0.2182
      7  N        -53.7620  -15.5980  -23.3340 N.am   90  CYS90      -0.1955
      8  CA       -54.6910  -16.6810  -23.5260 C.3    90  CYS90       0.1843
      9  C        -54.9400  -16.8620  -25.0250 C.2    90  CYS90       0.2626
     10  O        -54.6960  -15.9450  -25.7960 O.2    90  CYS90      -0.2714
     11  CB       -55.9920  -16.3910  -22.7780 C.3    90  CYS90       0.0997
     12  SG       -57.0900  -15.1890  -23.5680 S.3    90  CYS90      -0.0797
     13  N        -55.4220  -18.0280  -25.4390 N.am   91  GLY91      -0.1954
     14  CA       -55.8150  -18.2100  -26.8400 C.3    91  GLY91       0.1869
     15  C        -57.2850  -17.8870  -27.1180 C.2    91  GLY91       0.2309
     16  O        -58.1840  -18.5130  -26.5400 O.2    91  GLY91      -0.2863
     17  N        -57.7420  -24.9110  -19.1820 N.3   155  ALA155     -0.1245
     18  CA       -57.3610  -26.2560  -19.6730 C.3   155  ALA155      0.1562
     19  C        -56.2340  -26.8800  -18.8340 C.2   155  ALA155      0.2260
     20  O        -55.4640  -26.1620  -18.2180 O.2   155  ALA155     -0.2867
     21  CB       -56.9210  -26.1710  -21.1430 C.3   155  ALA155      0.0290
     22  N        -54.3130  -29.0890  -20.4880 N.3   157  GLN157     -0.1231
     23  CA       -53.4280  -29.5020  -21.5640 C.3   157  GLN157      0.1698
     24  C        -53.3910  -28.4370  -22.6170 C.2   157  GLN157      0.2592
     25  O        -54.3230  -28.3200  -23.4110 O.2   157  GLN157     -0.2718
     26  CB       -53.8850  -30.8240  -22.2080 C.3   157  GLN157      0.0381
     27  CG       -53.7990  -32.0680  -21.3050 C.3   157  GLN157      0.0905
     28  CD       -52.4140  -32.6770  -21.2360 C.2   157  GLN157      0.2608
     29  OE1      -51.4950  -32.1130  -20.6430 O.2   157  GLN157     -0.2717
     30  NE2      -52.2660  -33.8520  -21.8250 N.am  157  GLN157     -0.0878
     31  N        -52.3090  -27.6690  -22.6340 N.am  158  PHE158     -0.1976
     32  CA       -52.0180  -26.8100  -23.7740 C.3   158  PHE158      0.1639
     33  C        -52.3260  -27.5060  -25.1220 C.2   158  PHE158      0.2290
     34  O        -53.0270  -26.9670  -25.9630 O.2   158  PHE158     -0.2864
     35  CB       -50.5590  -26.3560  -23.7400 C.3   158  PHE158      0.0560
     36  CG       -50.2630  -25.2280  -24.6950 C.ar  158  PHE158     -0.0200
     37  CD1      -50.4930  -23.9040  -24.3120 C.ar  158  PHE158     -0.0042
     38  CD2      -49.7950  -25.4920  -25.9870 C.ar  158  PHE158     -0.0042
     39  CE1      -50.2400  -22.8740  -25.1760 C.ar  158  PHE158     -0.0003
     40  CE2      -49.5310  -24.4460  -26.8770 C.ar  158  PHE158     -0.0003
     41  CZ       -49.7480  -23.1370  -26.4720 C.ar  158  PHE158     -0.0000
     42  N        -59.0130  -19.5020  -24.0240 N.3   176  VAL176     -0.1231
     43  CA       -58.3910  -20.5850  -23.2980 C.3   176  VAL176      0.1692
     44  C        -57.0550  -20.1210  -22.6810 C.2   176  VAL176      0.2592
     45  O        -56.2690  -19.4180  -23.3040 O.2   176  VAL176     -0.2718
     46  CB       -58.2220  -21.8630  -24.2390 C.3   176  VAL176      0.0266
     47  CG1      -57.4760  -21.5340  -25.5630 C.3   176  VAL176      0.0020
     48  CG2      -57.5570  -23.0110  -23.5420 C.3   176  VAL176      0.0020
     49  N        -56.8500  -20.4810  -21.4270 N.am  177  GLU177     -0.1966
     50  CA       -55.6170  -20.2730  -20.7150 C.3   177  GLU177      0.1733
     51  C        -55.5720  -21.4270  -19.7280 C.2   177  GLU177      0.2616
     52  O        -56.3610  -22.3770  -19.8460 O.2   177  GLU177     -0.2715
     53  CB       -55.5770  -18.9080  -19.9970 C.3   177  GLU177      0.0429
     54  CG       -56.8780  -18.5210  -19.3660 C.3   177  GLU177      0.1163
     55  CD       -56.9310  -18.9130  -17.9390 C.2   177  GLU177      0.3649
     56  OE1      -56.4110  -18.1380  -17.0990 O.co2 177  GLU177     -0.2457
     57  OE2      -57.4680  -20.0080  -17.6380 O.co2 177  GLU177     -0.2457
     58  N        -54.6780  -21.3490  -18.7530 N.am  178  MET178     -0.1977
     59  CA       -54.3760  -22.5210  -17.9240 C.3   178  MET178      0.1605
     60  C        -54.3320  -22.2840  -16.3680 C.2   178  MET178      0.2287
     61  O        -53.9560  -23.1740  -15.6250 O.2   178  MET178     -0.2864
     62  CB       -53.0860  -23.1900  -18.4550 C.3   178  MET178      0.0413
     63  CG       -53.2180  -23.8560  -19.8430 C.3   178  MET178      0.0598
     64  SD       -51.6630  -24.6000  -20.4410 S.3   178  MET178     -0.1393
     65  CE       -51.4910  -26.0450  -19.3930 C.3   178  MET178      0.0692
     66  N        -52.9300  -13.8810  -27.3610 N.3   201  SER201     -0.1202
     67  CA       -51.6040  -14.1190  -27.9940 C.3   201  SER201      0.2020
     68  C        -51.6700  -14.8830  -29.3370 C.2   201  SER201      0.2618
     69  O        -50.6460  -15.0300  -30.0460 O.2   201  SER201     -0.2717
     70  CB       -50.5840  -14.7440  -27.0300 C.3   201  SER201      0.2103
     71  OG       -51.1340  -15.8110  -26.2890 O.3   201  SER201     -0.2182
     72  N        -52.8690  -15.3760  -29.6630 N.am  202  ASP202     -0.1973
     73  CA       -53.1890  -15.9740  -30.9710 C.3   202  ASP202      0.1709
     74  C        -54.6390  -16.4740  -31.0590 C.2   202  ASP202      0.2293
     75  O        -55.3620  -16.4730  -30.0650 O.2   202  ASP202     -0.2864
     76  CB       -52.1850  -17.0640  -31.3670 C.3   202  ASP202      0.1436
     77  CG       -51.9930  -18.1280  -30.2990 C.2   202  ASP202      0.3671
     78  OD1      -52.4990  -18.0020  -29.1520 O.co2 202  ASP202     -0.2456
     79  OD2      -51.3090  -19.1150  -30.6270 O.co2 202  ASP202     -0.2456
     80  N        -56.6600  -19.7070  -31.6370 N.3   204  VAL204     -0.1245
     81  CA       -56.5560  -21.1660  -31.5750 C.3   204  VAL204      0.1561
     82  C        -57.2410  -21.8560  -32.7680 C.2   204  VAL204      0.2260
     83  O        -56.6700  -22.7670  -33.3670 O.2   204  VAL204     -0.2867
     84  CB       -57.1770  -21.7050  -30.2580 C.3   204  VAL204      0.0252
     85  CG1      -57.1430  -23.2260  -30.2130 C.3   204  VAL204      0.0019
     86  CG2      -56.4780  -21.1170  -29.0570 C.3   204  VAL204      0.0019
@<TRIPOS>BOND
     1    83    82    2
     2    82    81    1
     3    80    81    1
     4    81    84    1
     5    76    73    1
     6    76    77    1
     7    74    73    1
     8    74    75    2
     9    73    72    1
    10    79    77   ar
    11    77    78   ar
    12    84    85    1
    13    84    86    1
    14    69    68    2
    15    72    68   am
    16    68    67    1
    17    67    66    1
    18    67    70    1
    19    15    14    1
    20    15    16    2
    21    70    71    1
    22    40    41   ar
    23    40    38   ar
    24    14    13    1
    25    41    39   ar
    26    38    36   ar
    27    34    33    2
    28    10     9    2
    29    47    46    1
    30    13     9   am
    31    39    37   ar
    32    33    32    1
    33     9     8    1
    34    36    37   ar
    35    36    35    1
    36    46    48    1
    37    46    43    1
    38    42    43    1
    39    32    35    1
    40    32    31    1
    41    12    11    1
    42     8     7    1
    43     8    11    1
    44    25    24    2
    45     7     3   am
    46     6     5    1
    47    45    44    2
    48    43    44    1
    49     5     2    1
    50    44    49   am
    51    31    24   am
    52    24    23    1
    53     3     2    1
    54     3     4    2
    55     2     1    1
    56    26    23    1
    57    26    27    1
    58    30    28   am
    59    23    22    1
    60    49    50    1
    61    27    28    1
    62    28    29    2
    63    21    18    1
    64    50    53    1
    65    50    51    1
    66    64    63    1
    67    64    65    1
    68    53    54    1
    69    52    51    2
    70    63    62    1
    71    51    58   am
    72    18    17    1
    73    18    19    1
    74    54    55    1
    75    19    20    2
    76    58    59    1
    77    62    59    1
    78    55    57   ar
    79    55    56   ar
    80    59    60    1
    81    60    61    2
