@<TRIPOS>MOLECULE
tmp/4darA00.pdb
 113 105 0 0 0
SMALL
GASTEIGER

@<TRIPOS>ATOM
      1  N         37.2070   32.1380   16.2720 N.3    19  GLY19      -0.1225
      2  CA        38.2150   31.0830   16.3340 C.3    19  GLY19       0.1811
      3  C         37.5990   29.6920   16.4110 C.2    19  GLY19       0.2280
      4  O         38.1500   28.7160   15.8810 O.2    19  GLY19      -0.2866
      5  N         40.1640   28.6110   13.5960 N.3    62  GLY62      -0.1210
      6  CA        41.1340   27.8590   14.3780 C.3    62  GLY62       0.1956
      7  C         42.0250   28.7980   15.1720 C.2    62  GLY62       0.2611
      8  O         41.8570   30.0240   15.1260 O.2    62  GLY62      -0.2717
      9  N         42.9750   28.2220   15.9010 N.am   63  MET63      -0.1979
     10  CA        43.8020   28.9870   16.8260 C.3    63  MET63       0.1605
     11  C         45.2000   29.2260   16.2730 C.2    63  MET63       0.2287
     12  O         45.8370   28.3170   15.7590 O.2    63  MET63      -0.2864
     13  CB        43.9110   28.2570   18.1570 C.3    63  MET63       0.0413
     14  CG        42.6140   28.1570   18.9340 C.3    63  MET63       0.0598
     15  SD        42.8180   27.0980   20.3940 S.3    63  MET63      -0.1393
     16  CE        43.1580   25.4820   19.6900 C.3    63  MET63       0.0692
     17  N         36.9550   39.5910   12.4490 N.3    86  ARG86      -0.1245
     18  CA        37.1660   38.5930   13.4660 C.3    86  ARG86       0.1563
     19  C         36.3530   39.0110   14.6620 C.2    86  ARG86       0.2260
     20  O         36.2620   40.2020   14.9820 O.2    86  ARG86      -0.2867
     21  CB        38.6360   38.4720   13.8440 C.3    86  ARG86       0.0307
     22  CG        38.8590   37.7550   15.1630 C.3    86  ARG86       0.0489
     23  CD        40.3170   37.5750   15.4810 C.3    86  ARG86       0.2205
     24  NE        40.4830   37.3620   16.9130 N.pl3  86  ARG86      -0.0865
     25  CZ        40.2660   36.2080   17.5350 C.cat  86  ARG86       0.5346
     26  NH1       40.4320   36.1380   18.8520 N.pl3  86  ARG86       0.1354
     27  NH2       39.8810   35.1310   16.8540 N.pl3  86  ARG86       0.1354
     28  N         37.5160   36.3430   21.6650 N.3    89  SER89      -0.1202
     29  CA        37.8720   36.9080   22.9740 C.3    89  SER89       0.2020
     30  C         39.3760   37.1730   23.0910 C.2    89  SER89       0.2619
     31  O         40.1510   36.9060   22.1650 O.2    89  SER89      -0.2717
     32  CB        37.4070   35.9810   24.1080 C.3    89  SER89       0.2103
     33  OG        38.1420   34.7660   24.1320 O.3    89  SER89      -0.2182
     34  N         39.7720   37.7220   24.2300 N.am   90  CYS90      -0.1955
     35  CA        41.1750   37.9010   24.5420 C.3    90  CYS90       0.1843
     36  C         41.3540   38.0030   26.0490 C.2    90  CYS90       0.2626
     37  O         40.4170   38.3440   26.7630 O.2    90  CYS90      -0.2714
     38  CB        41.7110   39.1630   23.8650 C.3    90  CYS90       0.0997
     39  SG        41.0740   40.7060   24.5550 S.3    90  CYS90      -0.0797
     40  N         42.5510   37.6840   26.5280 N.am   91  GLY91      -0.1954
     41  CA        42.9230   37.9500   27.9120 C.3    91  GLY91       0.1869
     42  C         43.3800   39.3880   28.0150 C.2    91  GLY91       0.2309
     43  O         44.1340   39.8580   27.1720 O.2    91  GLY91      -0.2863
     44  N         49.9450   36.5730   20.0430 N.3   155  ALA155     -0.1245
     45  CA        50.9640   35.6310   20.5170 C.3   155  ALA155      0.1562
     46  C         51.0170   34.3680   19.6570 C.2   155  ALA155      0.2260
     47  O         50.0630   34.0420   18.9410 O.2   155  ALA155     -0.2867
     48  CB        50.7020   35.2640   21.9670 C.3   155  ALA155      0.0290
     49  N         50.2750   30.1030   23.5810 N.3   158  PHE158     -0.1241
     50  CA        49.2860   30.3350   24.6280 C.3   158  PHE158      0.1605
     51  C         49.9110   30.3310   26.0320 C.2   158  PHE158      0.2264
     52  O         49.5340   31.1400   26.8820 O.2   158  PHE158     -0.2867
     53  CB        48.1760   29.2720   24.5390 C.3   158  PHE158      0.0534
     54  CG        47.0080   29.5230   25.4600 C.ar  158  PHE158     -0.0203
     55  CD1       46.0130   30.4270   25.1160 C.ar  158  PHE158     -0.0042
     56  CD2       46.9030   28.8490   26.6670 C.ar  158  PHE158     -0.0042
     57  CE1       44.9430   30.6570   25.9630 C.ar  158  PHE158     -0.0003
     58  CE2       45.8400   29.0710   27.5210 C.ar  158  PHE158     -0.0003
     59  CZ        44.8590   29.9760   27.1690 C.ar  158  PHE158     -0.0000
     60  N         45.7910   40.1900   24.9860 N.3   176  VAL176     -0.1231
     61  CA        46.5050   39.2280   24.1600 C.3   176  VAL176      0.1692
     62  C         45.5800   38.1860   23.5560 C.2   176  VAL176      0.2592
     63  O         44.7810   37.5650   24.2620 O.2   176  VAL176     -0.2718
     64  CB        47.5750   38.4820   24.9620 C.3   176  VAL176      0.0266
     65  CG1       47.0050   37.9740   26.2800 C.3   176  VAL176      0.0020
     66  CG2       48.1390   37.3280   24.1370 C.3   176  VAL176      0.0020
     67  N         45.7050   37.9910   22.2470 N.am  177  GLU177     -0.1966
     68  CA        45.0110   36.9120   21.5590 C.3   177  GLU177      0.1733
     69  C         45.9810   36.3380   20.5360 C.2   177  GLU177      0.2616
     70  O         47.1670   36.6290   20.6340 O.2   177  GLU177     -0.2715
     71  CB        43.7010   37.4010   20.9590 C.3   177  GLU177      0.0429
     72  CG        43.7770   38.7250   20.2850 C.3   177  GLU177      0.1163
     73  CD        44.3810   38.6090   18.9290 C.2   177  GLU177      0.3649
     74  OE1       43.6820   38.1360   18.0020 O.co2 177  GLU177     -0.2457
     75  OE2       45.5620   38.9820   18.7940 O.co2 177  GLU177     -0.2457
     76  N         45.5310   35.5120   19.5890 N.am  178  MET178     -0.1963
     77  CA        46.4780   34.8080   18.7180 C.3   178  MET178      0.1736
     78  C         46.1440   34.8070   17.2170 C.2   178  MET178      0.2616
     79  O         46.5160   33.8710   16.5150 O.2   178  MET178     -0.2715
     80  CB        46.6290   33.3610   19.1860 C.3   178  MET178      0.0427
     81  CG        46.8120   33.1710   20.6720 C.3   178  MET178      0.0599
     82  SD        46.9070   31.4090   21.0580 S.3   178  MET178     -0.1393
     83  CE        48.6630   31.1030   20.8940 C.3   178  MET178      0.0692
     84  N         45.4650   35.8380   16.7150 N.am  179  GLU179     -0.1977
     85  CA        45.0850   35.8670   15.2930 C.3   179  GLU179      0.1602
     86  C         45.2260   37.2020   14.5910 C.2   179  GLU179      0.2287
     87  O         45.5700   37.2330   13.4150 O.2   179  GLU179     -0.2864
     88  CB        43.6440   35.4000   15.1030 C.3   179  GLU179      0.0415
     89  CG        43.4320   33.9110   15.3030 C.3   179  GLU179      0.1163
     90  CD        43.3360   33.5030   16.7670 C.2   179  GLU179      0.3649
     91  OE1       43.1150   34.3780   17.6440 O.co2 179  GLU179     -0.2457
     92  OE2       43.4810   32.2910   17.0410 O.co2 179  GLU179     -0.2457
     93  N         37.8630   37.6050   28.0070 N.3   201  SER201     -0.1202
     94  CA        37.6100   36.3350   28.7110 C.3   201  SER201      0.2020
     95  C         38.1240   36.3360   30.1670 C.2   201  SER201      0.2618
     96  O         37.5160   35.7140   31.0490 O.2   201  SER201     -0.2717
     97  CB        38.2250   35.1590   27.9390 C.3   201  SER201      0.2103
     98  OG        39.6020   35.3790   27.6850 O.3   201  SER201     -0.2182
     99  N         39.2440   37.0200   30.4120 N.am  202  ASP202     -0.1973
    100  CA        39.8140   37.1130   31.7570 C.3   202  ASP202      0.1709
    101  C         40.9400   38.1270   31.8030 C.2   202  ASP202      0.2293
    102  O         41.3760   38.6140   30.7690 O.2   202  ASP202     -0.2864
    103  CB        40.3510   35.7510   32.2260 C.3   202  ASP202      0.1436
    104  CG        41.7280   35.4130   31.6380 C.2   202  ASP202      0.3671
    105  OD1       41.9200   35.5410   30.3980 O.co2 202  ASP202     -0.2456
    106  OD2       42.6160   35.0010   32.4280 O.co2 202  ASP202     -0.2456
    107  N         44.8250   38.3120   32.6290 N.3   204  VAL204     -0.1245
    108  CA        45.9330   37.3720   32.6540 C.3   204  VAL204      0.1561
    109  C         46.8510   37.6870   33.8240 C.2   204  VAL204      0.2260
    110  O         47.3610   36.7740   34.4760 O.2   204  VAL204     -0.2867
    111  CB        46.7470   37.4320   31.3480 C.3   204  VAL204      0.0252
    112  CG1       47.7520   36.2860   31.2980 C.3   204  VAL204      0.0019
    113  CG2       45.8180   37.3820   30.1390 C.3   204  VAL204      0.0019
@<TRIPOS>BOND
     1    17    18    1
     2    87    86    2
     3    18    21    1
     4    18    19    1
     5     5     6    1
     6    21    22    1
     7     6     7    1
     8    86    85    1
     9    19    20    2
    10    88    85    1
    11    88    89    1
    12     8     7    2
    13    22    23    1
    14     7     9   am
    15    85    84    1
    16    89    90    1
    17    23    24    1
    18    12    11    2
    19     4     3    2
    20     9    10    1
    21     1     2    1
    22    11    10    1
    23     2     3    1
    24    79    78    2
    25    84    78   am
    26    90    92   ar
    27    90    91   ar
    28    10    13    1
    29    27    25    1
    30    24    25    2
    31    78    77    1
    32    25    26    1
    33    74    73   ar
    34    13    14    1
    35    77    80    1
    36    77    76    1
    37    75    73   ar
    38    73    72    1
    39    14    15    1
    40    47    46    2
    41    80    81    1
    42    76    69   am
    43    46    45    1
    44    16    15    1
    45    44    45    1
    46    72    71    1
    47    45    48    1
    48    69    70    2
    49    69    68    1
    50    81    82    1
    51    83    82    1
    52    71    68    1
    53    68    67    1
    54    28    29    1
    55    31    30    2
    56    67    62   am
    57    29    30    1
    58    29    32    1
    59    30    34   am
    60    62    61    1
    61    62    63    2
    62    49    50    1
    63    38    35    1
    64    38    39    1
    65    32    33    1
    66    66    64    1
    67    61    64    1
    68    61    60    1
    69    34    35    1
    70    53    50    1
    71    53    54    1
    72    35    36    1
    73    50    51    1
    74    64    65    1
    75    55    54   ar
    76    55    57   ar
    77    54    56   ar
    78    57    59   ar
    79    51    52    2
    80    36    40   am
    81    36    37    2
    82    40    41    1
    83    56    58   ar
    84    59    58   ar
    85    43    42    2
    86    98    97    1
    87    41    42    1
    88    97    94    1
    89    93    94    1
    90    94    95    1
    91   113   111    1
    92    95    99   am
    93    95    96    2
    94   105   104   ar
    95    99   100    1
    96   102   101    2
    97   112   111    1
    98   111   108    1
    99   104   103    1
   100   104   106   ar
   101   100   101    1
   102   100   103    1
   103   107   108    1
   104   108   109    1
   105   109   110    2
