@<TRIPOS>MOLECULE
tmp/4dasX00.pdb
 89 83 0 0 0
SMALL
GASTEIGER

@<TRIPOS>ATOM
      1  N         83.5990  -45.5610  -23.0470 N.3    25  LEU25      -0.1245
      2  CA        83.4720  -45.7200  -21.5900 C.3    25  LEU25       0.1561
      3  C         83.5540  -44.3960  -20.8630 C.2    25  LEU25       0.2260
      4  O         82.7980  -44.1860  -19.9350 O.2    25  LEU25      -0.2867
      5  CB        84.4860  -46.6870  -21.0140 C.3    25  LEU25       0.0270
      6  CG        84.4500  -48.1300  -21.4980 C.3    25  LEU25       0.0019
      7  CD1       85.6870  -48.8330  -21.1060 C.3    25  LEU25       0.0001
      8  CD2       83.2660  -48.8630  -20.9490 C.3    25  LEU25       0.0001
      9  N         80.1980  -42.9310  -21.2570 N.3    28  SER28      -0.1202
     10  CA        79.3080  -43.6240  -20.3980 C.3    28  SER28       0.2020
     11  C         79.3680  -43.0850  -18.9660 C.2    28  SER28       0.2618
     12  O         78.3160  -42.9700  -18.2940 O.2    28  SER28      -0.2717
     13  CB        79.6450  -45.1030  -20.4160 C.3    28  SER28       0.2103
     14  OG        78.6710  -45.7930  -19.6710 O.3    28  SER28      -0.2182
     15  N         80.5890  -42.7920  -18.4990 N.am   29  TYR29      -0.1975
     16  CA        80.8290  -42.3850  -17.0960 C.3    29  TYR29       0.1639
     17  C         80.2800  -40.9730  -16.8910 C.2    29  TYR29       0.2290
     18  O         79.5880  -40.6830  -15.9150 O.2    29  TYR29      -0.2864
     19  CB        82.3340  -42.4710  -16.7800 C.3    29  TYR29       0.0560
     20  CG        82.7620  -42.6370  -15.3270 C.ar   29  TYR29      -0.0198
     21  CD1       81.8840  -43.0920  -14.3210 C.ar   29  TYR29      -0.0009
     22  CD2       84.0720  -42.3960  -14.9700 C.ar   29  TYR29      -0.0009
     23  CE1       82.3160  -43.2420  -12.9710 C.ar   29  TYR29       0.0417
     24  CE2       84.5070  -42.5490  -13.6760 C.ar   29  TYR29       0.0417
     25  CZ        83.6340  -42.9680  -12.6720 C.ar   29  TYR29       0.1957
     26  OH        84.1490  -43.1050  -11.4040 O.3    29  TYR29      -0.2866
     27  N         76.5490  -41.2970  -16.5650 N.3    32  SER32      -0.1217
     28  CA        76.3790  -41.8070  -15.2240 C.3    32  SER32       0.1889
     29  C         76.3910  -40.7120  -14.1440 C.2    32  SER32       0.2288
     30  O         75.6220  -40.7520  -13.1900 O.2    32  SER32      -0.2866
     31  CB        77.5200  -42.7300  -14.9260 C.3    32  SER32       0.2089
     32  OG        77.0560  -43.7560  -14.0910 O.3    32  SER32      -0.2183
     33  N         73.7950  -43.5290  -20.4740 N.3    56  SER56      -0.1202
     34  CA        74.9120  -44.1490  -19.8490 C.3    56  SER56       0.2020
     35  C         75.0150  -45.5950  -20.3770 C.2    56  SER56       0.2618
     36  O         76.0780  -46.0070  -20.8000 O.2    56  SER56      -0.2717
     37  CB        74.7430  -44.1030  -18.3350 C.3    56  SER56       0.2103
     38  OG        75.8100  -44.7770  -17.6980 O.3    56  SER56      -0.2182
     39  N         73.9030  -46.3330  -20.3820 N.am   57  HIS57      -0.1975
     40  CA        73.9170  -47.7580  -20.7080 C.3    57  HIS57       0.1656
     41  C         74.1740  -47.9780  -22.1740 C.2    57  HIS57       0.2291
     42  O         74.8960  -48.8830  -22.5270 O.2    57  HIS57      -0.2864
     43  CB        72.6190  -48.4630  -20.3070 C.3    57  HIS57       0.0771
     44  CG        72.4020  -48.5430  -18.8270 C.ar   57  HIS57       0.0820
     45  ND1       71.1420  -48.6640  -18.2610 N.ar   57  HIS57      -0.2267
     46  CD2       73.2740  -48.4820  -17.7870 C.ar   57  HIS57       0.1154
     47  CE1       71.2540  -48.7010  -16.9400 C.ar   57  HIS57       0.1986
     48  NE2       72.5360  -48.5920  -16.6270 N.ar   57  HIS57      -0.2212
     49  N         77.8780  -47.5460  -22.9370 N.3    60  ARG60      -0.1245
     50  CA        78.6080  -48.7040  -22.4570 C.3    60  ARG60       0.1563
     51  C         78.4260  -49.9340  -23.3590 C.2    60  ARG60       0.2260
     52  O         79.3430  -50.7170  -23.5110 O.2    60  ARG60      -0.2867
     53  CB        78.2550  -49.0020  -21.0130 C.3    60  ARG60       0.0307
     54  CG        78.8750  -50.2570  -20.5040 C.3    60  ARG60       0.0489
     55  CD        78.1400  -50.8110  -19.3110 C.3    60  ARG60       0.2205
     56  NE        76.6740  -50.9240  -19.4930 N.pl3  60  ARG60      -0.0865
     57  CZ        76.0110  -51.9540  -20.0490 C.cat  60  ARG60       0.5346
     58  NH1       76.6550  -53.0250  -20.5570 N.pl3  60  ARG60       0.1354
     59  NH2       74.6710  -51.8940  -20.1030 N.pl3  60  ARG60       0.1354
     60  N         80.9110  -49.4610  -26.1610 N.3    63  ALA63      -0.1231
     61  CA        82.1870  -50.0450  -25.7020 C.3    63  ALA63       0.1694
     62  C         82.2880  -51.5920  -25.8530 C.2    63  ALA63       0.2591
     63  O         83.2830  -52.0890  -26.3770 O.2    63  ALA63      -0.2718
     64  CB        82.5430  -49.5990  -24.2650 C.3    63  ALA63       0.0304
     65  N         81.2680  -52.3330  -25.4300 N.am   64  GLU64      -0.1979
     66  CA        81.3350  -53.7870  -25.5020 C.3    64  GLU64       0.1602
     67  C         81.3650  -54.2930  -26.9410 C.2    64  GLU64       0.2287
     68  O         82.1250  -55.1900  -27.2700 O.2    64  GLU64      -0.2864
     69  CB        80.2030  -54.4460  -24.7330 C.3    64  GLU64       0.0415
     70  CG        80.0620  -53.9750  -23.2930 C.3    64  GLU64       0.1163
     71  CD        78.8980  -54.6650  -22.5630 C.2    64  GLU64       0.3649
     72  OE1       77.7750  -54.7680  -23.1600 O.co2  64  GLU64      -0.2457
     73  OE2       79.1270  -55.0980  -21.3920 O.co2  64  GLU64      -0.2457
     74  N         84.8330  -54.2400  -28.0630 N.3    67  MET67      -0.1245
     75  CA        85.6260  -55.3660  -27.5930 C.3    67  MET67       0.1570
     76  C         85.3900  -56.5870  -28.4770 C.2    67  MET67       0.2261
     77  O         86.3540  -57.2260  -28.8870 O.2    67  MET67      -0.2867
     78  CB        85.3150  -55.7200  -26.1430 C.3    67  MET67       0.0387
     79  CG        85.7680  -54.7000  -25.1320 C.3    67  MET67       0.0595
     80  SD        85.5360  -55.4550  -23.5050 S.3    67  MET67      -0.1393
     81  CE        86.1740  -54.1920  -22.3860 C.3    67  MET67       0.0692
     82  N         89.6160  -45.2720  -17.1880 N.3    82  ILE82      -0.1245
     83  CA        88.4560  -44.4750  -17.6250 C.3    82  ILE82       0.1561
     84  C         88.4750  -43.2400  -16.7590 C.2    82  ILE82       0.2260
     85  O         88.2830  -43.3130  -15.5480 O.2    82  ILE82      -0.2867
     86  CB        87.0970  -45.2220  -17.4280 C.3    82  ILE82       0.0252
     87  CG1       87.1260  -46.5930  -18.1150 C.3    82  ILE82       0.0019
     88  CG2       85.9380  -44.4040  -17.9990 C.3    82  ILE82       0.0019
     89  CD1       86.2930  -47.7020  -17.4440 C.3    82  ILE82       0.0001
@<TRIPOS>BOND
     1    77    76    2
     2    76    75    1
     3    74    75    1
     4    75    78    1
     5    68    67    2
     6    67    66    1
     7    63    62    2
     8    60    61    1
     9    78    79    1
    10    62    61    1
    11    62    65   am
    12    61    64    1
    13    66    65    1
    14    66    69    1
    15    79    80    1
    16    69    70    1
    17    52    51    2
    18    80    81    1
    19    51    50    1
    20    70    71    1
    21    72    71   ar
    22     1     2    1
    23    49    50    1
    24    71    73   ar
    25    42    41    2
    26    50    53    1
    27    41    40    1
    28     2     5    1
    29     2     3    1
    30     6     7    1
    31     6     5    1
    32     6     8    1
    33     9    10    1
    34    53    54    1
    35     3     4    2
    36    36    35    2
    37    40    39    1
    38    40    43    1
    39    58    57    1
    40    54    55    1
    41    33    34    1
    42    13    10    1
    43    13    14    1
    44    10    11    1
    45    39    35   am
    46    35    34    1
    47    43    44    1
    48    59    57    1
    49    57    56    2
    50    34    37    1
    51    56    55    1
    52    11    15   am
    53    11    12    2
    54    44    45   ar
    55    44    46   ar
    56    15    16    1
    57    37    38    1
    58    45    47   ar
    59    87    89    1
    60    87    86    1
    61    88    86    1
    62    46    48   ar
    63    83    86    1
    64    83    82    1
    65    83    84    1
    66    16    17    1
    67    16    19    1
    68    47    48   ar
    69    17    18    2
    70    19    20    1
    71    84    85    2
    72    27    28    1
    73    20    22   ar
    74    20    21   ar
    75    28    31    1
    76    28    29    1
    77    22    24   ar
    78    31    32    1
    79    21    23   ar
    80    29    30    2
    81    24    25   ar
    82    23    25   ar
    83    25    26    1
