@<TRIPOS>MOLECULE
tmp/4dawA00.pdb
 103 96 0 0 0
SMALL
GASTEIGER

@<TRIPOS>ATOM
      1  N         15.8630   41.9550  -19.8460 N.3    28  ILE28      -0.1231
      2  CA        16.6670   40.7690  -20.1640 C.3    28  ILE28       0.1692
      3  C         15.8710   39.6920  -20.8990 C.2    28  ILE28       0.2593
      4  O         16.4330   38.6730  -21.3180 O.2    28  ILE28      -0.2718
      5  CB        17.3810   40.1660  -18.9170 C.3    28  ILE28       0.0266
      6  CG1       16.3670   39.6970  -17.8630 C.3    28  ILE28       0.0019
      7  CG2       18.4030   41.1560  -18.3480 C.3    28  ILE28       0.0020
      8  CD1       16.9540   38.7730  -16.8050 C.3    28  ILE28       0.0001
      9  N         14.5710   39.9320  -21.0520 N.am   29  GLY29      -0.1942
     10  CA        13.6720   39.0260  -21.7640 C.3    29  GLY29       0.2014
     11  C         12.2990   39.6440  -21.9480 C.2    29  GLY29       0.2638
     12  O         11.9460   40.5980  -21.2550 O.2    29  GLY29      -0.2714
     13  N         11.5330   39.1060  -22.8970 N.am   30  GLN30      -0.1977
     14  CA        10.1640   39.5590  -23.1810 C.3    30  GLN30       0.1601
     15  C          9.4260   38.5150  -24.0120 C.2    30  GLN30       0.2287
     16  O          9.9730   37.9880  -24.9870 O.2    30  GLN30      -0.2864
     17  CB        10.1580   40.9120  -23.9050 C.3    30  GLN30       0.0394
     18  CG         8.7640   41.4550  -24.1400 C.3    30  GLN30       0.0908
     19  CD         8.7620   42.8050  -24.8290 C.2    30  GLN30       0.2608
     20  OE1        9.7480   43.1950  -25.4560 O.2    30  GLN30      -0.2717
     21  NE2        7.6540   43.5250  -24.7160 N.am   30  GLN30      -0.0878
     22  N         10.7310   40.6830  -18.5460 N.3    36  VAL36      -0.1245
     23  CA        11.6070   40.5890  -17.3780 C.3    36  VAL36       0.1561
     24  C         12.7450   41.5910  -17.4390 C.2    36  VAL36       0.2260
     25  O         13.3490   41.8130  -18.4930 O.2    36  VAL36      -0.2867
     26  CB        12.1630   39.1550  -17.1510 C.3    36  VAL36       0.0252
     27  CG1       13.2780   39.1330  -16.0970 C.3    36  VAL36       0.0019
     28  CG2       11.0930   38.3070  -16.6480 C.3    36  VAL36       0.0019
     29  N         15.1730   40.0490  -10.2410 N.3    49  ALA49      -0.1245
     30  CA        14.5230   39.8800  -11.5280 C.3    49  ALA49       0.1562
     31  C         13.0570   40.2460  -11.3680 C.2    49  ALA49       0.2260
     32  O         12.3380   39.6480  -10.5630 O.2    49  ALA49      -0.2867
     33  CB        14.6690   38.4560  -12.0110 C.3    49  ALA49       0.0290
     34  N          9.4020   40.5470  -13.1370 N.3    51  ARG51      -0.1245
     35  CA         8.5040   40.1860  -14.2220 C.3    51  ARG51       0.1563
     36  C          7.3270   41.1550  -14.2350 C.2    51  ARG51       0.2260
     37  O          6.5530   41.2090  -13.2770 O.2    51  ARG51      -0.2867
     38  CB         8.0110   38.7450  -14.0540 C.3    51  ARG51       0.0307
     39  CG         9.1350   37.7010  -13.9170 C.3    51  ARG51       0.0489
     40  CD         8.5860   36.2960  -13.6640 C.3    51  ARG51       0.2205
     41  NE         7.6860   35.8700  -14.7370 N.pl3  51  ARG51      -0.0865
     42  CZ         6.7480   34.9320  -14.6100 C.cat  51  ARG51       0.5346
     43  NH1        6.5720   34.3070  -13.4510 N.pl3  51  ARG51       0.1354
     44  NH2        5.9780   34.6200  -15.6460 N.pl3  51  ARG51       0.1354
     45  N         13.5400   28.9980   -6.8770 N.3    80  VAL80      -0.1245
     46  CA        13.9060   30.4120   -7.0430 C.3    80  VAL80       0.1561
     47  C         13.0060   31.2470   -6.1250 C.2    80  VAL80       0.2260
     48  O         11.7890   31.0930   -6.1360 O.2    80  VAL80      -0.2867
     49  CB        13.7870   30.8710   -8.5170 C.3    80  VAL80       0.0252
     50  CG1       14.0180   32.3870   -8.6580 C.3    80  VAL80       0.0019
     51  CG2       14.7750   30.1040   -9.4120 C.3    80  VAL80       0.0019
     52  N         11.4770   38.5880   -8.1500 N.3    96  MET96      -0.1230
     53  CA        12.1240   37.3040   -7.8760 C.3    96  MET96       0.1702
     54  C         13.5970   37.5490   -7.6090 C.2    96  MET96       0.2592
     55  O         14.1480   38.5710   -8.0310 O.2    96  MET96      -0.2718
     56  CB        12.0020   36.3620   -9.0800 C.3    96  MET96       0.0401
     57  CG        10.5890   36.1040   -9.6040 C.3    96  MET96       0.0596
     58  SD         9.5250   35.1790   -8.4730 S.3    96  MET96      -0.1393
     59  CE        10.4770   33.6610   -8.2710 C.3    96  MET96       0.0692
     60  N         14.2500   36.6130   -6.9200 N.am   97  GLU97      -0.1966
     61  CA        15.7030   36.6690   -6.8320 C.3    97  GLU97       0.1733
     62  C         16.2730   36.4780   -8.2430 C.2    97  GLU97       0.2616
     63  O         15.7070   35.7550   -9.0450 O.2    97  GLU97      -0.2715
     64  CB        16.2470   35.6180   -5.8630 C.3    97  GLU97       0.0429
     65  CG        16.1640   34.1950   -6.3630 C.3    97  GLU97       0.1163
     66  CD        16.9490   33.2240   -5.5160 C.2    97  GLU97       0.3649
     67  OE1       16.3760   32.1960   -5.1190 O.co2  97  GLU97      -0.2457
     68  OE2       18.1300   33.4910   -5.2360 O.co2  97  GLU97      -0.2457
     69  N         17.3640   37.1600   -8.5510 N.am   98  TYR98      -0.1960
     70  CA        17.9980   37.0270   -9.8540 C.3    98  TYR98       0.1771
     71  C         19.1250   36.0050   -9.7440 C.2    98  TYR98       0.2619
     72  O         19.9180   36.0610   -8.8180 O.2    98  TYR98      -0.2715
     73  CB        18.5510   38.3880  -10.3070 C.3    98  TYR98       0.0574
     74  CG        19.4350   38.3540  -11.5340 C.ar   98  TYR98      -0.0198
     75  CD1       18.9600   37.8520  -12.7430 C.ar   98  TYR98      -0.0009
     76  CD2       20.7370   38.8510  -11.4920 C.ar   98  TYR98      -0.0009
     77  CE1       19.7590   37.8140  -13.8750 C.ar   98  TYR98       0.0417
     78  CE2       21.5500   38.8280  -12.6290 C.ar   98  TYR98       0.0417
     79  CZ        21.0460   38.3090  -13.8100 C.ar   98  TYR98       0.1957
     80  OH        21.8170   38.2680  -14.9370 O.3    98  TYR98      -0.2866
     81  N         19.1610   35.0550  -10.6720 N.am   99  LEU99      -0.1977
     82  CA        20.2740   34.1160  -10.7530 C.3    99  LEU99       0.1596
     83  C         21.1010   34.4390  -11.9900 C.2    99  LEU99       0.2287
     84  O         20.6530   34.2630  -13.1270 O.2    99  LEU99      -0.2864
     85  CB        19.7810   32.6670  -10.7520 C.3    99  LEU99       0.0297
     86  CG        19.2460   32.1250   -9.4160 C.3    99  LEU99       0.0022
     87  CD1       18.4180   30.8760   -9.6410 C.3    99  LEU99       0.0001
     88  CD2       20.3690   31.8390   -8.4150 C.3    99  LEU99       0.0001
     89  N         17.1600   27.3600  -13.0730 N.3   148  LEU148     -0.1245
     90  CA        18.0510   28.5120  -13.1260 C.3   148  LEU148      0.1561
     91  C         19.2730   28.2860  -12.2590 C.2   148  LEU148      0.2260
     92  O         19.2130   27.5920  -11.2430 O.2   148  LEU148     -0.2867
     93  CB        17.3170   29.7960  -12.7410 C.3   148  LEU148      0.0270
     94  CG        16.0460   30.1170  -13.5330 C.3   148  LEU148      0.0019
     95  CD1       15.5240   31.4650  -13.0850 C.3   148  LEU148      0.0001
     96  CD2       16.3020   30.1300  -15.0440 C.3   148  LEU148      0.0001
     97  N         12.0290   27.0140  -11.1210 N.3   158  THR158     -0.1218
     98  CA        11.0350   28.0790  -11.1460 C.3   158  THR158      0.1862
     99  C          9.9010   27.8340  -12.1550 C.2   158  THR158      0.2287
    100  O          9.8060   26.7570  -12.7590 O.2   158  THR158     -0.2866
    101  CB        11.7030   29.4780  -11.3310 C.3   158  THR158      0.1770
    102  OG1       10.7620   30.5180  -11.0180 O.3   158  THR158     -0.2211
    103  CG2       12.2490   29.6680  -12.7450 C.3   158  THR158      0.0375
@<TRIPOS>BOND
     1    20    19    2
     2    16    15    2
     3    19    21   am
     4    19    18    1
     5    18    17    1
     6    15    14    1
     7    17    14    1
     8    14    13    1
     9    13    11   am
    10    11    10    1
    11    11    12    2
    12    10     9    1
    13     4     3    2
    14     9     3   am
    15     3     2    1
    16     2     1    1
    17     2     5    1
    18     5     7    1
    19     5     6    1
    20    22    23    1
    21    25    24    2
    22     6     8    1
    23    24    23    1
    24    23    26    1
    25    26    28    1
    26    26    27    1
    27    44    42    1
    28    96    94    1
    29    80    79    1
    30    41    42    2
    31    41    40    1
    32    42    43    1
    33    36    35    1
    34    36    37    2
    35    35    38    1
    36    35    34    1
    37    38    39    1
    38    39    40    1
    39    77    79   ar
    40    77    75   ar
    41    79    78   ar
    42    94    95    1
    43    94    93    1
    44    84    83    2
    45    90    89    1
    46    90    93    1
    47    90    91    1
    48   100    99    2
    49   103   101    1
    50    75    74   ar
    51    78    76   ar
    52    91    92    2
    53    99    98    1
    54    33    30    1
    55    83    82    1
    56    74    76   ar
    57    74    73    1
    58    30    31    1
    59    30    29    1
    60    31    32    2
    61   101    98    1
    62   101   102    1
    63    98    97    1
    64    82    85    1
    65    82    81    1
    66    85    86    1
    67    81    71   am
    68    73    70    1
    69    70    71    1
    70    70    69    1
    71    71    72    2
    72    87    86    1
    73    57    56    1
    74    57    58    1
    75    86    88    1
    76    51    49    1
    77    56    53    1
    78    63    62    2
    79    50    49    1
    80    69    62   am
    81    49    46    1
    82    58    59    1
    83    62    61    1
    84    52    53    1
    85    55    54    2
    86    53    54    1
    87    54    60   am
    88    46    45    1
    89    46    47    1
    90    60    61    1
    91    61    64    1
    92    65    64    1
    93    65    66    1
    94    48    47    2
    95    66    68   ar
    96    66    67   ar
