@<TRIPOS>MOLECULE
tmp/4dayB00.pdb
 100 96 0 0 0
SMALL
GASTEIGER

@<TRIPOS>ATOM
      1  N          0.6890  -11.1350   19.6800 N.3     2  GLY2       -0.1210
      2  CA         0.4790  -10.1500   20.7630 C.3     2  GLY2        0.1956
      3  C          0.0520   -8.7610   20.2800 C.2     2  GLY2        0.2612
      4  O          0.3790   -7.7490   20.9030 O.2     2  GLY2       -0.2717
      5  N         -0.7070   -8.7310   19.1800 N.am    3  VAL3       -0.1965
      6  CA        -1.0170   -7.5170   18.4010 C.3     3  VAL3        0.1727
      7  C         -2.5250   -7.3610   18.0930 C.2     3  VAL3        0.2616
      8  O         -3.2760   -8.3490   18.1110 O.2     3  VAL3       -0.2715
      9  CB        -0.1680   -7.4740   17.0700 C.3     3  VAL3        0.0290
     10  CG1        0.5730   -8.7910   16.8260 C.3     3  VAL3        0.0023
     11  CG2       -1.0180   -7.1310   15.8510 C.3     3  VAL3        0.0023
     12  N         -2.9530   -6.1210   17.8210 N.am    4  ARG4       -0.1963
     13  CA        -4.3250   -5.8290   17.3550 C.3     4  ARG4        0.1729
     14  C         -4.4780   -4.4680   16.6570 C.2     4  ARG4        0.2616
     15  O         -4.1730   -3.4250   17.2420 O.2     4  ARG4       -0.2715
     16  CB        -5.3430   -5.9780   18.4890 C.3     4  ARG4        0.0348
     17  CG        -5.0140   -5.2290   19.7730 C.3     4  ARG4        0.0492
     18  CD        -6.1840   -5.2940   20.7500 C.3     4  ARG4        0.2205
     19  NE        -7.4730   -5.3170   20.0510 N.pl3   4  ARG4       -0.0865
     20  CZ        -8.0480   -4.2620   19.4740 C.cat   4  ARG4        0.5346
     21  NH1       -7.4590   -3.0730   19.5060 N.pl3   4  ARG4        0.1354
     22  NH2       -9.2160   -4.3990   18.8600 N.pl3   4  ARG4        0.1354
     23  N         -4.9610   -4.5000   15.4100 N.am    5  LEU5       -0.1964
     24  CA        -5.0690   -3.3100   14.5380 C.3     5  LEU5        0.1713
     25  C         -6.3460   -3.2780   13.6680 C.2     5  LEU5        0.2458
     26  O         -6.9510   -4.3210   13.4210 O.2     5  LEU5       -0.2730
     27  CB        -3.8230   -3.1660   13.6570 C.3     5  LEU5        0.0310
     28  CG        -3.1680   -4.4430   13.1420 C.3     5  LEU5        0.0022
     29  CD1       -2.9460   -4.3740   11.6600 C.3     5  LEU5        0.0001
     30  CD2       -1.8630   -4.6770   13.8540 C.3     5  LEU5        0.0001
     31  N         -6.7490   -2.0770   13.1890 N.am    6  PRO6       -0.2727
     32  CA        -8.0130   -1.8830   12.4560 C.3     6  PRO6        0.1402
     33  C         -8.1180   -2.7250   11.1920 C.2     6  PRO6        0.2269
     34  O         -7.0960   -3.0420   10.5830 O.2     6  PRO6       -0.2865
     35  CB        -7.9790   -0.3960   12.0820 C.3     6  PRO6        0.0296
     36  CG        -6.5410   -0.0280   12.1280 C.3     6  PRO6        0.0237
     37  CD        -5.9790   -0.8210   13.2540 C.3     6  PRO6        0.0939
     38  N          2.4140    5.3290   23.6050 N.3    54  ARG54      -0.1245
     39  CA         2.3600    3.8600   23.5770 C.3    54  ARG54       0.1563
     40  C          2.8590    3.2260   22.2700 C.2    54  ARG54       0.2260
     41  O          2.5370    2.0830   21.9660 O.2    54  ARG54      -0.2867
     42  CB         0.9190    3.3650   23.8260 C.3    54  ARG54       0.0307
     43  CG        -0.1050    4.4480   24.1430 C.3    54  ARG54       0.0489
     44  CD        -1.5310    4.0610   23.7640 C.3    54  ARG54       0.2205
     45  NE        -2.3770    3.8100   24.9420 N.pl3  54  ARG54      -0.0865
     46  CZ        -3.0860    4.7340   25.6120 C.cat  54  ARG54       0.5346
     47  NH1       -3.8190    4.3720   26.6690 N.pl3  54  ARG54       0.1354
     48  NH2       -3.0720    6.0170   25.2430 N.pl3  54  ARG54       0.1354
     49  N          6.1110    2.0540   19.5730 N.3    56  PRO56      -0.2116
     50  CA         7.5130    1.7010   19.7230 C.3    56  PRO56       0.1372
     51  C          8.4010    2.8340   19.2180 C.2    56  PRO56       0.2244
     52  O          7.9660    3.6190   18.3710 O.2    56  PRO56      -0.2868
     53  CB         7.6510    0.4640   18.8280 C.3    56  PRO56       0.0268
     54  CG         6.2450    0.0490   18.4580 C.3    56  PRO56       0.0207
     55  CD         5.4770    1.3050   18.4740 C.3    56  PRO56       0.0892
     56  N          1.1190    5.8340   11.2880 N.3    71  MET71      -0.1245
     57  CA        -0.1000    5.0900   11.1080 C.3    71  MET71       0.1570
     58  C         -0.9490    5.3980   12.3310 C.2    71  MET71       0.2261
     59  O         -0.5470    5.1040   13.4640 O.2    71  MET71      -0.2867
     60  CB         0.1760    3.5950   10.9960 C.3    71  MET71       0.0387
     61  CG        -1.0270    2.8390   10.5050 C.3    71  MET71       0.0595
     62  SD        -1.0560    1.1440   11.0670 S.3    71  MET71      -0.1393
     63  CE        -2.8140    0.8020   10.9770 C.3    71  MET71       0.0692
     64  N         -5.2200    6.3330   13.9800 N.3    73  VAL73      -0.1245
     65  CA        -6.6660    6.3590   13.8450 C.3    73  VAL73       0.1561
     66  C         -7.0880    7.8170   13.9620 C.2    73  VAL73       0.2260
     67  O         -6.6360    8.5230   14.8720 O.2    73  VAL73      -0.2867
     68  CB        -7.3620    5.5140   14.9300 C.3    73  VAL73       0.0252
     69  CG1       -8.8640    5.4550   14.6810 C.3    73  VAL73       0.0019
     70  CG2       -6.7920    4.1150   14.9650 C.3    73  VAL73       0.0019
     71  N         -4.6410    9.3950   16.3910 N.3    84  GLN84      -0.1231
     72  CA        -4.3740    8.5490   17.5330 C.3    84  GLN84       0.1698
     73  C         -3.3860    7.4970   17.0740 C.2    84  GLN84       0.2592
     74  O         -3.7610    6.5130   16.4400 O.2    84  GLN84      -0.2718
     75  CB        -5.6770    7.9270   18.0590 C.3    84  GLN84       0.0381
     76  CG        -5.5530    7.1260   19.3650 C.3    84  GLN84       0.0905
     77  CD        -5.0670    7.9590   20.5410 C.2    84  GLN84       0.2608
     78  OE1       -5.3880    9.1380   20.6620 O.2    84  GLN84      -0.2717
     79  NE2       -4.2880    7.3440   21.4140 N.am   84  GLN84      -0.0878
     80  N         -2.1160    7.7320   17.3860 N.am   85  ALA85      -0.1966
     81  CA        -1.0050    6.9270   16.8700 C.3    85  ALA85       0.1728
     82  C         -1.1480    5.4480   17.2050 C.2    85  ALA85       0.2616
     83  O         -1.3650    5.0850   18.3670 O.2    85  ALA85      -0.2715
     84  CB         0.3370    7.4660   17.3740 C.3    85  ALA85       0.0334
     85  N         -1.0480    4.6110   16.1690 N.am   86  VAL86      -0.1963
     86  CA        -0.9880    3.1500   16.3050 C.3    86  VAL86       0.1727
     87  C          0.4680    2.7190   16.1380 C.2    86  VAL86       0.2616
     88  O          0.9990    1.9530   16.9440 O.2    86  VAL86      -0.2715
     89  CB        -1.8970    2.4390   15.2820 C.3    86  VAL86       0.0290
     90  CG1       -1.6540    0.9470   15.2840 C.3    86  VAL86       0.0023
     91  CG2       -3.3450    2.7240   15.5910 C.3    86  VAL86       0.0023
     92  N          1.1060    3.2280   15.0920 N.am   87  LYS87      -0.1977
     93  CA         2.5390    3.0700   14.9250 C.3    87  LYS87       0.1596
     94  C          3.1240    4.2220   14.1460 C.2    87  LYS87       0.2287
     95  O          2.4460    4.8700   13.3500 O.2    87  LYS87      -0.2864
     96  CB         2.8880    1.7770   14.2070 C.3    87  LYS87       0.0298
     97  CG         4.3750    1.5260   14.1410 C.3    87  LYS87       0.0038
     98  CD         4.7360    0.7860   12.8930 C.3    87  LYS87       0.0206
     99  CE         6.2260    0.5250   12.8350 C.3    87  LYS87       0.1093
    100  NZ         7.0250    1.6600   12.2930 N.3    87  LYS87      -0.1314
@<TRIPOS>BOND
     1    61    60    1
     2    61    62    1
     3    34    33    2
     4    63    62    1
     5    60    57    1
     6    57    56    1
     7    57    58    1
     8    33    32    1
     9    29    28    1
    10    35    36    1
    11    35    32    1
    12    36    37    1
    13   100    99    1
    14    58    59    2
    15    32    31    1
    16    99    98    1
    17    98    97    1
    18    28    27    1
    19    28    30    1
    20    31    37    1
    21    31    25   am
    22    95    94    2
    23    26    25    2
    24    27    24    1
    25    25    24    1
    26    65    66    1
    27    65    64    1
    28    65    68    1
    29    66    67    2
    30    97    96    1
    31    94    93    1
    32    96    93    1
    33    24    23    1
    34    69    68    1
    35    93    92    1
    36    68    70    1
    37    92    87   am
    38    89    90    1
    39    89    91    1
    40    89    86    1
    41    23    14   am
    42    11     9    1
    43    87    86    1
    44    87    88    2
    45    85    86    1
    46    85    82   am
    47    71    72    1
    48    74    73    2
    49    14    15    2
    50    14    13    1
    51    10     9    1
    52    81    82    1
    53    81    84    1
    54    81    80    1
    55     9     6    1
    56    73    80   am
    57    73    72    1
    58    82    83    2
    59    13    12    1
    60    13    16    1
    61    72    75    1
    62    12     7   am
    63    75    76    1
    64     7     8    2
    65     7     6    1
    66    52    51    2
    67     6     5    1
    68    54    55    1
    69    54    53    1
    70    55    49    1
    71    16    17    1
    72    53    50    1
    73    22    20    1
    74     5     3   am
    75    51    50    1
    76    76    77    1
    77    20    21    1
    78    20    19    2
    79    49    50    1
    80     1     2    1
    81    17    18    1
    82    19    18    1
    83     3     2    1
    84     3     4    2
    85    77    78    2
    86    77    79   am
    87    41    40    2
    88    40    39    1
    89    39    38    1
    90    39    42    1
    91    44    43    1
    92    44    45    1
    93    42    43    1
    94    45    46    2
    95    48    46    1
    96    46    47    1
