@<TRIPOS>MOLECULE
tmp/4dayA00.pdb
 165 158 0 0 0
SMALL
GASTEIGER

@<TRIPOS>ATOM
      1  N          6.5420   -1.8400    7.9980 N.3    33  ILE33      -0.1231
      2  CA         6.1860   -2.9300    8.9040 C.3    33  ILE33       0.1692
      3  C          5.1620   -2.4140    9.8800 C.2    33  ILE33       0.2592
      4  O          5.4150   -1.4190   10.5440 O.2    33  ILE33      -0.2718
      5  CB         7.3860   -3.4420    9.7160 C.3    33  ILE33       0.0266
      6  CG1        8.4470   -4.0350    8.7860 C.3    33  ILE33       0.0019
      7  CG2        6.9130   -4.4930   10.7130 C.3    33  ILE33       0.0020
      8  CD1        9.3940   -5.0250    9.4600 C.3    33  ILE33       0.0001
      9  N          4.0080   -3.0650    9.9660 N.am   34  VAL34      -0.1966
     10  CA         3.0330   -2.6770   10.9830 C.3    34  VAL34       0.1727
     11  C          3.4830   -3.2440   12.3390 C.2    34  VAL34       0.2617
     12  O          3.8780   -2.4940   13.2240 O.2    34  VAL34      -0.2715
     13  CB         1.5770   -3.0880   10.6140 C.3    34  VAL34       0.0290
     14  CG1        0.6250   -2.8250   11.7740 C.3    34  VAL34       0.0023
     15  CG2        1.1200   -2.3400    9.3900 C.3    34  VAL34       0.0023
     16  N          3.4490   -4.5620   12.4860 N.am   35  THR35      -0.1937
     17  CA         3.8850   -5.1920   13.7170 C.3    35  THR35       0.2028
     18  C          4.8270   -6.3230   13.3660 C.2    35  THR35       0.2642
     19  O          5.0370   -6.5980   12.1840 O.2    35  THR35      -0.2714
     20  CB         2.7010   -5.7460   14.5180 C.3    35  THR35       0.1808
     21  OG1        3.1920   -6.3390   15.7190 O.3    35  THR35      -0.2208
     22  CG2        1.9550   -6.7990   13.7200 C.3    35  THR35       0.0379
     23  N          5.4050   -6.9600   14.3810 N.am   36  LEU36      -0.1977
     24  CA         6.0440   -8.2480   14.1840 C.3    36  LEU36       0.1596
     25  C          5.0520   -9.2880   14.6680 C.2    36  LEU36       0.2287
     26  O          4.5580   -9.1790   15.7900 O.2    36  LEU36      -0.2864
     27  CB         7.3410   -8.3560   14.9810 C.3    36  LEU36       0.0297
     28  CG         8.5720   -7.5490   14.5680 C.3    36  LEU36       0.0022
     29  CD1        9.5840   -7.6840   15.6300 C.3    36  LEU36       0.0001
     30  CD2        9.1680   -8.0120   13.2570 C.3    36  LEU36       0.0001
     31  N          5.6610  -12.4820   15.1530 N.3    38  GLY38      -0.1210
     32  CA         6.3050  -13.6030   15.8240 C.3    38  GLY38       0.1956
     33  C          7.6920  -13.3570   16.3620 C.2    38  GLY38       0.2612
     34  O          8.2950  -12.3270   16.0820 O.2    38  GLY38      -0.2717
     35  N          8.1830  -14.3220   17.1400 N.am   39  ASN39      -0.1960
     36  CA         9.5390  -14.3090   17.6770 C.3    39  ASN39       0.1819
     37  C         10.5630  -14.3790   16.5570 C.2    39  ASN39       0.2621
     38  O         10.2900  -14.9720   15.5050 O.2    39  ASN39      -0.2715
     39  CB         9.7790  -15.5250   18.5760 C.3    39  ASN39       0.1195
     40  CG         8.9950  -15.4890   19.8770 C.2    39  ASN39       0.2630
     41  OD1        8.3460  -16.4700   20.2370 O.2    39  ASN39      -0.2716
     42  ND2        9.0740  -14.3840   20.6040 N.am   39  ASN39      -0.0877
     43  N         11.7420  -13.8040   16.7780 N.am   40  LEU40      -0.1977
     44  CA        12.8650  -14.0470   15.8840 C.3    40  LEU40       0.1596
     45  C         13.3520  -15.4800   16.0620 C.2    40  LEU40       0.2287
     46  O         13.7170  -15.8880   17.1640 O.2    40  LEU40      -0.2864
     47  CB        14.0170  -13.0610   16.1200 C.3    40  LEU40       0.0297
     48  CG        15.3230  -13.3490   15.3500 C.3    40  LEU40       0.0022
     49  CD1       15.0980  -13.3430   13.8540 C.3    40  LEU40       0.0001
     50  CD2       16.4480  -12.3900   15.7160 C.3    40  LEU40       0.0001
     51  N         15.9560  -18.7310   14.8760 N.3    42  SER42      -0.1217
     52  CA        17.3010  -19.0670   14.3930 C.3    42  SER42       0.1889
     53  C         17.3690  -20.5560   14.0480 C.2    42  SER42       0.2288
     54  O         18.4550  -21.1240   13.8730 O.2    42  SER42      -0.2866
     55  CB        18.3530  -18.7370   15.4610 C.3    42  SER42       0.2089
     56  OG        18.4850  -19.8030   16.3860 O.3    42  SER42      -0.2183
     57  N         18.3050  -17.2720   10.1760 N.3    47  TRP47      -0.1241
     58  CA        17.3130  -16.3590   10.7650 C.3    47  TRP47       0.1605
     59  C         15.9820  -16.3920   10.0010 C.2    47  TRP47       0.2264
     60  O         15.9550  -16.6160    8.7960 O.2    47  TRP47      -0.2867
     61  CB        17.8160  -14.9080   10.8200 C.3    47  TRP47       0.0550
     62  CG        19.1960  -14.6630   11.3760 C.ar   47  TRP47       0.0003
     63  CD1       20.3000  -14.2660   10.6720 C.ar   47  TRP47       0.0946
     64  CD2       19.6120  -14.7520   12.7460 C.ar   47  TRP47       0.0152
     65  NE1       21.3800  -14.1160   11.5090 N.ar   47  TRP47      -0.2442
     66  CE2       20.9890  -14.4120   12.7880 C.ar   47  TRP47       0.0810
     67  CE3       18.9630  -15.1030   13.9420 C.ar   47  TRP47       0.0012
     68  CZ2       21.7300  -14.4100   13.9840 C.ar   47  TRP47       0.0191
     69  CZ3       19.7000  -15.1010   15.1340 C.ar   47  TRP47       0.0001
     70  CH2       21.0700  -14.7530   15.1420 C.ar   47  TRP47       0.0015
     71  N         11.7450  -14.4340   10.5260 N.3    49  ILE49      -0.1245
     72  CA        10.7930  -13.7150   11.3770 C.3    49  ILE49       0.1561
     73  C          9.5250  -13.3410   10.6240 C.2    49  ILE49       0.2260
     74  O          9.5680  -12.9070    9.4750 O.2    49  ILE49      -0.2867
     75  CB        11.4200  -12.4640   12.0250 C.3    49  ILE49       0.0252
     76  CG1       10.5400  -11.9500   13.1670 C.3    49  ILE49       0.0019
     77  CG2       11.7060  -11.3910   10.9770 C.3    49  ILE49       0.0019
     78  CD1       11.2380  -10.9970   14.1110 C.3    49  ILE49       0.0001
     79  N         26.7940  -16.1010   15.4290 N.3    80  MET80      -0.1245
     80  CA        26.0990  -16.0310   16.7110 C.3    80  MET80       0.1570
     81  C         26.5960  -17.1180   17.6660 C.2    80  MET80       0.2261
     82  O         26.9310  -16.8200   18.8150 O.2    80  MET80      -0.2867
     83  CB        24.5870  -16.1270   16.5270 C.3    80  MET80       0.0387
     84  CG        23.7980  -15.8770   17.7980 C.3    80  MET80       0.0595
     85  SD        23.5490  -17.3210   18.8350 S.3    80  MET80      -0.1393
     86  CE        21.9670  -17.8950   18.2400 C.3    80  MET80       0.0692
     87  N         29.9300  -11.5750   22.1190 N.3    90  TYR90      -0.1241
     88  CA        28.5100  -11.7060   22.4010 C.3    90  TYR90       0.1605
     89  C         27.9290  -10.3230   22.5520 C.2    90  TYR90       0.2264
     90  O         26.9110   -9.9950   21.9500 O.2    90  TYR90      -0.2867
     91  CB        28.3020  -12.5180   23.6840 C.3    90  TYR90       0.0534
     92  CG        26.9180  -13.0960   23.8310 C.ar   90  TYR90      -0.0201
     93  CD1       26.3760  -13.9200   22.8370 C.ar   90  TYR90      -0.0009
     94  CD2       26.1480  -12.8300   24.9660 C.ar   90  TYR90      -0.0009
     95  CE1       25.0950  -14.4530   22.9630 C.ar   90  TYR90       0.0417
     96  CE2       24.8670  -13.3620   25.1060 C.ar   90  TYR90       0.0417
     97  CZ        24.3480  -14.1720   24.1020 C.ar   90  TYR90       0.1957
     98  OH        23.0860  -14.7040   24.2300 O.3    90  TYR90      -0.2866
     99  N         27.2630   -8.7140   19.4710 N.3    93  PHE93      -0.1227
    100  CA        26.0630   -9.3040   18.8730 C.3    93  PHE93       0.1736
    101  C         24.8120   -8.7170   19.4990 C.2    93  PHE93       0.2595
    102  O         23.9320   -8.2180   18.8010 O.2    93  PHE93      -0.2718
    103  CB        26.0860  -10.8310   19.0600 C.3    93  PHE93       0.0547
    104  CG        24.7730  -11.5100   18.7830 C.ar   93  PHE93      -0.0202
    105  CD1       24.4780  -11.9880   17.5100 C.ar   93  PHE93      -0.0042
    106  CD2       23.8430  -11.7000   19.7990 C.ar   93  PHE93      -0.0042
    107  CE1       23.2670  -12.6270   17.2480 C.ar   93  PHE93      -0.0003
    108  CE2       22.6320  -12.3370   19.5440 C.ar   93  PHE93      -0.0003
    109  CZ        22.3450  -12.8010   18.2660 C.ar   93  PHE93      -0.0000
    110  N         24.7390   -8.7810   20.8220 N.am   94  LEU94      -0.1980
    111  CA        23.6110   -8.2260   21.5540 C.3    94  LEU94       0.1596
    112  C         23.2300   -6.8360   21.0540 C.2    94  LEU94       0.2287
    113  O         22.0420   -6.4990   20.9780 O.2    94  LEU94      -0.2864
    114  CB        23.9150   -8.1870   23.0480 C.3    94  LEU94       0.0297
    115  CG        23.9290   -9.5360   23.7600 C.3    94  LEU94       0.0022
    116  CD1       24.5870   -9.3720   25.1070 C.3    94  LEU94       0.0001
    117  CD2       22.5250  -10.1310   23.9010 C.3    94  LEU94       0.0001
    118  N         21.6510   -6.9030   17.6380 N.3    97  LEU97      -0.1231
    119  CA        20.2960   -7.3870   17.8030 C.3    97  LEU97       0.1693
    120  C         19.2630   -6.2930   18.1070 C.2    97  LEU97       0.2591
    121  O         18.2140   -6.2530   17.4770 O.2    97  LEU97      -0.2718
    122  CB        20.2670   -8.4860   18.8570 C.3    97  LEU97       0.0284
    123  CG        19.2840   -9.6170   18.5460 C.3    97  LEU97       0.0019
    124  CD1       19.5090  -10.1550   17.1460 C.3    97  LEU97       0.0001
    125  CD2       19.3760  -10.7390   19.5680 C.3    97  LEU97       0.0001
    126  N         19.5420   -5.4130   19.0670 N.am   98  GLN98      -0.1979
    127  CA        18.6720   -4.2420   19.2780 C.3    98  GLN98       0.1601
    128  C         18.8850   -3.2040   18.1890 C.2    98  GLN98       0.2287
    129  O         18.0550   -2.3180   18.0120 O.2    98  GLN98      -0.2864
    130  CB        18.8450   -3.5980   20.6600 C.3    98  GLN98       0.0394
    131  CG        20.2700   -3.6040   21.1770 C.3    98  GLN98       0.0908
    132  CD        20.7850   -2.2160   21.5290 C.2    98  GLN98       0.2608
    133  OE1       21.1410   -1.4280   20.6430 O.2    98  GLN98      -0.2717
    134  NE2       20.8550   -1.9180   22.8290 N.am   98  GLN98      -0.0878
    135  N         19.0750   -4.3040   15.1550 N.3   100  CYS100     -0.1221
    136  CA        18.1350   -4.9120   14.2260 C.3   100  CYS100      0.1808
    137  C         16.7240   -4.4390   14.5200 C.2   100  CYS100      0.2601
    138  O         15.9960   -4.0550   13.6210 O.2   100  CYS100     -0.2717
    139  CB        18.2070   -6.4350   14.3160 C.3   100  CYS100      0.0970
    140  SG        17.0780   -7.3090   13.2390 S.3   100  CYS100     -0.0800
    141  N         16.3610   -4.4560   15.7940 N.am  101  GLN101     -0.1979
    142  CA        15.0510   -4.0340   16.2590 C.3   101  GLN101      0.1601
    143  C         14.7690   -2.5820   15.9330 C.2   101  GLN101      0.2287
    144  O         13.6690   -2.2470   15.5260 O.2   101  GLN101     -0.2864
    145  CB        14.9930   -4.2210   17.7530 C.3   101  GLN101      0.0394
    146  CG        13.6200   -4.3410   18.2880 C.3   101  GLN101      0.0908
    147  CD        13.5600   -3.7820   19.6520 C.2   101  GLN101      0.2608
    148  OE1       13.9170   -2.6260   19.8570 O.2   101  GLN101     -0.2717
    149  NE2       13.1430   -4.5910   20.6130 N.am  101  GLN101     -0.0878
    150  N         14.1140   -2.3250   11.9990 N.3   104  LEU104     -0.1231
    151  CA        12.7480   -2.7330   11.6640 C.3   104  LEU104      0.1693
    152  C         11.6870   -1.7600   12.1380 C.2   104  LEU104      0.2591
    153  O         10.6380   -1.6320   11.5050 O.2   104  LEU104     -0.2718
    154  CB        12.4430   -4.0930   12.2790 C.3   104  LEU104      0.0284
    155  CG        13.3320   -5.2660   11.8760 C.3   104  LEU104      0.0019
    156  CD1       13.2080   -6.4000   12.8810 C.3   104  LEU104      0.0001
    157  CD2       12.9780   -5.7110   10.4720 C.3   104  LEU104      0.0001
    158  N         11.9480   -1.1000   13.2620 N.am  105  ILE105     -0.1980
    159  CA        11.0590   -0.0540   13.7600 C.3   105  ILE105      0.1595
    160  C         10.9460    1.0520   12.7190 C.2   105  ILE105      0.2287
    161  O          9.8430    1.4820   12.3720 O.2   105  ILE105     -0.2864
    162  CB        11.5740    0.5570   15.0940 C.3   105  ILE105      0.0276
    163  CG1       11.5170   -0.4740   16.2330 C.3   105  ILE105      0.0022
    164  CG2       10.8240    1.8760   15.4370 C.3   105  ILE105      0.0022
    165  CD1       10.4100   -0.2830   17.2070 C.3   105  ILE105      0.0001
@<TRIPOS>BOND
     1     1     2    1
     2     6     8    1
     3     6     5    1
     4    60    59    2
     5     2     5    1
     6     2     3    1
     7    15    13    1
     8    74    73    2
     9     5     7    1
    10     3     9   am
    11     3     4    2
    12     9    10    1
    13    59    58    1
    14    57    58    1
    15   157   155    1
    16    71    72    1
    17    13    10    1
    18    13    14    1
    19    73    72    1
    20    63    62   ar
    21    63    65   ar
    22    58    61    1
    23    61    62    1
    24    77    75    1
    25    10    11    1
    26    62    64   ar
    27    72    75    1
    28   153   152    2
    29    65    66   ar
    30   151   150    1
    31   151   152    1
    32   151   154    1
    33   155   154    1
    34   155   156    1
    35    75    76    1
    36   152   158   am
    37    19    18    2
    38    11    16   am
    39    11    12    2
    40   161   160    2
    41    16    17    1
    42   160   159    1
    43    64    66   ar
    44    64    67   ar
    45    66    68   ar
    46    76    78    1
    47   140   139    1
    48    30    28    1
    49   158   159    1
    50    18    17    1
    51    18    23   am
    52   138   137    2
    53    17    20    1
    54    22    20    1
    55   159   162    1
    56    49    48    1
    57    54    53    2
    58    67    69   ar
    59    68    70   ar
    60    53    52    1
    61    24    23    1
    62    24    25    1
    63    24    27    1
    64   136   139    1
    65   136   137    1
    66   136   135    1
    67    52    51    1
    68    52    55    1
    69    20    21    1
    70   137   141   am
    71    28    27    1
    72    28    29    1
    73    25    26    2
    74   162   164    1
    75   162   163    1
    76    69    70   ar
    77    31    32    1
    78    48    50    1
    79    48    47    1
    80    79    80    1
    81    55    56    1
    82    38    37    2
    83   144   143    2
    84   141   142    1
    85    32    33    1
    86    44    45    1
    87    44    47    1
    88    44    43    1
    89   143   142    1
    90    45    46    2
    91    34    33    2
    92   163   165    1
    93   142   145    1
    94    33    35   am
    95    83    80    1
    96    83    84    1
    97    37    43   am
    98    37    36    1
    99    80    81    1
   100    35    36    1
   101   124   123    1
   102   107   105   ar
   103   107   109   ar
   104   121   120    2
   105   105   104   ar
   106   118   119    1
   107    81    82    2
   108    36    39    1
   109   145   146    1
   110    84    85    1
   111   119   120    1
   112   119   122    1
   113   129   128    2
   114   120   126   am
   115   128   127    1
   116    86    85    1
   117   109   108   ar
   118   146   147    1
   119   123   122    1
   120   123   125    1
   121    39    40    1
   122   104   103    1
   123   104   106   ar
   124   102   101    2
   125   100   103    1
   126   100    99    1
   127   100   101    1
   128   126   127    1
   129   127   130    1
   130   101   110   am
   131   108   106   ar
   132   147   148    2
   133   147   149   am
   134    40    41    2
   135    40    42   am
   136   133   132    2
   137   130   131    1
   138   110   111    1
   139   113   112    2
   140   112   111    1
   141   131   132    1
   142   132   134   am
   143   111   114    1
   144    90    89    2
   145    87    88    1
   146    88    89    1
   147    88    91    1
   148    93    95   ar
   149    93    92   ar
   150    95    97   ar
   151   114   115    1
   152    91    92    1
   153   115   117    1
   154   115   116    1
   155    92    94   ar
   156    97    98    1
   157    97    96   ar
   158    94    96   ar
