@<TRIPOS>MOLECULE
tmp/4db1A00.pdb
 199 198 0 0 0
SMALL
GASTEIGER

@<TRIPOS>ATOM
      1  N          5.2070   38.7300   58.2670 N.3   114  ILE114     -0.1231
      2  CA         4.3800   39.0540   59.4380 C.3   114  ILE114      0.1692
      3  C          3.7070   40.4470   59.4070 C.2   114  ILE114      0.2592
      4  O          2.7910   40.7180   60.1840 O.2   114  ILE114     -0.2718
      5  CB         5.2820   38.8100   60.7190 C.3   114  ILE114      0.0266
      6  CG1        4.9260   37.4820   61.3740 C.3   114  ILE114      0.0019
      7  CG2        5.2980   39.9510   61.7190 C.3   114  ILE114      0.0020
      8  CD1        5.4350   36.2720   60.6270 C.3   114  ILE114      0.0001
      9  N          4.1470   41.2990   58.4820 N.am  115  TYR115     -0.1976
     10  CA         3.7690   42.7030   58.4430 C.3   115  TYR115      0.1639
     11  C          3.0800   43.0570   57.1330 C.2   115  TYR115      0.2290
     12  O          3.5580   42.6830   56.0620 O.2   115  TYR115     -0.2864
     13  CB         5.0240   43.5780   58.6290 C.3   115  TYR115      0.0560
     14  CG         5.6340   43.4570   59.9980 C.ar  115  TYR115     -0.0198
     15  CD1        4.9590   43.9430   61.1220 C.ar  115  TYR115     -0.0009
     16  CD2        6.8780   42.8430   60.1860 C.ar  115  TYR115     -0.0009
     17  CE1        5.5040   43.8200   62.4130 C.ar  115  TYR115      0.0417
     18  CE2        7.4450   42.7200   61.4840 C.ar  115  TYR115      0.0417
     19  CZ         6.7390   43.2130   62.5860 C.ar  115  TYR115      0.1957
     20  OH         7.2500   43.1050   63.8620 O.3   115  TYR115     -0.2866
     21  N         -0.1040   43.1530   61.9960 N.3   124  THR124     -0.1218
     22  CA         0.8920   42.1950   62.4560 C.3   124  THR124      0.1862
     23  C          0.2250   40.9000   62.8760 C.2   124  THR124      0.2287
     24  O         -0.6790   40.9100   63.7170 O.2   124  THR124     -0.2866
     25  CB         1.6330   42.7240   63.6830 C.3   124  THR124      0.1770
     26  OG1        2.0680   44.0580   63.4280 O.3   124  THR124     -0.2211
     27  CG2        2.8450   41.8570   63.9890 C.3   124  THR124      0.0375
     28  N          0.9420   37.4010   64.7310 N.3   126  ASN126     -0.1226
     29  CA         1.8770   36.7280   65.6290 C.3   126  ASN126      0.1770
     30  C          2.4720   35.4720   64.9750 C.2   126  ASN126      0.2439
     31  O          1.7470   34.5320   64.6330 O.2   126  ASN126     -0.2733
     32  CB         1.1800   36.3780   66.9540 C.3   126  ASN126      0.1168
     33  CG         2.1340   35.8050   68.0160 C.2   126  ASN126      0.2627
     34  OD1        3.2740   35.4260   67.7240 O.2   126  ASN126     -0.2716
     35  ND2        1.6520   35.7320   69.2620 N.am  126  ASN126     -0.0877
     36  N          3.8010   35.4710   64.7710 N.am  127  PRO127     -0.2718
     37  CA         4.4680   34.2900   64.2300 C.3   127  PRO127      0.1535
     38  C          4.5920   33.1160   65.2270 C.2   127  PRO127      0.2599
     39  O          4.7040   31.9730   64.7940 O.2   127  PRO127     -0.2715
     40  CB         5.8570   34.8220   63.8500 C.3   127  PRO127      0.0310
     41  CG         6.0620   35.9970   64.7130 C.3   127  PRO127      0.0237
     42  CD         4.7220   36.6170   64.8930 C.3   127  PRO127      0.0939
     43  N          4.5740   33.3940   66.5330 N.am  128  TYR128     -0.1960
     44  CA         4.9190   32.3880   67.5580 C.3   128  TYR128      0.1771
     45  C          6.2860   31.7400   67.2720 C.2   128  TYR128      0.2619
     46  O          6.5070   30.5560   67.5360 O.2   128  TYR128     -0.2715
     47  CB         3.8080   31.3270   67.7070 C.3   128  TYR128      0.0574
     48  CG         2.5990   31.8120   68.4740 C.ar  128  TYR128     -0.0198
     49  CD1        2.6980   32.1270   69.8290 C.ar  128  TYR128     -0.0009
     50  CD2        1.3540   31.9650   67.8480 C.ar  128  TYR128     -0.0009
     51  CE1        1.5920   32.5880   70.5530 C.ar  128  TYR128      0.0417
     52  CE2        0.2370   32.4200   68.5650 C.ar  128  TYR128      0.0417
     53  CZ         0.3690   32.7270   69.9210 C.ar  128  TYR128      0.1957
     54  OH        -0.7030   33.1740   70.6630 O.3   128  TYR128     -0.2866
     55  N          7.1930   32.5390   66.7210 N.am  129  LYS129     -0.1963
     56  CA         8.5180   32.0890   66.3120 C.3   129  LYS129      0.1728
     57  C          9.3590   33.3410   66.1320 C.2   129  LYS129      0.2616
     58  O          8.9310   34.2990   65.4820 O.2   129  LYS129     -0.2715
     59  CB         8.4410   31.2980   64.9950 C.3   129  LYS129      0.0311
     60  CG         9.7870   30.8460   64.3860 C.3   129  LYS129      0.0038
     61  CD         9.6040   30.3750   62.9340 C.3   129  LYS129      0.0206
     62  CE        10.8850   29.8120   62.3080 C.3   129  LYS129      0.1093
     63  NZ        10.6970   29.4420   60.8620 N.3   129  LYS129     -0.1314
     64  N         10.5410   33.3420   66.7340 N.am  130  TRP130     -0.1960
     65  CA        11.5480   34.4000   66.5660 C.3   130  TRP130      0.1771
     66  C         11.9990   34.4510   65.1160 C.2   130  TRP130      0.2619
     67  O         12.4190   33.4210   64.5820 O.2   130  TRP130     -0.2715
     68  CB        12.7660   34.1000   67.4530 C.3   130  TRP130      0.0590
     69  CG        13.9340   35.0450   67.2840 C.ar  130  TRP130      0.0006
     70  CD1       14.1530   36.2050   67.9740 C.ar  130  TRP130      0.0946
     71  CD2       15.0490   34.8990   66.3840 C.ar  130  TRP130      0.0152
     72  NE1       15.3230   36.7920   67.5520 N.ar  130  TRP130     -0.2442
     73  CE2       15.8910   36.0130   66.5790 C.ar  130  TRP130      0.0810
     74  CE3       15.4080   33.9430   65.4290 C.ar  130  TRP130      0.0012
     75  CZ2       17.0700   36.1950   65.8590 C.ar  130  TRP130      0.0191
     76  CZ3       16.5770   34.1280   64.7090 C.ar  130  TRP130      0.0001
     77  CH2       17.3960   35.2450   64.9320 C.ar  130  TRP130      0.0015
     78  N         11.9210   35.6250   64.4920 N.am  131  LEU131     -0.1977
     79  CA        12.3530   35.8500   63.1150 C.3   131  LEU131      0.1596
     80  C         13.5210   36.8370   63.1030 C.2   131  LEU131      0.2287
     81  O         13.5720   37.7380   63.9280 O.2   131  LEU131     -0.2864
     82  CB        11.2060   36.4430   62.2970 C.3   131  LEU131      0.0297
     83  CG         9.8950   35.6900   62.1100 C.3   131  LEU131      0.0022
     84  CD1        8.9540   36.6220   61.3950 C.3   131  LEU131      0.0001
     85  CD2       10.0740   34.3840   61.3190 C.3   131  LEU131      0.0001
     86  N         14.9130   41.9100   63.4700 N.3   134  TYR134     -0.1241
     87  CA        15.0870   42.9580   64.4750 C.3   134  TYR134      0.1605
     88  C         16.5700   43.1430   64.8190 C.2   134  TYR134      0.2264
     89  O         16.9310   43.2540   65.9890 O.2   134  TYR134     -0.2867
     90  CB        14.2960   42.6260   65.7560 C.3   134  TYR134      0.0534
     91  CG        12.8440   42.2480   65.5240 C.ar  134  TYR134     -0.0201
     92  CD1       11.9020   43.2110   65.1740 C.ar  134  TYR134     -0.0009
     93  CD2       12.4210   40.9330   65.6490 C.ar  134  TYR134     -0.0009
     94  CE1       10.5840   42.8750   64.9500 C.ar  134  TYR134      0.0417
     95  CE2       11.0960   40.5810   65.4300 C.ar  134  TYR134      0.0417
     96  CZ        10.1820   41.5590   65.0810 C.ar  134  TYR134      0.1957
     97  OH         8.8640   41.2280   64.8660 O.3   134  TYR134     -0.2866
     98  N         -5.9880   39.2790   73.3130 N.3   180  SER180     -0.1202
     99  CA        -4.9690   38.6750   74.1520 C.3   180  SER180      0.2020
    100  C         -4.1480   37.6680   73.3260 C.2   180  SER180      0.2619
    101  O         -4.7070   36.8110   72.6310 O.2   180  SER180     -0.2717
    102  CB        -5.6120   38.0010   75.3660 C.3   180  SER180      0.2103
    103  OG        -4.6250   37.5430   76.2750 O.3   180  SER180     -0.2182
    104  N         -2.8270   37.8080   73.3820 N.am  181  GLY181     -0.1942
    105  CA        -1.9160   36.9210   72.6670 C.3   181  GLY181      0.2014
    106  C         -1.5490   37.3620   71.2630 C.2   181  GLY181      0.2639
    107  O         -0.8280   36.6530   70.5550 O.2   181  GLY181     -0.2714
    108  N         -2.0170   38.5430   70.8590 N.am  182  ALA182     -0.1963
    109  CA        -1.8280   38.9960   69.4820 C.3   182  ALA182      0.1728
    110  C         -0.4150   39.4780   69.2070 C.2   182  ALA182      0.2617
    111  O          0.0700   39.3470   68.0950 O.2   182  ALA182     -0.2715
    112  CB        -2.8460   40.0540   69.1150 C.3   182  ALA182      0.0334
    113  N          0.2470   40.0270   70.2180 N.am  183  GLY183     -0.1940
    114  CA         1.5940   40.5730   70.0280 C.3   183  GLY183      0.2014
    115  C          1.7710   42.0310   70.4390 C.2   183  GLY183      0.2639
    116  O          2.8360   42.6210   70.2140 O.2   183  GLY183     -0.2714
    117  N          0.7480   42.6090   71.0640 N.am  184  LYS184     -0.1963
    118  CA         0.7560   44.0230   71.3910 C.3   184  LYS184      0.1728
    119  C          2.0400   44.4110   72.1040 C.2   184  LYS184      0.2617
    120  O          2.7330   45.3430   71.6940 O.2   184  LYS184     -0.2715
    121  CB        -0.4460   44.3830   72.2550 C.3   184  LYS184      0.0311
    122  CG        -1.7840   44.3860   71.5090 C.3   184  LYS184      0.0038
    123  CD        -2.9360   44.7870   72.4330 C.3   184  LYS184      0.0206
    124  CE        -3.0470   43.8810   73.6570 C.3   184  LYS184      0.1093
    125  NZ        -3.3390   42.4590   73.2870 N.3   184  LYS184     -0.1314
    126  N          2.3620   43.6640   73.1540 N.am  185  THR185     -0.1937
    127  CA         3.4720   43.9930   74.0290 C.3   185  THR185      0.2028
    128  C          4.8310   43.7710   73.3680 C.2   185  THR185      0.2642
    129  O          5.7400   44.5970   73.5240 O.2   185  THR185     -0.2714
    130  CB         3.3520   43.2270   75.3540 C.3   185  THR185      0.1808
    131  OG1        2.1380   43.6230   76.0090 O.3   185  THR185     -0.2208
    132  CG2        4.5400   43.5110   76.2810 C.3   185  THR185      0.0379
    133  N          4.9690   42.6780   72.6220 N.am  186  VAL186     -0.1963
    134  CA         6.1830   42.4370   71.8610 C.3   186  VAL186      0.1727
    135  C          6.4630   43.6440   70.9530 C.2   186  VAL186      0.2616
    136  O          7.5640   44.2000   70.9840 O.2   186  VAL186     -0.2715
    137  CB         6.1100   41.1090   71.0840 C.3   186  VAL186      0.0290
    138  CG1        7.2230   41.0150   70.0370 C.3   186  VAL186      0.0023
    139  CG2        6.2100   39.9390   72.0470 C.3   186  VAL186      0.0023
    140  N          5.4570   44.0720   70.1870 N.am  187  ASN187     -0.1972
    141  CA         5.6100   45.2200   69.3030 C.3   187  ASN187      0.1688
    142  C          5.8430   46.5250   70.0540 C.2   187  ASN187      0.2292
    143  O          6.6500   47.3600   69.6160 O.2   187  ASN187     -0.2864
    144  CB         4.4180   45.3580   68.3490 C.3   187  ASN187      0.1181
    145  CG         4.4240   44.3070   67.2570 C.2   187  ASN187      0.2629
    146  OD1        5.3960   44.1660   66.5180 O.2   187  ASN187     -0.2716
    147  ND2        3.3330   43.5620   67.1490 N.am  187  ASN187     -0.0877
    148  N         -2.3180   33.4160   76.8580 N.3   231  ASN231     -0.1225
    149  CA        -1.0120   34.0510   76.8400 C.3   231  ASN231      0.1785
    150  C         -0.2450   33.8440   78.1480 C.2   231  ASN231      0.2597
    151  O         -0.6870   34.2770   79.2210 O.2   231  ASN231     -0.2718
    152  CB        -1.1870   35.5530   76.5120 C.3   231  ASN231      0.1169
    153  CG         0.1310   36.2860   76.3100 C.2   231  ASN231      0.2627
    154  OD1        0.1530   37.5170   76.1720 O.2   231  ASN231     -0.2716
    155  ND2        1.2330   35.5460   76.2870 N.am  231  ASN231     -0.0877
    156  N          0.9080   33.1900   78.0350 N.am  232  ASP232     -0.1960
    157  CA         1.8260   32.9860   79.1490 C.3   232  ASP232      0.1840
    158  C          2.2590   34.2880   79.8570 C.2   232  ASP232      0.2622
    159  O          2.4810   34.2970   81.0650 O.2   232  ASP232     -0.2715
    160  CB         3.0630   32.2220   78.6620 C.3   232  ASP232      0.1450
    161  CG         2.7990   30.7270   78.4260 C.2   232  ASP232      0.3671
    162  OD1        1.6640   30.2450   78.6480 O.co2 232  ASP232     -0.2456
    163  OD2        3.7540   30.0290   78.0130 O.co2 232  ASP232     -0.2456
    164  N          2.3890   35.3790   79.1080 N.am  233  ASN233     -0.1958
    165  CA         2.7530   36.6770   79.6960 C.3   233  ASN233      0.1819
    166  C          1.6900   37.7610   79.4540 C.2   233  ASN233      0.2622
    167  O          2.0030   38.8650   79.0100 O.2   233  ASN233     -0.2715
    168  CB         4.1330   37.1440   79.2090 C.3   233  ASN233      0.1195
    169  CG         4.6380   38.3500   79.9820 C.2   233  ASN233      0.2630
    170  OD1        4.3400   38.5100   81.1700 O.2   233  ASN233     -0.2716
    171  ND2        5.3860   39.2150   79.3120 N.am  233  ASN233     -0.0877
    172  N          0.4370   37.4380   79.7680 N.am  234  SER234     -0.1936
    173  CA        -0.6800   38.3430   79.5130 C.3   234  SER234      0.2055
    174  C         -0.6300   39.6130   80.3640 C.2   234  SER234      0.2644
    175  O         -0.5010   39.5350   81.5880 O.2   234  SER234     -0.2714
    176  CB        -2.0200   37.6240   79.7210 C.3   234  SER234      0.2130
    177  OG        -3.1120   38.4670   79.3960 O.3   234  SER234     -0.2179
    178  N         -0.7300   40.7720   79.7040 N.am  235  SER235     -0.1935
    179  CA        -0.8560   42.0590   80.4000 C.3   235  SER235      0.2055
    180  C         -2.2780   42.2020   80.9010 C.2   235  SER235      0.2642
    181  O         -3.2150   42.1310   80.1120 O.2   235  SER235     -0.2714
    182  CB        -0.5500   43.2260   79.4600 C.3   235  SER235      0.2130
    183  OG         0.7130   43.0720   78.8520 O.3   235  SER235     -0.2179
    184  N         -2.4400   42.4150   82.2020 N.am  236  ARG236     -0.1977
    185  CA        -3.7710   42.5290   82.8000 C.3   236  ARG236      0.1597
    186  C         -4.1090   43.9710   83.1740 C.2   236  ARG236      0.2287
    187  O         -4.8550   44.2240   84.1150 O.2   236  ARG236     -0.2864
    188  CB        -3.8650   41.6130   84.0060 C.3   236  ARG236      0.0334
    189  CG        -3.6030   40.1580   83.6810 C.3   236  ARG236      0.0492
    190  CD        -4.8900   39.4590   83.3340 C.3   236  ARG236      0.2205
    191  NE        -5.0350   39.2250   81.9050 N.pl3 236  ARG236     -0.0865
    192  CZ        -6.1970   39.0840   81.2720 C.cat 236  ARG236      0.5346
    193  NH1       -7.3490   39.1840   81.9160 N.pl3 236  ARG236      0.1354
    194  NH2       -6.1980   38.8660   79.9680 N.pl3 236  ARG236      0.1354
    195  N         -5.7560   46.0080   75.1560 N.3   450  ALA450     -0.1245
    196  CA        -6.6090   45.0730   74.4420 C.3   450  ALA450      0.1562
    197  C         -7.6450   45.8180   73.5820 C.2   450  ALA450      0.2260
    198  O         -8.1910   46.8530   73.9880 O.2   450  ALA450     -0.2867
    199  CB        -7.2920   44.1040   75.4190 C.3   450  ALA450      0.0290
@<TRIPOS>BOND
     1    12    11    2
     2    11    10    1
     3     1     2    1
     4    10     9    1
     5    10    13    1
     6     9     3   am
     7    13    14    1
     8     3     2    1
     9     3     4    2
    10     2     5    1
    11    14    16   ar
    12    14    15   ar
    13    16    18   ar
    14     8     6    1
    15     5     6    1
    16     5     7    1
    17    63    62    1
    18    15    17   ar
    19    85    83    1
    20    84    83    1
    21    18    19   ar
    22    21    22    1
    23    83    82    1
    24    82    79    1
    25    62    61    1
    26    17    19   ar
    27    22    23    1
    28    22    25    1
    29    19    20    1
    30    23    24    2
    31    61    60    1
    32    80    79    1
    33    80    81    2
    34    79    78    1
    35    26    25    1
    36    86    87    1
    37    25    27    1
    38    40    37    1
    39    40    41    1
    40    37    36    1
    41    37    38    1
    42    60    59    1
    43    87    88    1
    44    87    90    1
    45    78    66   am
    46    67    66    2
    47    31    30    2
    48    76    77   ar
    49    76    74   ar
    50    41    42    1
    51    28    29    1
    52    36    42    1
    53    36    30   am
    54    39    38    2
    55    88    89    2
    56    97    96    1
    57    77    75   ar
    58    94    96   ar
    59    94    92   ar
    60    30    29    1
    61    59    56    1
    62    96    95   ar
    63    66    65    1
    64    92    91   ar
    65    38    43   am
    66    74    71   ar
    67    95    93   ar
    68    58    57    2
    69    91    93   ar
    70    91    90    1
    71    29    32    1
    72    75    73   ar
    73    57    56    1
    74    57    64   am
    75    56    55    1
    76    71    73   ar
    77    71    69   ar
    78   146   145    2
    79    43    44    1
    80    65    64    1
    81    65    68    1
    82    73    72   ar
    83    55    45   am
    84    32    33    1
    85   147   145   am
    86   145   144    1
    87    45    46    2
    88    45    44    1
    89    69    68    1
    90    69    70   ar
    91    72    70   ar
    92    44    47    1
    93    47    48    1
    94    34    33    2
    95    50    48   ar
    96    50    52   ar
    97    33    35   am
    98   111   110    2
    99   144   141    1
   100    48    49   ar
   101    52    53   ar
   102   112   109    1
   103   110   109    1
   104   110   113   am
   105   141   142    1
   106   141   140    1
   107   109   108    1
   108   143   142    2
   109    49    51   ar
   110    53    51   ar
   111    53    54    1
   112   114   113    1
   113   114   115    1
   114   138   137    1
   115   140   135   am
   116   116   115    2
   117   115   117   am
   118   107   106    2
   119   108   106   am
   120   135   136    2
   121   135   134    1
   122   117   118    1
   123   137   134    1
   124   137   139    1
   125   106   105    1
   126   118   119    1
   127   118   121    1
   128   122   121    1
   129   122   123    1
   130   120   119    2
   131   134   133    1
   132   119   126   am
   133   123   124    1
   134   133   128   am
   135   101   100    2
   136   105   104    1
   137   126   127    1
   138   125   124    1
   139    98    99    1
   140   100   104   am
   141   100    99    1
   142   128   129    2
   143   128   127    1
   144   197   198    2
   145   197   196    1
   146   127   130    1
   147    99   102    1
   148   196   195    1
   149   196   199    1
   150   130   131    1
   151   130   132    1
   152   102   103    1
   153   154   153    2
   154   155   153   am
   155   153   152    1
   156   152   149    1
   157   149   148    1
   158   149   150    1
   159   163   161   ar
   160   156   150   am
   161   156   157    1
   162   150   151    2
   163   161   162   ar
   164   161   160    1
   165   160   157    1
   166   183   182    1
   167   167   166    2
   168   164   165    1
   169   164   158   am
   170   157   158    1
   171   168   165    1
   172   168   169    1
   173   171   169   am
   174   177   176    1
   175   166   165    1
   176   166   172   am
   177   182   179    1
   178   173   176    1
   179   173   172    1
   180   173   174    1
   181   178   174   am
   182   178   179    1
   183   158   159    2
   184   194   192    1
   185   169   170    2
   186   181   180    2
   187   174   175    2
   188   179   180    1
   189   180   184   am
   190   192   191    2
   191   192   193    1
   192   191   190    1
   193   184   185    1
   194   185   186    1
   195   185   188    1
   196   186   187    2
   197   190   189    1
   198   189   188    1
