@<TRIPOS>MOLECULE
tmp/4dbeB00.pdb
 175 165 0 0 0
SMALL
GASTEIGER

@<TRIPOS>ATOM
      1  N         63.4610   -1.9340   59.4860 N.3     7  ALA7       -0.1245
      2  CA        62.0920   -1.4640   59.3970 C.3     7  ALA7        0.1562
      3  C         61.3240   -1.9670   60.6180 C.2     7  ALA7        0.2260
      4  O         60.8190   -3.0870   60.6240 O.2     7  ALA7       -0.2867
      5  CB        61.4240   -1.9370   58.0550 C.3     7  ALA7        0.0290
      6  N         58.4020   -2.3350   62.1480 N.3     9  ASP9       -0.1239
      7  CA        56.9620   -2.2580   61.9220 C.3     9  ASP9        0.1674
      8  C         56.1760   -3.0300   62.9590 C.2     9  ASP9        0.2266
      9  O         54.9480   -3.0550   62.9110 O.2     9  ASP9       -0.2867
     10  CB        56.6140   -2.7600   60.5210 C.3     9  ASP9        0.1410
     11  CG        57.1720   -1.8780   59.4520 C.2     9  ASP9        0.3668
     12  OD1       56.9990   -0.6490   59.5760 O.co2   9  ASP9       -0.2456
     13  OD2       57.8120   -2.4040   58.5130 O.co2   9  ASP9       -0.2456
     14  N         63.8880    2.5250   60.7160 N.3    28  LYS28      -0.1245
     15  CA        62.7210    3.1560   60.1090 C.3    28  LYS28       0.1561
     16  C         61.5140    2.8320   60.9820 C.2    28  LYS28       0.2260
     17  O         61.1380    1.6630   61.1260 O.2    28  LYS28      -0.2867
     18  CB        62.4880    2.6330   58.6840 C.3    28  LYS28       0.0271
     19  CG        61.3740    3.3850   57.9380 C.3    28  LYS28       0.0035
     20  CD        61.3080    3.0350   56.4360 C.3    28  LYS28       0.0206
     21  CE        60.6540    1.6900   56.1680 C.3    28  LYS28       0.1093
     22  NZ        59.2340    1.6310   56.6440 N.3    28  LYS28      -0.1314
     23  N         58.4490    6.7140   59.1460 N.3    57  ASP57      -0.1239
     24  CA        57.8130    6.3940   57.8710 C.3    57  ASP57       0.1674
     25  C         56.3190    6.1180   58.0230 C.2    57  ASP57       0.2266
     26  O         55.9100    4.9720   58.2640 O.2    57  ASP57      -0.2867
     27  CB        58.4920    5.1940   57.2050 C.3    57  ASP57       0.1410
     28  CG        57.8800    4.8590   55.8430 C.2    57  ASP57       0.3668
     29  OD1       57.1260    5.7010   55.3240 O.co2  57  ASP57      -0.2456
     30  OD2       58.1530    3.7680   55.2960 O.co2  57  ASP57      -0.2456
     31  N         54.4990    7.1590   55.3790 N.3    59  LYS59      -0.1245
     32  CA        54.1370    7.2840   53.9670 C.3    59  LYS59       0.1561
     33  C         53.3390    8.5630   53.7220 C.2    59  LYS59       0.2260
     34  O         52.3040    8.5510   53.0530 O.2    59  LYS59      -0.2867
     35  CB        53.3300    6.0540   53.5000 C.3    59  LYS59       0.0271
     36  CG        54.1130    4.7420   53.4150 C.3    59  LYS59       0.0035
     37  CD        55.3080    4.8270   52.4720 C.3    59  LYS59       0.0206
     38  CE        55.8630    3.4270   52.1710 C.3    59  LYS59       0.1093
     39  NZ        56.4500    2.7670   53.4100 N.3    59  LYS59      -0.1314
     40  N         59.7430   10.0210   55.6300 N.3    81  ILE81      -0.1245
     41  CA        59.4230    9.5500   54.2940 C.3    81  ILE81       0.1561
     42  C         58.0550   10.0760   53.8580 C.2    81  ILE81       0.2260
     43  O         57.0850    9.9960   54.6160 O.2    81  ILE81      -0.2867
     44  CB        59.4500    7.9980   54.2400 C.3    81  ILE81       0.0252
     45  CG1       60.8910    7.4940   54.3900 C.3    81  ILE81       0.0019
     46  CG2       58.8390    7.4890   52.9410 C.3    81  ILE81       0.0019
     47  CD1       61.0480    5.9950   54.3430 C.3    81  ILE81       0.0001
     48  N         59.2510    8.6300   48.2710 N.3   109  VAL109     -0.1245
     49  CA        59.0400    7.3230   47.6490 C.3   109  VAL109      0.1561
     50  C         59.0670    7.5080   46.1230 C.2   109  VAL109      0.2260
     51  O         58.2150    8.1900   45.5570 O.2   109  VAL109     -0.2867
     52  CB        57.6780    6.7020   48.0610 C.3   109  VAL109      0.0252
     53  CG1       57.4320    5.3820   47.3290 C.3   109  VAL109      0.0019
     54  CG2       57.5850    6.5150   49.5630 C.3   109  VAL109      0.0019
     55  N         60.1010    4.7030   43.5790 N.3   111  VAL111     -0.1231
     56  CA        59.6230    3.4690   42.9610 C.3   111  VAL111      0.1692
     57  C         59.3260    2.4190   44.0370 C.2   111  VAL111      0.2592
     58  O         60.2220    2.0140   44.7830 O.2   111  VAL111     -0.2718
     59  CB        60.6750    2.8850   41.9990 C.3   111  VAL111      0.0266
     60  CG1       60.1140    1.6630   41.2720 C.3   111  VAL111      0.0020
     61  CG2       61.1290    3.9440   41.0000 C.3   111  VAL111      0.0020
     62  N         58.0780    1.9790   44.1300 N.am  112  MET112     -0.1965
     63  CA        57.7200    1.0400   45.1920 C.3   112  MET112      0.1736
     64  C         58.0240   -0.3960   44.7810 C.2   112  MET112      0.2617
     65  O         58.1380   -0.6990   43.5890 O.2   112  MET112     -0.2715
     66  CB        56.2570    1.1930   45.6040 C.3   112  MET112      0.0427
     67  CG        55.9510    2.5260   46.2790 C.3   112  MET112      0.0599
     68  SD        54.3030    2.5140   46.9750 S.3   112  MET112     -0.1393
     69  CE        54.5310    1.3860   48.3630 C.3   112  MET112      0.0692
     70  N         58.1260   -1.2780   45.7730 N.am  113  SER113     -0.1936
     71  CA        58.6820   -2.6080   45.5620 C.3   113  SER113      0.2055
     72  C         57.6920   -3.6410   45.0240 C.2   113  SER113      0.2643
     73  O         58.1070   -4.6740   44.5070 O.2   113  SER113     -0.2714
     74  CB        59.3170   -3.1210   46.8600 C.3   113  SER113      0.2130
     75  OG        58.3400   -3.2280   47.8810 O.3   113  SER113     -0.2179
     76  N         56.3950   -3.3720   45.1480 N.am  114  HIS114     -0.1973
     77  CA        55.3910   -4.3590   44.7880 C.3   114  HIS114      0.1656
     78  C         55.1180   -4.3560   43.2840 C.2   114  HIS114      0.2291
     79  O         55.5360   -3.4470   42.5620 O.2   114  HIS114     -0.2864
     80  CB        54.0970   -4.1300   45.5690 C.3   114  HIS114      0.0771
     81  CG        53.4700   -2.7940   45.3140 C.ar  114  HIS114      0.0820
     82  ND1       54.0080   -1.6170   45.7880 N.ar  114  HIS114     -0.2267
     83  CD2       52.3540   -2.4500   44.6290 C.ar  114  HIS114      0.1154
     84  CE1       53.2490   -0.6050   45.4070 C.ar  114  HIS114      0.1986
     85  NE2       52.2320   -1.0840   44.7150 N.ar  114  HIS114     -0.2212
     86  N         63.1970    6.5900   48.0030 N.3   138  VAL138     -0.1245
     87  CA        62.9540    5.1870   48.2760 C.3   138  VAL138      0.1561
     88  C         62.7630    4.5230   46.9300 C.2   138  VAL138      0.2260
     89  O         61.8950    4.9180   46.1550 O.2   138  VAL138     -0.2867
     90  CB        61.7020    4.9910   49.1320 C.3   138  VAL138      0.0252
     91  CG1       61.5350    3.5160   49.5050 C.3   138  VAL138      0.0019
     92  CG2       61.7950    5.8580   50.3760 C.3   138  VAL138      0.0019
     93  N         63.7600   -1.0110   50.0940 N.3   162  PRO162     -0.2102
     94  CA        63.0050   -2.0550   50.7940 C.3   162  PRO162      0.1504
     95  C         62.6770   -3.2030   49.8440 C.2   162  PRO162      0.2576
     96  O         62.9560   -3.1010   48.6420 O.2   162  PRO162     -0.2718
     97  CB        61.7240   -1.3270   51.1800 C.3   162  PRO162      0.0282
     98  CG        61.4860   -0.4020   49.9690 C.3   162  PRO162      0.0208
     99  CD        62.8710    0.0340   49.5330 C.3   162  PRO162      0.0893
    100  N         62.1070   -4.2810   50.3720 N.am  163  GLY163     -0.1943
    101  CA        61.7280   -5.4270   49.5630 C.3   163  GLY163      0.2014
    102  C         62.7380   -6.5610   49.6350 C.2   163  GLY163      0.2638
    103  O         62.7080   -7.4830   48.8130 O.2   163  GLY163     -0.2714
    104  N         63.6470   -6.4780   50.6040 N.am  164  MET164     -0.1976
    105  CA        64.7230   -7.4500   50.7550 C.3   164  MET164      0.1605
    106  C         64.3160   -8.5250   51.7450 C.2   164  MET164      0.2287
    107  O         63.8530   -8.2250   52.8520 O.2   164  MET164     -0.2864
    108  CB        66.0210   -6.7690   51.2110 C.3   164  MET164      0.0413
    109  CG        66.3830   -5.5010   50.4410 C.3   164  MET164      0.0598
    110  SD        66.7080   -5.7330   48.6730 S.3   164  MET164     -0.1393
    111  CE        65.0840   -5.9130   47.9810 C.3   164  MET164      0.0692
    112  N         61.7150  -10.9040   52.6780 N.3   166  SER166     -0.1202
    113  CA        60.3190  -11.3020   52.5530 C.3   166  SER166      0.2020
    114  C         59.7420  -11.1000   51.1500 C.2   166  SER166      0.2618
    115  O         59.0360  -11.9650   50.6300 O.2   166  SER166     -0.2717
    116  CB        59.4690  -10.5540   53.5820 C.3   166  SER166      0.2103
    117  OG        58.0920  -10.7200   53.3120 O.3   166  SER166     -0.2182
    118  N         60.0350   -9.9590   50.5380 N.am  167  GLN167     -0.1979
    119  CA        59.4830   -9.6570   49.2180 C.3   167  GLN167      0.1601
    120  C         60.2860  -10.2460   48.0530 C.2   167  GLN167      0.2287
    121  O         59.8780  -10.1260   46.9010 O.2   167  GLN167     -0.2864
    122  CB        59.2820   -8.1550   49.0340 C.3   167  GLN167      0.0394
    123  CG        58.3590   -7.5460   50.0740 C.3   167  GLN167      0.0908
    124  CD        58.2710   -6.0490   49.9470 C.2   167  GLN167      0.2608
    125  OE1       57.8710   -5.5290   48.9040 O.2   167  GLN167     -0.2717
    126  NE2       58.6490   -5.3350   51.0170 N.am  167  GLN167     -0.0878
    127  N         66.4840   -1.5640   53.4100 N.3   183  ILE183     -0.1231
    128  CA        65.4590   -1.5550   54.4410 C.3   183  ILE183      0.1692
    129  C         64.9500   -2.9700   54.5950 C.2   183  ILE183      0.2592
    130  O         64.5430   -3.5840   53.6130 O.2   183  ILE183     -0.2718
    131  CB        64.2770   -0.6560   54.0310 C.3   183  ILE183      0.0266
    132  CG1       64.7180    0.8140   53.9890 C.3   183  ILE183      0.0019
    133  CG2       63.0850   -0.8790   54.9720 C.3   183  ILE183      0.0020
    134  CD1       63.7380    1.7250   53.2420 C.3   183  ILE183      0.0001
    135  N         64.9760   -3.4820   55.8260 N.am  184  ILE184     -0.1966
    136  CA        64.6200   -4.8630   56.0950 C.3   184  ILE184      0.1727
    137  C         63.7620   -4.9980   57.3450 C.2   184  ILE184      0.2617
    138  O         64.1680   -4.5920   58.4430 O.2   184  ILE184     -0.2715
    139  CB        65.8780   -5.7260   56.2630 C.3   184  ILE184      0.0290
    140  CG1       66.7650   -5.6010   55.0200 C.3   184  ILE184      0.0022
    141  CG2       65.4960   -7.1780   56.5490 C.3   184  ILE184      0.0023
    142  CD1       68.0620   -6.3620   55.1190 C.3   184  ILE184      0.0001
    143  N         62.5820   -5.5850   57.1800 N.am  185  GLY185     -0.1940
    144  CA        61.6510   -5.7320   58.2870 C.3   185  GLY185      0.2014
    145  C         61.4850   -7.1490   58.8030 C.2   185  GLY185      0.2639
    146  O         62.2290   -7.5860   59.6950 O.2   185  GLY185     -0.2714
    147  N         60.4940   -7.8560   58.2600 N.am  186  ARG186     -0.1963
    148  CA        60.0890   -9.1710   58.7570 C.3   186  ARG186      0.1729
    149  C         61.2380  -10.1580   58.8660 C.2   186  ARG186      0.2616
    150  O         61.3180  -10.9000   59.8380 O.2   186  ARG186     -0.2715
    151  CB        58.9840   -9.7710   57.8730 C.3   186  ARG186      0.0348
    152  CG        57.6010   -9.1850   58.1140 C.3   186  ARG186      0.0492
    153  CD        56.6570   -9.4500   56.9360 C.3   186  ARG186      0.2205
    154  NE        57.0060   -8.6750   55.7460 N.pl3 186  ARG186     -0.0865
    155  CZ        56.3280   -8.7340   54.5990 C.cat 186  ARG186      0.5346
    156  NH1       55.2940   -9.5490   54.4980 N.pl3 186  ARG186      0.1354
    157  NH2       56.6870   -7.9840   53.5560 N.pl3 186  ARG186      0.1354
    158  N         62.1210  -10.1560   57.8740 N.am  187  SER187     -0.1950
    159  CA        63.2930  -11.0320   57.8630 C.3   187  SER187      0.1924
    160  C         64.1090  -10.9390   59.1620 C.2   187  SER187      0.2314
    161  O         64.8090  -11.8830   59.5330 O.2   187  SER187     -0.2863
    162  CB        64.1840  -10.6980   56.6660 C.3   187  SER187      0.2116
    163  OG        63.8660  -11.5260   55.5690 O.3   187  SER187     -0.2180
    164  N         62.7320   -8.8580   62.3470 N.3   189  TYR189     -0.1241
    165  CA        61.8970   -8.7860   63.5560 C.3   189  TYR189      0.1605
    166  C         61.0110  -10.0140   63.7920 C.2   189  TYR189      0.2264
    167  O         60.6040  -10.2890   64.9240 O.2   189  TYR189     -0.2867
    168  CB        61.1230   -7.4640   63.6470 C.3   189  TYR189      0.0534
    169  CG        60.0380   -7.2060   62.6150 C.ar  189  TYR189     -0.0201
    170  CD1       58.8720   -7.9660   62.5820 C.ar  189  TYR189     -0.0009
    171  CD2       60.1620   -6.1590   61.7090 C.ar  189  TYR189     -0.0009
    172  CE1       57.8740   -7.7010   61.6500 C.ar  189  TYR189      0.0417
    173  CE2       59.1720   -5.8870   60.7880 C.ar  189  TYR189      0.0417
    174  CZ        58.0340   -6.6560   60.7610 C.ar  189  TYR189      0.1957
    175  OH        57.0490   -6.3740   59.8370 O.3   189  TYR189     -0.2866
@<TRIPOS>BOND
     1    61    59    1
     2    60    59    1
     3    59    56    1
     4    79    78    2
     5    56    55    1
     6    56    57    1
     7    78    77    1
     8    65    64    2
     9    57    62   am
    10    57    58    2
    11    62    63    1
    12    73    72    2
    13    83    85   ar
    14    83    81   ar
    15    85    84   ar
    16    64    63    1
    17    64    70   am
    18    77    76    1
    19    77    80    1
    20    72    76   am
    21    72    71    1
    22    63    66    1
    23    81    80    1
    24    81    82   ar
    25    84    82   ar
    26    51    50    2
    27    71    70    1
    28    71    74    1
    29    66    67    1
    30    50    49    1
    31    89    88    2
    32    67    68    1
    33    74    75    1
    34   121   120    2
    35    88    87    1
    36    68    69    1
    37    53    52    1
    38    49    52    1
    39    49    48    1
    40   111   110    1
    41    86    87    1
    42   120   119    1
    43    52    54    1
    44    87    90    1
    45    96    95    2
    46   110   109    1
    47   103   102    2
    48   125   124    2
    49   122   119    1
    50   122   123    1
    51    90    91    1
    52    90    92    1
    53   119   118    1
    54    99    98    1
    55    99    93    1
    56   101   102    1
    57   101   100    1
    58   102   104   am
    59    95   100   am
    60    95    94    1
    61   124   123    1
    62   124   126   am
    63    98    97    1
    64    93    94    1
    65   109   108    1
    66   118   114   am
    67   104   105    1
    68   115   114    2
    69   105   108    1
    70   105   106    1
    71    94    97    1
    72   114   113    1
    73   106   107    2
    74    38    37    1
    75    38    39    1
    76    37    36    1
    77   113   112    1
    78   113   116    1
    79    46    44    1
    80    34    33    2
    81   134   132    1
    82   117   116    1
    83   127   128    1
    84    36    35    1
    85    35    32    1
    86   157   155    1
    87   130   129    2
    88    33    32    1
    89    42    41    1
    90    42    43    2
    91    32    31    1
    92   132   131    1
    93   131   128    1
    94   131   133    1
    95    44    41    1
    96    44    45    1
    97    41    40    1
    98    47    45    1
    99   128   129    1
   100   156   155    1
   101   129   135   am
   102   155   154    2
   103   140   142    1
   104   140   139    1
   105    30    28   ar
   106    29    28   ar
   107   163   162    1
   108   154   153    1
   109   135   136    1
   110    28    27    1
   111   136   139    1
   112   136   137    1
   113    21    20    1
   114    21    22    1
   115   139   141    1
   116    20    19    1
   117   162   159    1
   118   153   152    1
   119   143   137   am
   120   143   144    1
   121    27    24    1
   122   137   138    2
   123   159   158    1
   124   159   160    1
   125    24    25    1
   126    24    23    1
   127   151   152    1
   128   151   148    1
   129   158   149   am
   130    19    18    1
   131    25    26    2
   132     5     2    1
   133   147   148    1
   134   147   145   am
   135   144   145    1
   136    13    11   ar
   137    18    15    1
   138   148   149    1
   139   145   146    2
   140   149   150    2
   141   160   161    2
   142     2     1    1
   143     2     3    1
   144    11    12   ar
   145    11    10    1
   146   175   174    1
   147    15    14    1
   148    15    16    1
   149    10     7    1
   150     3     4    2
   151   174   173   ar
   152   174   172   ar
   153   173   171   ar
   154    16    17    2
   155   172   170   ar
   156   171   169   ar
   157     7     6    1
   158     7     8    1
   159   164   165    1
   160   170   169   ar
   161   169   168    1
   162     9     8    2
   163   165   168    1
   164   165   166    1
   165   166   167    2
