@<TRIPOS>MOLECULE
tmp/4dbkA00.pdb
 164 161 0 0 0
SMALL
GASTEIGER

@<TRIPOS>ATOM
      1  N         34.8690  -10.0390  -11.0150 N.3     2  LEU2       -0.1245
      2  CA        35.4630  -11.3720  -10.8170 C.3     2  LEU2        0.1561
      3  C         36.9750  -11.4140  -11.0860 C.2     2  LEU2        0.2260
      4  O         37.7180  -11.8170  -10.2160 O.2     2  LEU2       -0.2867
      5  CB        34.7730  -12.3910  -11.7020 C.3     2  LEU2        0.0270
      6  CG        35.3110  -13.8120  -11.5610 C.3     2  LEU2        0.0019
      7  CD1       34.9810  -14.3640  -10.1600 C.3     2  LEU2        0.0001
      8  CD2       34.6710  -14.6520  -12.6470 C.3     2  LEU2        0.0001
      9  N         38.9550  -10.0320   -8.1820 N.3     5  PHE5       -0.1227
     10  CA        38.9300  -10.8250   -6.9970 C.3     5  PHE5        0.1736
     11  C         40.0230  -11.8820   -7.1220 C.2     5  PHE5        0.2595
     12  O         40.8260  -12.0930   -6.1840 O.2     5  PHE5       -0.2718
     13  CB        37.5780  -11.5110   -6.8630 C.3     5  PHE5        0.0547
     14  CG        37.4430  -12.3450   -5.6240 C.ar    5  PHE5       -0.0202
     15  CD1       38.0540  -11.9610   -4.4420 C.ar    5  PHE5       -0.0042
     16  CD2       36.6570  -13.4880   -5.6320 C.ar    5  PHE5       -0.0042
     17  CE1       37.9050  -12.6980   -3.2600 C.ar    5  PHE5       -0.0003
     18  CE2       36.5140  -14.2710   -4.4660 C.ar    5  PHE5       -0.0003
     19  CZ        37.1360  -13.8680   -3.2700 C.ar    5  PHE5       -0.0000
     20  N         40.0920  -12.5340   -8.2780 N.am    6  ARG6       -0.1980
     21  CA        41.2110  -13.4520   -8.4830 C.3     6  ARG6        0.1597
     22  C         42.5380  -12.7690   -8.2360 C.2     6  ARG6        0.2287
     23  O         43.4460  -13.3820   -7.7040 O.2     6  ARG6       -0.2864
     24  CB        41.2310  -14.0470   -9.8830 C.3     6  ARG6        0.0334
     25  CG        40.2170  -15.1870  -10.0610 C.3     6  ARG6        0.0492
     26  CD        40.4330  -15.7950  -11.4700 C.3     6  ARG6        0.2205
     27  NE        39.4310  -15.2780  -12.3970 N.pl3   6  ARG6       -0.0865
     28  CZ        39.6580  -14.4310  -13.3830 C.cat   6  ARG6        0.5346
     29  NH1       40.8910  -13.9980  -13.6560 N.pl3   6  ARG6        0.1354
     30  NH2       38.6330  -14.0620  -14.1280 N.pl3   6  ARG6        0.1354
     31  N         43.4120  -12.1470   -4.5370 N.3     9  ILE9       -0.1245
     32  CA        43.8200  -13.3910   -3.8990 C.3     9  ILE9        0.1561
     33  C         45.3010  -13.6160   -4.1120 C.2     9  ILE9        0.2260
     34  O         46.0090  -13.9520   -3.1890 O.2     9  ILE9       -0.2867
     35  CB        42.9990  -14.5900   -4.4450 C.3     9  ILE9        0.0252
     36  CG1       41.5490  -14.4660   -3.9900 C.3     9  ILE9        0.0019
     37  CG2       43.5630  -15.9160   -3.9340 C.3     9  ILE9        0.0019
     38  CD1       40.5460  -15.3280   -4.7930 C.3     9  ILE9        0.0001
     39  N         44.3910  -18.8550   -7.9350 N.3    18  PRO18      -0.2102
     40  CA        43.0300  -18.7570   -7.3540 C.3    18  PRO18       0.1504
     41  C         42.0190  -19.7740   -7.9270 C.2    18  PRO18       0.2575
     42  O         41.3910  -20.5460   -7.1670 O.2    18  PRO18      -0.2718
     43  CB        42.6170  -17.2980   -7.6600 C.3    18  PRO18       0.0282
     44  CG        43.9280  -16.5570   -7.6760 C.3    18  PRO18       0.0208
     45  CD        44.9100  -17.5230   -8.3270 C.3    18  PRO18       0.0893
     46  N         41.8960  -19.8040   -9.2550 N.am   19  LEU19      -0.1980
     47  CA        40.8740  -20.6170   -9.8810 C.3    19  LEU19       0.1596
     48  C         41.1200  -22.0970   -9.5960 C.2    19  LEU19       0.2287
     49  O         40.2010  -22.8160   -9.2410 O.2    19  LEU19      -0.2864
     50  CB        40.7500  -20.3060  -11.3720 C.3    19  LEU19       0.0297
     51  CG        39.6540  -21.0280  -12.1660 C.3    19  LEU19       0.0022
     52  CD1       38.7070  -20.0210  -12.8460 C.3    19  LEU19       0.0001
     53  CD2       40.2960  -21.9580  -13.1900 C.3    19  LEU19       0.0001
     54  N         40.8860  -22.2500   -5.1510 N.3    22  PHE22      -0.1227
     55  CA        39.7030  -21.8610   -4.3940 C.3    22  PHE22       0.1736
     56  C         38.3650  -22.0370   -5.0890 C.2    22  PHE22       0.2595
     57  O         37.3520  -21.7220   -4.5120 O.2    22  PHE22      -0.2718
     58  CB        39.8690  -20.4270   -3.9240 C.3    22  PHE22       0.0547
     59  CG        41.0960  -20.2420   -3.1460 C.ar   22  PHE22      -0.0202
     60  CD1       41.1850  -20.7660   -1.8530 C.ar   22  PHE22      -0.0042
     61  CD2       42.2070  -19.6580   -3.7140 C.ar   22  PHE22      -0.0042
     62  CE1       42.3810  -20.6550   -1.1240 C.ar   22  PHE22      -0.0003
     63  CE2       43.4080  -19.5250   -2.9860 C.ar   22  PHE22      -0.0003
     64  CZ        43.4940  -20.0260   -1.6990 C.ar   22  PHE22      -0.0000
     65  N         38.3580  -22.5220   -6.3190 N.am   23  ASN23      -0.1974
     66  CA        37.1160  -22.7580   -7.0400 C.3    23  ASN23       0.1688
     67  C         36.7660  -24.2180   -6.8210 C.2    23  ASN23       0.2292
     68  O         37.6190  -25.1200   -6.8060 O.2    23  ASN23      -0.2864
     69  CB        37.2730  -22.3900   -8.5410 C.3    23  ASN23       0.1181
     70  CG        35.9520  -22.4000   -9.3350 C.2    23  ASN23       0.2629
     71  OD1       35.8160  -23.1620  -10.2970 O.2    23  ASN23      -0.2716
     72  ND2       35.0000  -21.5430   -8.9570 N.am   23  ASN23      -0.0877
     73  N         31.1370  -24.1110   -0.2590 N.3    28  TYR28      -0.1227
     74  CA        30.7870  -22.7200   -0.6660 C.3    28  TYR28       0.1736
     75  C         31.6710  -22.0490   -1.6940 C.2    28  TYR28       0.2596
     76  O         31.2250  -21.0770   -2.3370 O.2    28  TYR28      -0.2718
     77  CB        30.5740  -21.7860    0.5540 C.3    28  TYR28       0.0548
     78  CG        29.2180  -22.0570    1.1580 C.ar   28  TYR28      -0.0200
     79  CD1       28.0790  -21.3320    0.7600 C.ar   28  TYR28      -0.0009
     80  CD2       29.0410  -23.1170    2.0590 C.ar   28  TYR28      -0.0009
     81  CE1       26.7880  -21.6390    1.2960 C.ar   28  TYR28       0.0417
     82  CE2       27.7940  -23.4230    2.5950 C.ar   28  TYR28       0.0417
     83  CZ        26.6820  -22.7060    2.1980 C.ar   28  TYR28       0.1957
     84  OH        25.4690  -23.0450    2.7290 O.3    28  TYR28      -0.2866
     85  N         32.9050  -22.5330   -1.8330 N.am   29  CYS29      -0.1956
     86  CA        33.8500  -21.9810   -2.8030 C.3    29  CYS29       0.1843
     87  C         33.5370  -22.5480   -4.1910 C.2    29  CYS29       0.2626
     88  O         33.8310  -23.7200   -4.4680 O.2    29  CYS29      -0.2714
     89  CB        35.2860  -22.3170   -2.4330 C.3    29  CYS29       0.0997
     90  SG        35.8410  -21.9230   -0.7970 S.3    29  CYS29      -0.0797
     91  N         32.9470  -21.7450   -5.0580 N.am   30  GLY30      -0.1940
     92  CA        32.2120  -22.3030   -6.2150 C.3    30  GLY30       0.2014
     93  C         30.8380  -21.6480   -6.3470 C.2    30  GLY30       0.2638
     94  O         30.4120  -20.8300   -5.4680 O.2    30  GLY30      -0.2714
     95  N         30.1490  -21.9760   -7.4450 N.am   31  LEU31      -0.1977
     96  CA        28.8060  -21.4560   -7.7240 C.3    31  LEU31       0.1596
     97  C         27.8360  -21.9340   -6.6540 C.2    31  LEU31       0.2287
     98  O         27.8300  -23.1160   -6.3410 O.2    31  LEU31      -0.2864
     99  CB        28.2660  -21.9340   -9.0900 C.3    31  LEU31       0.0297
    100  CG        26.9680  -21.1980   -9.4680 C.3    31  LEU31       0.0022
    101  CD1       27.2730  -19.7220   -9.8300 C.3    31  LEU31       0.0001
    102  CD2       26.1720  -21.8940  -10.5690 C.3    31  LEU31       0.0001
    103  N         34.3610  -18.5240    2.1100 N.3    45  CYS45      -0.1235
    104  CA        33.5570  -18.5760    0.8980 C.3    45  CYS45       0.1677
    105  C         32.0760  -18.3220    1.1000 C.2    45  CYS45       0.2270
    106  O         31.5300  -17.5010    0.3710 O.2    45  CYS45      -0.2867
    107  CB        33.8010  -19.8650    0.1210 C.3    45  CYS45       0.0956
    108  SG        35.4640  -19.9440   -0.5300 S.3    45  CYS45      -0.0801
    109  N         31.5390  -14.7230    1.9100 N.3    48  HIS48      -0.1226
    110  CA        31.6150  -14.0170    0.5790 C.3    48  HIS48       0.1752
    111  C         30.3260  -14.1390   -0.2370 C.2    48  HIS48       0.2596
    112  O         29.7880  -13.1170   -0.7130 O.2    48  HIS48      -0.2718
    113  CB        32.8090  -14.4940   -0.2360 C.3    48  HIS48       0.0759
    114  CG        33.0740  -13.7000   -1.4750 C.ar   48  HIS48       0.0818
    115  ND1       32.8870  -14.2120   -2.7370 N.ar   48  HIS48      -0.2268
    116  CD2       33.5720  -12.4470   -1.6500 C.ar   48  HIS48       0.1154
    117  CE1       33.2630  -13.3190   -3.6360 C.ar   48  HIS48       0.1986
    118  NE2       33.6780  -12.2360   -2.9970 N.ar   48  HIS48      -0.2212
    119  N         29.8080  -15.3700   -0.3890 N.am   49  ASP49      -0.1974
    120  CA        28.4640  -15.5390   -0.9090 C.3    49  ASP49       0.1709
    121  C         27.4600  -14.6380   -0.1720 C.2    49  ASP49       0.2293
    122  O         26.6590  -13.9030   -0.8000 O.2    49  ASP49      -0.2864
    123  CB        27.9990  -16.9610   -0.7060 C.3    49  ASP49       0.1436
    124  CG        28.6220  -17.9360   -1.6470 C.2    49  ASP49       0.3671
    125  OD1       29.5770  -17.6050   -2.3400 O.co2  49  ASP49      -0.2456
    126  OD2       28.1520  -19.1090   -1.6540 O.co2  49  ASP49      -0.2456
    127  N         24.4560   -9.3580  -11.2300 N.3    67  ASN67      -0.1240
    128  CA        25.5850  -10.0750  -10.6570 C.3    67  ASN67       0.1653
    129  C         26.6170   -9.0690  -10.1630 C.2    67  ASN67       0.2266
    130  O         27.1930   -8.3450  -10.9910 O.2    67  ASN67      -0.2867
    131  CB        26.2020  -10.9830  -11.7490 C.3    67  ASN67       0.1155
    132  CG        27.2180  -12.0070  -11.1980 C.2    67  ASN67       0.2627
    133  OD1       27.4390  -13.0560  -11.8260 O.2    67  ASN67      -0.2716
    134  ND2       27.8350  -11.7240  -10.0650 N.am   67  ASN67      -0.0877
    135  N         29.5640   -9.6110   -9.5310 N.3    69  TYR69      -0.1227
    136  CA        30.8610   -9.8980  -10.1700 C.3    69  TYR69       0.1736
    137  C         31.1480   -9.0790  -11.3990 C.2    69  TYR69       0.2596
    138  O         32.3180   -9.0170  -11.8600 O.2    69  TYR69      -0.2718
    139  CB        31.0150  -11.3550  -10.5480 C.3    69  TYR69       0.0548
    140  CG        31.4950  -12.2570   -9.4180 C.ar   69  TYR69      -0.0200
    141  CD1       32.7040  -11.9970   -8.7400 C.ar   69  TYR69      -0.0009
    142  CD2       30.7610  -13.3810   -9.0630 C.ar   69  TYR69      -0.0009
    143  CE1       33.1620  -12.8240   -7.7540 C.ar   69  TYR69       0.0417
    144  CE2       31.1860  -14.2180   -8.0480 C.ar   69  TYR69       0.0417
    145  CZ        32.3910  -13.9400   -7.4180 C.ar   69  TYR69       0.1957
    146  OH        32.7800  -14.7880   -6.4360 O.3    69  TYR69      -0.2866
    147  N         30.1270   -8.4250  -11.9400 N.am   70  THR70      -0.1953
    148  CA        30.3370   -7.6470  -13.1820 C.3    70  THR70       0.1897
    149  C         30.8510   -6.3040  -12.7890 C.2    70  THR70       0.2313
    150  O         31.3270   -5.5540  -13.6100 O.2    70  THR70      -0.2863
    151  CB        29.0100   -7.4490  -13.9840 C.3    70  THR70       0.1794
    152  OG1       28.0680   -6.7590  -13.1540 O.3    70  THR70      -0.2208
    153  CG2       28.3670   -8.8180  -14.3380 C.3    70  THR70       0.0378
    154  N         40.9480  -16.0560    3.1410 N.3   106  PHE106     -0.1241
    155  CA        41.6100  -17.1570    2.4540 C.3   106  PHE106      0.1605
    156  C         43.0560  -17.2790    2.8710 C.2   106  PHE106      0.2264
    157  O         43.5790  -18.3890    2.9640 O.2   106  PHE106     -0.2867
    158  CB        41.6320  -16.8970    0.9770 C.3   106  PHE106      0.0534
    159  CG        40.3060  -17.0230    0.3030 C.ar  106  PHE106     -0.0203
    160  CD1       39.1270  -17.1650    1.0250 C.ar  106  PHE106     -0.0042
    161  CD2       40.2430  -17.0100   -1.0840 C.ar  106  PHE106     -0.0042
    162  CE1       37.9180  -17.2620    0.3760 C.ar  106  PHE106     -0.0003
    163  CE2       39.0170  -17.1300   -1.7540 C.ar  106  PHE106     -0.0003
    164  CZ        37.8660  -17.2420   -1.0250 C.ar  106  PHE106     -0.0000
@<TRIPOS>BOND
     1   153   151    1
     2    30    28    1
     3   151   148    1
     4   151   152    1
     5    29    28    1
     6   150   149    2
     7    28    27    2
     8    53    51    1
     9   148   149    1
    10   148   147    1
    11    52    51    1
    12     8     6    1
    13    27    26    1
    14    51    50    1
    15   147   137   am
    16   138   137    2
    17   133   132    2
    18   131   132    1
    19   131   128    1
    20     5     6    1
    21     5     2    1
    22     6     7    1
    23    26    25    1
    24   137   136    1
    25    50    47    1
    26   127   128    1
    27   132   134   am
    28     3     2    1
    29     3     4    2
    30     1     2    1
    31   130   129    2
    32   128   129    1
    33   102   100    1
    34   139   136    1
    35   139   140    1
    36    71    70    2
    37   136   135    1
    38    25    24    1
    39    24    21    1
    40    47    48    1
    41    47    46    1
    42   101   100    1
    43    48    49    2
    44   100    99    1
    45   140   142   ar
    46   140   141   ar
    47    70    72   am
    48    70    69    1
    49    46    41   am
    50    99    96    1
    51   142   144   ar
    52   141   143   ar
    53    69    66    1
    54    21    20    1
    55    21    22    1
    56    45    39    1
    57    45    44    1
    58    20    11   am
    59    22    23    2
    60     9    10    1
    61   144   145   ar
    62    39    40    1
    63    41    40    1
    64    41    42    2
    65   143   145   ar
    66    96    95    1
    67    96    97    1
    68    44    43    1
    69    43    40    1
    70    95    93   am
    71   145   146    1
    72    11    10    1
    73    11    12    2
    74    66    67    1
    75    66    65    1
    76    10    13    1
    77    13    14    1
    78    67    68    2
    79    97    98    2
    80    93    92    1
    81    93    94    2
    82    65    56   am
    83    92    91    1
    84    16    14   ar
    85    16    18   ar
    86    14    15   ar
    87    54    55    1
    88    56    57    2
    89    56    55    1
    90    91    87   am
    91    38    36    1
    92    31    32    1
    93    88    87    2
    94    18    19   ar
    95    35    36    1
    96    35    37    1
    97    35    32    1
    98    15    17   ar
    99    55    58    1
   100    87    86    1
   101    33    32    1
   102    33    34    2
   103    58    59    1
   104    61    59   ar
   105    61    63   ar
   106   117   118   ar
   107   117   115   ar
   108    19    17   ar
   109    59    60   ar
   110   118   116   ar
   111    63    64   ar
   112    86    89    1
   113    86    85    1
   114   115   114   ar
   115    89    90    1
   116   125   124   ar
   117    76    75    2
   118    60    62   ar
   119    85    75   am
   120   163   161   ar
   121   163   164   ar
   122    64    62   ar
   123    75    74    1
   124   126   124   ar
   125   116   114   ar
   126   124   123    1
   127   114   113    1
   128   161   159   ar
   129   164   162   ar
   130   120   123    1
   131   120   119    1
   132   120   121    1
   133   122   121    2
   134    90   108    1
   135   112   111    2
   136    74    73    1
   137    74    77    1
   138   108   107    1
   139   119   111   am
   140   111   110    1
   141   113   110    1
   142   107   104    1
   143   159   158    1
   144   159   160   ar
   145   106   105    2
   146   162   160   ar
   147    77    78    1
   148   110   109    1
   149    79    78   ar
   150    79    81   ar
   151   104   105    1
   152   104   103    1
   153   158   155    1
   154    78    80   ar
   155    81    83   ar
   156    80    82   ar
   157    83    82   ar
   158    83    84    1
   159   155   156    1
   160   155   154    1
   161   156   157    2
