@<TRIPOS>MOLECULE
tmp/4dbmD01.pdb
 90 86 0 0 0
SMALL
GASTEIGER

@<TRIPOS>ATOM
      1  N        -19.3160   -8.8290    2.8270 N.3    61  TYR61      -0.1241
      2  CA       -19.6190   -9.1650    1.4420 C.3    61  TYR61       0.1605
      3  C        -19.3320  -10.6330    1.1050 C.2    61  TYR61       0.2264
      4  O        -18.3770  -11.2220    1.6200 O.2    61  TYR61      -0.2867
      5  CB       -18.9720   -8.1900    0.4520 C.3    61  TYR61       0.0534
      6  CG       -17.5270   -7.8370    0.7050 C.ar   61  TYR61      -0.0201
      7  CD1      -17.1830   -6.7490    1.5030 C.ar   61  TYR61      -0.0009
      8  CD2      -16.5070   -8.5640    0.1120 C.ar   61  TYR61      -0.0009
      9  CE1      -15.8470   -6.4050    1.7180 C.ar   61  TYR61       0.0417
     10  CE2      -15.1660   -8.2290    0.3080 C.ar   61  TYR61       0.0417
     11  CZ       -14.8390   -7.1540    1.1140 C.ar   61  TYR61       0.1957
     12  OH       -13.5010   -6.8380    1.3140 O.3    61  TYR61      -0.2866
     13  N        -18.2870  -13.3040   -1.7260 N.3    63  GLN63      -0.1245
     14  CA       -17.8010  -13.5900   -3.0640 C.3    63  GLN63       0.1566
     15  C        -18.5330  -14.8160   -3.6040 C.2    63  GLN63       0.2260
     16  O        -18.5300  -15.8900   -2.9940 O.2    63  GLN63      -0.2867
     17  CB       -16.2870  -13.7920   -3.0670 C.3    63  GLN63       0.0367
     18  CG       -15.6950  -13.9990   -4.4490 C.3    63  GLN63       0.0905
     19  CD       -14.1800  -13.9390   -4.4410 C.2    63  GLN63       0.2608
     20  OE1      -13.5160  -14.5970   -5.2420 O.2    63  GLN63      -0.2717
     21  NE2      -13.6240  -13.1380   -3.5320 N.am   63  GLN63      -0.0878
     22  N        -18.7580  -17.2090   -7.0260 N.3    65  ARG65      -0.1245
     23  CA       -18.1730  -17.6120   -8.3000 C.3    65  ARG65       0.1563
     24  C        -18.8290  -18.8840   -8.8410 C.2    65  ARG65       0.2260
     25  O        -19.1040  -19.8390   -8.1010 O.2    65  ARG65      -0.2867
     26  CB       -16.6660  -17.8300   -8.1640 C.3    65  ARG65       0.0307
     27  CG       -15.8710  -16.5490   -8.0320 C.3    65  ARG65       0.0489
     28  CD       -14.4370  -16.8420   -7.6270 C.3    65  ARG65       0.2205
     29  NE       -14.4000  -17.5820   -6.3700 N.pl3  65  ARG65      -0.0865
     30  CZ       -13.2880  -17.9800   -5.7610 C.cat  65  ARG65       0.5346
     31  NH1      -13.3690  -18.6450   -4.6230 N.pl3  65  ARG65       0.1354
     32  NH2      -12.0970  -17.7100   -6.2830 N.pl3  65  ARG65       0.1354
     33  N        -17.2550   -6.2760  -17.1760 N.3    85  ARG85      -0.1245
     34  CA       -18.2210   -6.0290  -16.1140 C.3    85  ARG85       0.1563
     35  C        -19.5980   -5.7770  -16.7090 C.2    85  ARG85       0.2260
     36  O        -19.7240   -5.0990  -17.7270 O.2    85  ARG85      -0.2867
     37  CB       -17.7920   -4.8350  -15.2580 C.3    85  ARG85       0.0307
     38  CG       -16.3410   -4.4260  -15.4410 C.3    85  ARG85       0.0489
     39  CD       -15.3970   -5.5170  -14.9660 C.3    85  ARG85       0.2205
     40  NE       -14.5560   -5.0710  -13.8580 N.pl3  85  ARG85      -0.0865
     41  CZ       -13.3240   -5.5140  -13.6320 C.cat  85  ARG85       0.5346
     42  NH1      -12.6310   -5.0550  -12.5990 N.pl3  85  ARG85       0.1354
     43  NH2      -12.7840   -6.4170  -14.4390 N.pl3  85  ARG85       0.1354
     44  N        -23.1780   -5.6120   -9.9430 N.3   112  ILE112     -0.1231
     45  CA       -22.4700   -5.6760  -11.2040 C.3   112  ILE112      0.1692
     46  C        -21.5050   -6.8110  -11.0160 C.2   112  ILE112      0.2592
     47  O        -20.9190   -6.9460   -9.9430 O.2   112  ILE112     -0.2718
     48  CB       -21.6430   -4.3990  -11.4800 C.3   112  ILE112      0.0266
     49  CG1      -22.5220   -3.1500  -11.4660 C.3   112  ILE112      0.0019
     50  CG2      -20.9060   -4.5060  -12.8250 C.3   112  ILE112      0.0020
     51  CD1      -21.7210   -1.8490  -11.6340 C.3   112  ILE112      0.0001
     52  N        -21.3000   -7.5960  -12.0650 N.am  113  ALA113     -0.1966
     53  CA       -20.4920   -8.8000  -11.9600 C.3   113  ALA113      0.1728
     54  C        -19.4260   -8.7940  -13.0490 C.2   113  ALA113      0.2616
     55  O        -19.5720   -8.1050  -14.0570 O.2   113  ALA113     -0.2715
     56  CB       -21.3920  -10.0500  -12.0750 C.3   113  ALA113      0.0334
     57  N        -18.3500   -9.5410  -12.8390 N.am  114  VAL114     -0.1977
     58  CA       -17.3680   -9.7550  -13.8900 C.3   114  VAL114      0.1596
     59  C        -17.5710  -11.1100  -14.5710 C.2   114  VAL114      0.2287
     60  O        -17.6910  -12.1390  -13.9040 O.2   114  VAL114     -0.2864
     61  CB       -15.9400   -9.6510  -13.3570 C.3   114  VAL114      0.0276
     62  CG1      -14.9520   -9.9200  -14.4680 C.3   114  VAL114      0.0022
     63  CG2      -15.7110   -8.2700  -12.7700 C.3   114  VAL114      0.0022
     64  N        -17.8190  -13.7800  -11.5140 N.3   122  MET122     -0.1230
     65  CA       -17.5850  -13.3500  -10.1420 C.3   122  MET122      0.1702
     66  C        -18.5200  -12.2080   -9.7480 C.2   122  MET122      0.2592
     67  O        -18.7280  -11.2680  -10.5140 O.2   122  MET122     -0.2718
     68  CB       -16.1270  -12.9250   -9.9590 C.3   122  MET122      0.0401
     69  CG       -15.1250  -14.0490  -10.1650 C.3   122  MET122      0.0596
     70  SD       -13.5690  -13.4890  -10.8860 S.3   122  MET122     -0.1393
     71  CE       -14.1570  -12.2770  -12.0660 C.3   122  MET122      0.0692
     72  N        -19.0760  -12.3030   -8.5460 N.am  123  PHE123     -0.1962
     73  CA       -20.0540  -11.3500   -8.0570 C.3   123  PHE123      0.1771
     74  C        -19.8000  -11.1620   -6.5530 C.2   123  PHE123      0.2619
     75  O        -19.6600  -12.1410   -5.8120 O.2   123  PHE123     -0.2715
     76  CB       -21.4520  -11.9060   -8.3380 C.3   123  PHE123      0.0574
     77  CG       -22.5790  -10.9970   -7.9470 C.ar  123  PHE123     -0.0200
     78  CD1      -22.4950   -9.6250   -8.1430 C.ar  123  PHE123     -0.0042
     79  CD2      -23.7430  -11.5220   -7.4100 C.ar  123  PHE123     -0.0042
     80  CE1      -23.5470   -8.7850   -7.7780 C.ar  123  PHE123     -0.0003
     81  CE2      -24.8010  -10.6890   -7.0530 C.ar  123  PHE123     -0.0003
     82  CZ       -24.6980   -9.3170   -7.2340 C.ar  123  PHE123     -0.0000
     83  N        -19.7180   -9.9110   -6.0990 N.am  124  ILE124     -0.1977
     84  CA       -19.4450   -9.6420   -4.6850 C.3   124  ILE124      0.1596
     85  C        -20.4230   -8.6320   -4.0690 C.2   124  ILE124      0.2287
     86  O        -20.0900   -7.4760   -3.8790 O.2   124  ILE124     -0.2864
     87  CB       -18.0100   -9.1380   -4.4910 C.3   124  ILE124      0.0276
     88  CG1      -17.0200  -10.0590   -5.2100 C.3   124  ILE124      0.0022
     89  CG2      -17.6720   -9.0810   -3.0310 C.3   124  ILE124      0.0022
     90  CD1      -15.5730   -9.7490   -4.8830 C.3   124  ILE124      0.0001
@<TRIPOS>BOND
     1    36    35    2
     2    33    34    1
     3    35    34    1
     4    34    37    1
     5    38    37    1
     6    38    39    1
     7    39    40    1
     8    59    60    2
     9    59    58    1
    10    62    61    1
    11    43    41    1
    12    55    54    2
    13    58    61    1
    14    58    57    1
    15    40    41    2
    16    41    42    1
    17    61    63    1
    18    54    57   am
    19    54    53    1
    20    50    48    1
    21    56    53    1
    22    71    70    1
    23    52    53    1
    24    52    46   am
    25    51    49    1
    26    64    65    1
    27    48    49    1
    28    48    45    1
    29    45    46    1
    30    45    44    1
    31    46    47    2
    32    70    69    1
    33    67    66    2
    34    69    68    1
    35    65    68    1
    36    65    66    1
    37    66    72   am
    38    24    23    1
    39    24    25    2
    40    72    73    1
    41    76    73    1
    42    76    77    1
    43    23    26    1
    44    23    22    1
    45    26    27    1
    46    78    77   ar
    47    78    80   ar
    48    73    74    1
    49    27    28    1
    50    77    79   ar
    51    80    82   ar
    52    28    29    1
    53    79    81   ar
    54    82    81   ar
    55    74    83   am
    56    74    75    2
    57    29    30    2
    58    32    30    1
    59    83    84    1
    60    30    31    1
    61    20    19    2
    62    88    90    1
    63    88    87    1
    64    84    87    1
    65    84    85    1
    66    87    89    1
    67    18    19    1
    68    18    17    1
    69    19    21   am
    70    85    86    2
    71    15    14    1
    72    15    16    2
    73    17    14    1
    74    14    13    1
    75     8    10   ar
    76     8     6   ar
    77    10    11   ar
    78     5     6    1
    79     5     2    1
    80     6     7   ar
    81     3     2    1
    82     3     4    2
    83    11    12    1
    84    11     9   ar
    85     2     1    1
    86     7     9   ar
