@<TRIPOS>MOLECULE
tmp/4dbmD00.pdb
 91 92 0 0 0
SMALL
GASTEIGER

@<TRIPOS>ATOM
      1  N        -30.5220  -18.4240    5.9350 N.3    99  TYR99      -0.1241
      2  CA       -31.6490  -19.2550    6.3380 C.3    99  TYR99       0.1605
      3  C        -32.3060  -18.7140    7.6030 C.2    99  TYR99       0.2264
      4  O        -33.3910  -19.1500    7.9850 O.2    99  TYR99      -0.2867
      5  CB       -31.1990  -20.7010    6.5580 C.3    99  TYR99       0.0534
      6  CG       -30.9090  -21.4570    5.2810 C.ar   99  TYR99      -0.0201
      7  CD1      -31.1180  -20.8710    4.0400 C.ar   99  TYR99      -0.0009
      8  CD2      -30.4270  -22.7590    5.3170 C.ar   99  TYR99      -0.0009
      9  CE1      -30.8540  -21.5590    2.8720 C.ar   99  TYR99       0.0417
     10  CE2      -30.1600  -23.4540    4.1540 C.ar   99  TYR99       0.0417
     11  CZ       -30.3750  -22.8500    2.9340 C.ar   99  TYR99       0.1957
     12  OH       -30.1110  -23.5390    1.7730 O.3    99  TYR99      -0.2866
     13  N        -28.8550  -21.9610   -1.2600 N.3   152  SER152     -0.1202
     14  CA       -29.9460  -21.7230   -2.1780 C.3   152  SER152      0.2020
     15  C        -31.2570  -21.9500   -1.4630 C.2   152  SER152      0.2619
     16  O        -31.3910  -22.8830   -0.6540 O.2   152  SER152     -0.2717
     17  CB       -29.8410  -22.6740   -3.3770 C.3   152  SER152      0.2103
     18  OG       -31.0220  -22.6110   -4.1670 O.3   152  SER152     -0.2182
     19  N        -32.2300  -21.0990   -1.7560 N.am  153  TRP153     -0.1961
     20  CA       -33.5600  -21.2850   -1.2040 C.3   153  TRP153      0.1771
     21  C        -34.3340  -22.3840   -1.9490 C.2   153  TRP153      0.2619
     22  O        -35.0090  -23.1940   -1.3250 O.2   153  TRP153     -0.2715
     23  CB       -34.3460  -19.9560   -1.2130 C.3   153  TRP153      0.0590
     24  CG       -35.5920  -19.9860   -0.3550 C.ar  153  TRP153      0.0006
     25  CD1      -36.8890  -20.0360   -0.7860 C.ar  153  TRP153      0.0946
     26  CD2      -35.6470  -20.0070    1.0790 C.ar  153  TRP153      0.0152
     27  NE1      -37.7480  -20.0850    0.2890 N.ar  153  TRP153     -0.2442
     28  CE2      -37.0110  -20.0620    1.4490 C.ar  153  TRP153      0.0810
     29  CE3      -34.6730  -19.9870    2.0930 C.ar  153  TRP153      0.0012
     30  CZ2      -37.4320  -20.0780    2.7830 C.ar  153  TRP153      0.0191
     31  CZ3      -35.0950  -20.0090    3.4280 C.ar  153  TRP153      0.0001
     32  CH2      -36.4590  -20.0570    3.7570 C.ar  153  TRP153      0.0015
     33  N        -34.3270  -22.3260   -3.2800 N.am  154  VAL154     -0.1977
     34  CA       -35.0700  -23.2820   -4.1090 C.3   154  VAL154      0.1596
     35  C        -34.3300  -24.4580   -4.8120 C.2   154  VAL154      0.2287
     36  O        -34.9700  -25.2640   -5.4750 O.2   154  VAL154     -0.2864
     37  CB       -35.8900  -22.5340   -5.1540 C.3   154  VAL154      0.0276
     38  CG1      -36.7600  -21.4830   -4.4760 C.3   154  VAL154      0.0022
     39  CG2      -34.9600  -21.8930   -6.1860 C.3   154  VAL154      0.0022
     40  N        -34.3750  -31.1860    4.7320 N.3   194  TYR194     -0.1241
     41  CA       -35.4340  -30.3690    5.3100 C.3   194  TYR194      0.1605
     42  C        -36.7870  -31.0100    5.0440 C.2   194  TYR194      0.2264
     43  O        -36.9740  -31.6810    4.0270 O.2   194  TYR194     -0.2867
     44  CB       -35.3860  -28.9460    4.7480 C.3   194  TYR194      0.0534
     45  CG       -34.1100  -28.2370    5.0920 C.ar  194  TYR194     -0.0201
     46  CD1      -34.0060  -27.4780    6.2580 C.ar  194  TYR194     -0.0009
     47  CD2      -32.9920  -28.3470    4.2730 C.ar  194  TYR194     -0.0009
     48  CE1      -32.8290  -26.8290    6.5880 C.ar  194  TYR194      0.0417
     49  CE2      -31.8070  -27.7040    4.5900 C.ar  194  TYR194      0.0417
     50  CZ       -31.7300  -26.9440    5.7480 C.ar  194  TYR194      0.1957
     51  OH       -30.5520  -26.3040    6.0710 O.3   194  TYR194     -0.2866
     52  N        -39.7000  -30.0440    3.9650 N.3   196  CYS196     -0.1221
     53  CA       -40.3920  -29.7380    2.7170 C.3   196  CYS196      0.1808
     54  C        -39.8990  -30.5550    1.5230 C.2   196  CYS196      0.2601
     55  O        -40.6970  -30.9940    0.6950 O.2   196  CYS196     -0.2717
     56  CB       -40.2720  -28.2460    2.3970 C.3   196  CYS196      0.0970
     57  SG       -38.6290  -27.7430    1.8410 S.3   196  CYS196     -0.0800
     58  N        -38.5870  -30.7460    1.4290 N.am  197  CYS197     -0.1956
     59  CA       -37.9950  -31.4280    0.2800 C.3   197  CYS197      0.1828
     60  C        -37.2060  -32.6890    0.6290 C.2   197  CYS197      0.2467
     61  O        -36.4000  -32.6940    1.5590 O.2   197  CYS197     -0.2730
     62  CB       -37.1030  -30.4600   -0.5000 C.3   197  CYS197      0.0996
     63  SG       -37.8650  -28.8560   -0.8270 S.3   197  CYS197     -0.0797
     64  N        -37.4430  -33.7550   -0.1310 N.am  198  PRO198     -0.2715
     65  CA       -36.7230  -35.0210    0.0570 C.3   198  PRO198      0.1536
     66  C        -35.2280  -34.9080   -0.2480 C.2   198  PRO198      0.2598
     67  O        -34.4130  -35.4580    0.4920 O.2   198  PRO198     -0.2715
     68  CB       -37.3960  -35.9520   -0.9530 C.3   198  PRO198      0.0310
     69  CG       -37.8840  -35.0450   -2.0240 C.3   198  PRO198      0.0237
     70  CD       -38.2930  -33.7740   -1.3340 C.3   198  PRO198      0.0939
     71  N        -34.8770  -34.2020   -1.3200 N.am  199  GLU199     -0.1978
     72  CA       -33.4780  -34.0000   -1.6800 C.3   199  GLU199      0.1602
     73  C        -32.7400  -33.1610   -0.6390 C.2   199  GLU199      0.2287
     74  O        -33.3010  -32.2080   -0.0880 O.2   199  GLU199     -0.2864
     75  CB       -33.3410  -33.3670   -3.0690 C.3   199  GLU199      0.0415
     76  CG       -34.3670  -33.8410   -4.0900 C.3   199  GLU199      0.1163
     77  CD       -35.6210  -32.9620   -4.1250 C.2   199  GLU199      0.3649
     78  OE1      -35.5690  -31.8090   -3.6250 O.co2 199  GLU199     -0.2457
     79  OE2      -36.6570  -33.4240   -4.6600 O.co2 199  GLU199     -0.2457
     80  N        -30.2110  -30.3450    0.7560 N.3   201  TYR201     -0.1241
     81  CA       -29.7920  -29.0020    0.3670 C.3   201  TYR201      0.1605
     82  C        -28.4210  -28.7000    0.9650 C.2   201  TYR201      0.2264
     83  O        -28.0570  -29.2420    2.0150 O.2   201  TYR201     -0.2867
     84  CB       -30.8100  -27.9540    0.8360 C.3   201  TYR201      0.0534
     85  CG       -32.0250  -27.8240   -0.0590 C.ar  201  TYR201     -0.0201
     86  CD1      -32.9530  -28.8570   -0.1450 C.ar  201  TYR201     -0.0009
     87  CD2      -32.2470  -26.6650   -0.8120 C.ar  201  TYR201     -0.0009
     88  CE1      -34.0670  -28.7580   -0.9610 C.ar  201  TYR201      0.0417
     89  CE2      -33.3700  -26.5460   -1.6340 C.ar  201  TYR201      0.0417
     90  CZ       -34.2730  -27.6070   -1.7070 C.ar  201  TYR201      0.1957
     91  OH       -35.3900  -27.5290   -2.5140 O.3   201  TYR201     -0.2866
@<TRIPOS>BOND
     1    39    37    1
     2    36    35    2
     3    37    38    1
     4    37    34    1
     5    35    34    1
     6    79    77   ar
     7    18    17    1
     8    77    76    1
     9    77    78   ar
    10    34    33    1
    11    76    75    1
    12    17    14    1
    13    33    21   am
    14    75    72    1
    15    91    90    1
    16    14    15    1
    17    14    13    1
    18    69    70    1
    19    69    68    1
    20    21    22    2
    21    21    20    1
    22    19    15   am
    23    19    20    1
    24    90    89   ar
    25    90    88   ar
    26    72    71    1
    27    72    73    1
    28    89    87   ar
    29    15    16    2
    30    70    64    1
    31    71    66   am
    32    23    20    1
    33    23    24    1
    34    88    86   ar
    35    68    65    1
    36    63    62    1
    37    87    85   ar
    38    25    24   ar
    39    25    27   ar
    40    73    74    2
    41    62    59    1
    42    24    26   ar
    43    66    65    1
    44    66    67    2
    45    86    85   ar
    46    64    65    1
    47    64    60   am
    48    85    84    1
    49    59    60    1
    50    59    58    1
    51    27    28   ar
    52    81    80    1
    53    81    84    1
    54    81    82    1
    55    60    61    2
    56    55    54    2
    57    82    83    2
    58    26    28   ar
    59    26    29   ar
    60    58    54   am
    61    28    30   ar
    62    54    53    1
    63    12    11    1
    64    57    56    1
    65    29    31   ar
    66    56    53    1
    67    53    52    1
    68    30    32   ar
    69     9    11   ar
    70     9     7   ar
    71    11    10   ar
    72    31    32   ar
    73    43    42    2
    74     7     6   ar
    75    10     8   ar
    76    47    49   ar
    77    47    45   ar
    78    49    50   ar
    79    40    41    1
    80    44    45    1
    81    44    41    1
    82    42    41    1
    83    45    46   ar
    84     6     8   ar
    85     6     5    1
    86    50    51    1
    87    50    48   ar
    88     1     2    1
    89    46    48   ar
    90     2     5    1
    91     2     3    1
    92     3     4    2
