@<TRIPOS>MOLECULE
tmp/4dbqA00.pdb
 194 194 0 0 0
SMALL
GASTEIGER

@<TRIPOS>ATOM
      1  N         14.4900  -34.5790  -31.6560 N.3    83  ILE83      -0.1231
      2  CA        14.6320  -33.8650  -30.4050 C.3    83  ILE83       0.1692
      3  C         13.5250  -34.1590  -29.4000 C.2    83  ILE83       0.2592
      4  O         13.6050  -33.7070  -28.2580 O.2    83  ILE83      -0.2718
      5  CB        14.6710  -32.3560  -30.6380 C.3    83  ILE83       0.0266
      6  CG1       13.2780  -31.8550  -31.0380 C.3    83  ILE83       0.0019
      7  CG2       15.7050  -32.0330  -31.6680 C.3    83  ILE83       0.0020
      8  CD1       13.1930  -30.3670  -31.1900 C.3    83  ILE83       0.0001
      9  N         12.5050  -34.9010  -29.8310 N.am   84  TYR84      -0.1976
     10  CA        11.3220  -35.1780  -29.0160 C.3    84  TYR84       0.1639
     11  C         11.2980  -36.6380  -28.6290 C.2    84  TYR84       0.2290
     12  O         11.4870  -37.5030  -29.4720 O.2    84  TYR84      -0.2864
     13  CB        10.0330  -34.8630  -29.7880 C.3    84  TYR84       0.0560
     14  CG         9.8240  -33.3930  -30.0500 C.ar   84  TYR84      -0.0198
     15  CD1        9.7220  -32.8960  -31.3520 C.ar   84  TYR84      -0.0009
     16  CD2        9.7440  -32.4970  -28.9970 C.ar   84  TYR84      -0.0009
     17  CE1        9.5450  -31.5420  -31.5880 C.ar   84  TYR84       0.0417
     18  CE2        9.5590  -31.1530  -29.2200 C.ar   84  TYR84       0.0417
     19  CZ         9.4660  -30.6760  -30.5160 C.ar   84  TYR84       0.1957
     20  OH         9.2970  -29.3260  -30.7080 O.3    84  TYR84      -0.2866
     21  N         16.5260  -28.7820  -27.2370 N.3    95  ASN95      -0.1226
     22  CA        16.7790  -27.7160  -28.1920 C.3    95  ASN95       0.1770
     23  C         17.8090  -28.0790  -29.2660 C.2    95  ASN95       0.2439
     24  O         18.9320  -28.4690  -28.9560 O.2    95  ASN95      -0.2733
     25  CB        17.2280  -26.4670  -27.4600 C.3    95  ASN95       0.1168
     26  CG        17.2650  -25.2680  -28.3650 C.2    95  ASN95       0.2627
     27  OD1       17.3150  -25.4040  -29.6010 O.2    95  ASN95      -0.2716
     28  ND2       17.2360  -24.0790  -27.7650 N.am   95  ASN95      -0.0877
     29  N         17.4260  -27.9700  -30.5390 N.am   96  PRO96      -0.2718
     30  CA        18.3730  -28.4150  -31.5780 C.3    96  PRO96       0.1535
     31  C         19.3500  -27.3100  -31.9400 C.2    96  PRO96       0.2599
     32  O         20.4400  -27.5860  -32.4180 O.2    96  PRO96      -0.2715
     33  CB        17.4660  -28.7580  -32.7740 C.3    96  PRO96       0.0310
     34  CG        16.2250  -27.9020  -32.5710 C.3    96  PRO96       0.0237
     35  CD        16.0930  -27.6250  -31.0770 C.3    96  PRO96       0.0939
     36  N         18.9530  -26.0700  -31.6720 N.am   97  TYR97      -0.1960
     37  CA        19.7270  -24.8870  -32.0410 C.3    97  TYR97       0.1771
     38  C         19.9560  -24.7230  -33.5620 C.2    97  TYR97       0.2620
     39  O         20.9210  -24.1280  -34.0080 O.2    97  TYR97      -0.2715
     40  CB        21.0280  -24.8290  -31.2530 C.3    97  TYR97       0.0574
     41  CG        20.9060  -24.1670  -29.8970 C.ar   97  TYR97      -0.0198
     42  CD1       21.3930  -24.7940  -28.7550 C.ar   97  TYR97      -0.0009
     43  CD2       20.3250  -22.9110  -29.7570 C.ar   97  TYR97      -0.0009
     44  CE1       21.3040  -24.1990  -27.5140 C.ar   97  TYR97       0.0417
     45  CE2       20.2270  -22.2980  -28.5020 C.ar   97  TYR97       0.0417
     46  CZ        20.7300  -22.9540  -27.3810 C.ar   97  TYR97       0.1957
     47  OH        20.6530  -22.3890  -26.1210 O.3    97  TYR97      -0.2866
     48  N         19.0430  -25.2570  -34.3460 N.am   98  PHE98      -0.1960
     49  CA        19.0040  -24.9800  -35.7610 C.3    98  PHE98       0.1771
     50  C         17.6600  -25.4880  -36.2570 C.2    98  PHE98       0.2620
     51  O         16.9560  -26.2060  -35.5310 O.2    98  PHE98      -0.2715
     52  CB        20.1880  -25.6130  -36.4980 C.3    98  PHE98       0.0574
     53  CG        19.9930  -27.0510  -36.8430 C.ar   98  PHE98      -0.0200
     54  CD1       19.7660  -27.4310  -38.1570 C.ar   98  PHE98      -0.0042
     55  CD2       20.0620  -28.0360  -35.8560 C.ar   98  PHE98      -0.0042
     56  CE1       19.5950  -28.7640  -38.4930 C.ar   98  PHE98      -0.0003
     57  CE2       19.8950  -29.3830  -36.1810 C.ar   98  PHE98      -0.0003
     58  CZ        19.6530  -29.7470  -37.5120 C.ar   98  PHE98      -0.0000
     59  N         17.2860  -25.0780  -37.4660 N.am   99  ASP99      -0.1957
     60  CA        15.9610  -25.3650  -38.0100 C.3    99  ASP99       0.1840
     61  C         15.9360  -26.7100  -38.7140 C.2    99  ASP99       0.2621
     62  O         16.4960  -26.8770  -39.7910 O.2    99  ASP99      -0.2715
     63  CB        15.5270  -24.2420  -38.9470 C.3    99  ASP99       0.1450
     64  CG        15.2210  -22.9510  -38.1980 C.2    99  ASP99       0.3671
     65  OD1       15.5780  -21.8560  -38.6960 O.co2  99  ASP99      -0.2456
     66  OD2       14.6160  -23.0320  -37.1050 O.co2  99  ASP99      -0.2456
     67  N         15.2910  -27.6760  -38.0830 N.am  100  ILE100     -0.1977
     68  CA        15.2350  -29.0230  -38.6290 C.3   100  ILE100      0.1596
     69  C         14.1690  -29.1340  -39.7280 C.2   100  ILE100      0.2287
     70  O         13.0310  -28.6860  -39.5680 O.2   100  ILE100     -0.2864
     71  CB        14.9960  -30.0560  -37.5110 C.3   100  ILE100      0.0276
     72  CG1       16.1750  -30.0320  -36.5310 C.3   100  ILE100      0.0022
     73  CG2       14.8020  -31.4330  -38.1000 C.3   100  ILE100      0.0022
     74  CD1       16.0090  -30.9220  -35.3110 C.3   100  ILE100      0.0001
     75  N          8.1610  -29.0550  -38.6970 N.3   104  TYR104     -0.1241
     76  CA         7.1390  -28.0790  -38.3220 C.3   104  TYR104      0.1605
     77  C          6.2960  -27.5850  -39.5010 C.2   104  TYR104      0.2264
     78  O          5.6090  -26.5670  -39.3950 O.2   104  TYR104     -0.2867
     79  CB         7.7920  -26.8910  -37.6070 C.3   104  TYR104      0.0534
     80  CG         8.5990  -27.3180  -36.4110 C.ar  104  TYR104     -0.0201
     81  CD1        9.9910  -27.3270  -36.4490 C.ar  104  TYR104     -0.0009
     82  CD2        7.9680  -27.7560  -35.2610 C.ar  104  TYR104     -0.0009
     83  CE1       10.7290  -27.7410  -35.3630 C.ar  104  TYR104      0.0417
     84  CE2        8.6870  -28.1700  -34.1740 C.ar  104  TYR104      0.0417
     85  CZ        10.0670  -28.1580  -34.2170 C.ar  104  TYR104      0.1957
     86  OH        10.7720  -28.5800  -33.1070 O.3   104  TYR104     -0.2866
     87  N         15.2350  -24.6420  -18.3350 N.3   149  GLU149     -0.1231
     88  CA        16.0130  -23.4350  -18.0560 C.3   149  GLU149      0.1699
     89  C         16.0050  -22.4410  -19.2070 C.2   149  GLU149      0.2593
     90  O         15.3950  -22.6670  -20.2570 O.2   149  GLU149     -0.2718
     91  CB        17.4410  -23.7220  -17.5820 C.3   149  GLU149      0.0402
     92  CG        18.1470  -24.8920  -18.2160 C.3   149  GLU149      0.1161
     93  CD        19.4190  -25.2880  -17.4440 C.2   149  GLU149      0.3649
     94  OE1       19.3190  -25.6810  -16.2480 O.co2 149  GLU149     -0.2457
     95  OE2       20.5210  -25.1920  -18.0330 O.co2 149  GLU149     -0.2457
     96  N         16.6670  -21.3180  -18.9870 N.am  150  SER150     -0.1938
     97  CA        16.6950  -20.2860  -19.9900 C.3   150  SER150      0.2055
     98  C         17.4570  -20.8090  -21.2070 C.2   150  SER150      0.2644
     99  O         18.5530  -21.3340  -21.0750 O.2   150  SER150     -0.2714
    100  CB        17.3380  -19.0300  -19.4210 C.3   150  SER150      0.2130
    101  OG        17.7270  -18.1670  -20.4820 O.3   150  SER150     -0.2179
    102  N         16.8600  -20.6950  -22.3840 N.am  151  GLY151     -0.1939
    103  CA        17.4920  -21.1670  -23.6020 C.3   151  GLY151      0.2014
    104  C         17.1050  -22.5760  -24.0030 C.2   151  GLY151      0.2639
    105  O         17.5450  -23.0750  -25.0440 O.2   151  GLY151     -0.2714
    106  N         16.2620  -23.2110  -23.1930 N.am  152  ALA152     -0.1963
    107  CA        15.8770  -24.5960  -23.4250 C.3   152  ALA152      0.1728
    108  C         14.8500  -24.7920  -24.5420 C.2   152  ALA152      0.2617
    109  O         14.7290  -25.8880  -25.0630 O.2   152  ALA152     -0.2715
    110  CB        15.3850  -25.2240  -22.1370 C.3   152  ALA152      0.0334
    111  N         14.1010  -23.7510  -24.8970 N.am  153  GLY153     -0.1940
    112  CA        13.1330  -23.8540  -25.9850 C.3   153  GLY153      0.2014
    113  C         11.6570  -23.8000  -25.5920 C.2   153  GLY153      0.2639
    114  O         10.7760  -24.2090  -26.3650 O.2   153  GLY153     -0.2714
    115  N         11.3840  -23.2910  -24.3930 N.am  154  LYS154     -0.1963
    116  CA        10.0270  -23.1930  -23.8840 C.3   154  LYS154      0.1728
    117  C          9.1990  -22.2660  -24.7510 C.2   154  LYS154      0.2617
    118  O          8.0740  -22.5890  -25.1430 O.2   154  LYS154     -0.2715
    119  CB        10.0110  -22.6690  -22.4440 C.3   154  LYS154      0.0311
    120  CG        10.6200  -23.5890  -21.3930 C.3   154  LYS154      0.0038
    121  CD        10.5110  -22.9450  -20.0180 C.3   154  LYS154      0.0206
    122  CE        11.1640  -21.5630  -19.9960 C.3   154  LYS154      0.1093
    123  NZ        12.6150  -21.6470  -20.2880 N.3   154  LYS154     -0.1314
    124  N          9.7470  -21.0950  -25.0420 N.am  155  THR155     -0.1937
    125  CA         9.0080  -20.1410  -25.8420 C.3   155  THR155      0.2028
    126  C          8.7470  -20.6640  -27.2640 C.2   155  THR155      0.2642
    127  O          7.6300  -20.5220  -27.7620 O.2   155  THR155     -0.2714
    128  CB         9.6570  -18.7680  -25.8090 C.3   155  THR155      0.1808
    129  OG1        9.4670  -18.2080  -24.5060 O.3   155  THR155     -0.2208
    130  CG2        9.0150  -17.8410  -26.8260 C.3   155  THR155      0.0379
    131  N          9.7390  -21.3040  -27.8900 N.am  156  GLU156     -0.1963
    132  CA         9.5310  -21.8970  -29.2160 C.3   156  GLU156      0.1733
    133  C          8.5040  -23.0100  -29.1960 C.2   156  GLU156      0.2616
    134  O          7.6530  -23.0920  -30.0870 O.2   156  GLU156     -0.2715
    135  CB        10.8200  -22.4350  -29.8380 C.3   156  GLU156      0.0429
    136  CG        11.8400  -21.3700  -30.1530 C.3   156  GLU156      0.1163
    137  CD        11.2210  -20.1060  -30.7410 C.2   156  GLU156      0.3649
    138  OE1       10.8350  -20.1550  -31.9270 O.co2 156  GLU156     -0.2457
    139  OE2       11.1280  -19.0680  -30.0210 O.co2 156  GLU156     -0.2457
    140  N          8.5710  -23.8830  -28.1960 N.am  157  ASN157     -0.1972
    141  CA         7.6040  -24.9800  -28.1730 C.3   157  ASN157      0.1688
    142  C          6.1950  -24.4980  -27.8480 C.2   157  ASN157      0.2292
    143  O          5.2190  -25.1010  -28.2730 O.2   157  ASN157     -0.2864
    144  CB         8.0620  -26.1400  -27.2880 C.3   157  ASN157      0.1181
    145  CG         9.0190  -27.0510  -28.0180 C.2   157  ASN157      0.2629
    146  OD1        8.6070  -27.9710  -28.7300 O.2   157  ASN157     -0.2716
    147  ND2       10.3070  -26.7670  -27.8930 N.am  157  ASN157     -0.0877
    148  N          4.9280  -23.3660  -31.2800 N.3   160  PHE160     -0.1241
    149  CA         4.4990  -24.5580  -32.0220 C.3   160  PHE160      0.1605
    150  C          3.1240  -25.0650  -31.5790 C.2   160  PHE160      0.2264
    151  O          2.3590  -25.5870  -32.3930 O.2   160  PHE160     -0.2867
    152  CB         5.4840  -25.7120  -31.8810 C.3   160  PHE160      0.0534
    153  CG         6.8710  -25.3860  -32.3170 C.ar  160  PHE160     -0.0203
    154  CD1        7.9630  -25.9720  -31.6850 C.ar  160  PHE160     -0.0042
    155  CD2        7.0960  -24.5010  -33.3520 C.ar  160  PHE160     -0.0042
    156  CE1        9.2440  -25.6710  -32.0760 C.ar  160  PHE160     -0.0003
    157  CE2        8.3850  -24.2000  -33.7460 C.ar  160  PHE160     -0.0003
    158  CZ         9.4560  -24.7890  -33.1100 C.ar  160  PHE160     -0.0000
    159  N         20.4300  -16.7170  -23.4790 N.3   197  ASN197     -0.1225
    160  CA        19.4660  -16.7570  -24.5710 C.3   197  ASN197      0.1785
    161  C         19.3370  -15.3810  -25.2410 C.2   197  ASN197      0.2597
    162  O         19.1270  -14.3700  -24.5680 O.2   197  ASN197     -0.2718
    163  CB        18.1170  -17.2600  -24.0360 C.3   197  ASN197      0.1169
    164  CG        17.0320  -17.3540  -25.1120 C.2   197  ASN197      0.2627
    165  OD1       17.2910  -17.1740  -26.2990 O.2   197  ASN197     -0.2716
    166  ND2       15.8010  -17.6420  -24.6830 N.am  197  ASN197     -0.0877
    167  N         19.4910  -15.3520  -26.5620 N.am  198  ASN198     -0.1960
    168  CA        19.4070  -14.1200  -27.3400 C.3   198  ASN198      0.1819
    169  C         18.0000  -13.5590  -27.3420 C.2   198  ASN198      0.2621
    170  O         17.7960  -12.3810  -27.6290 O.2   198  ASN198     -0.2715
    171  CB        19.8660  -14.3590  -28.7850 C.3   198  ASN198      0.1195
    172  CG        21.3780  -14.4710  -28.9080 C.2   198  ASN198      0.2630
    173  OD1       22.1240  -13.7360  -28.2520 O.2   198  ASN198     -0.2716
    174  ND2       21.8380  -15.3980  -29.7420 N.am  198  ASN198     -0.0877
    175  N         17.0320  -14.4200  -27.0350 N.am  199  ASN199     -0.1958
    176  CA        15.6380  -14.0230  -26.9830 C.3   199  ASN199      0.1819
    177  C         14.9610  -14.4120  -25.6710 C.2   199  ASN199      0.2622
    178  O         13.8170  -14.8750  -25.6690 O.2   199  ASN199     -0.2715
    179  CB        14.8750  -14.6530  -28.1360 C.3   199  ASN199      0.1195
    180  CG        13.4910  -14.0760  -28.2820 C.2   199  ASN199      0.2630
    181  OD1       13.2880  -12.8770  -28.0770 O.2   199  ASN199     -0.2716
    182  ND2       12.5220  -14.9250  -28.6120 N.am  199  ASN199     -0.0877
    183  N         15.6640  -14.2220  -24.5560 N.am  200  SER200     -0.1936
    184  CA        15.1800  -14.6700  -23.2550 C.3   200  SER200      0.2055
    185  C         13.9010  -13.9540  -22.8100 C.2   200  SER200      0.2643
    186  O         13.8310  -12.7130  -22.7990 O.2   200  SER200     -0.2714
    187  CB        16.2600  -14.5090  -22.1870 C.3   200  SER200      0.2130
    188  OG        15.8480  -15.1070  -20.9650 O.3   200  SER200     -0.2179
    189  N         12.8920  -14.7510  -22.4550 N.am  201  SER201     -0.1949
    190  CA        11.6790  -14.2330  -21.8380 C.3   201  SER201      0.1924
    191  C         12.0260  -13.7080  -20.4460 C.2   201  SER201      0.2314
    192  O         12.4510  -14.4660  -19.5860 O.2   201  SER201     -0.2863
    193  CB        10.6230  -15.3380  -21.7520 C.3   201  SER201      0.2116
    194  OG        10.1690  -15.7300  -23.0490 O.3   201  SER201     -0.2180
@<TRIPOS>BOND
     1    62    61    2
     2    69    70    2
     3    69    68    1
     4    77    78    2
     5    77    76    1
     6    63    64    1
     7    63    60    1
     8    61    67   am
     9    61    60    1
    10    75    76    1
    11    65    64   ar
    12    68    67    1
    13    68    71    1
    14    56    54   ar
    15    56    58   ar
    16    76    79    1
    17    64    66   ar
    18    54    53   ar
    19    73    71    1
    20    60    59    1
    21    79    80    1
    22    58    57   ar
    23    71    72    1
    24    59    50   am
    25    53    52    1
    26    53    55   ar
    27    72    74    1
    28    52    49    1
    29    81    80   ar
    30    81    83   ar
    31    80    82   ar
    32    50    49    1
    33    50    51    2
    34    57    55   ar
    35    49    48    1
    36    83    85   ar
    37    82    84   ar
    38    48    38   am
    39    85    84   ar
    40    85    86    1
    41    39    38    2
    42   157   155   ar
    43   157   158   ar
    44    38    37    1
    45   155   153   ar
    46   158   156   ar
    47    33    34    1
    48    33    30    1
    49    34    35    1
    50    32    31    2
    51   151   150    2
    52   153   152    1
    53   153   154   ar
    54   156   154   ar
    55    37    36    1
    56    37    40    1
    57   149   152    1
    58   149   150    1
    59   149   148    1
    60    31    36   am
    61    31    30    1
    62   138   137   ar
    63     7     5    1
    64     1     2    1
    65    17    15   ar
    66    17    19   ar
    67    30    29    1
    68    15    14   ar
    69    40    41    1
    70     8     6    1
    71    35    29    1
    72     6     5    1
    73   137   136    1
    74   137   139   ar
    75    20    19    1
    76     5     2    1
    77    29    23   am
    78    19    18   ar
    79     2     3    1
    80   136   135    1
    81   134   133    2
    82    14    13    1
    83    14    16   ar
    84    41    43   ar
    85    41    42   ar
    86   135   132    1
    87     9     3   am
    88     9    10    1
    89    13    10    1
    90    43    45   ar
    91   174   172   am
    92    27    26    2
    93    12    11    2
    94     3     4    2
    95    23    24    2
    96    23    22    1
    97    18    16   ar
    98   132   133    1
    99   132   131    1
   100   133   140   am
   101    10    11    1
   102   172   171    1
   103   172   173    2
   104   171   168    1
   105    42    44   ar
   106   146   145    2
   107   182   180   am
   108    45    46   ar
   109    26    28   am
   110    26    25    1
   111   180   179    1
   112   180   181    2
   113   143   142    2
   114   140   141    1
   115    22    25    1
   116    22    21    1
   117   141   142    1
   118   141   144    1
   119   179   176    1
   120   145   147   am
   121   145   144    1
   122   131   126   am
   123   127   126    2
   124   170   169    2
   125    44    46   ar
   126    46    47    1
   127   169   168    1
   128   169   175   am
   129   168   167    1
   130   126   125    1
   131   175   176    1
   132   176   177    1
   133   130   128    1
   134   167   161   am
   135   114   113    2
   136   165   164    2
   137   112   113    1
   138   112   111    1
   139   125   128    1
   140   125   124    1
   141   128   129    1
   142   177   178    2
   143   177   183   am
   144   113   115   am
   145   161   160    1
   146   161   162    2
   147   118   117    2
   148   164   166   am
   149   164   163    1
   150   109   108    2
   151   105   104    2
   152   124   117   am
   153   111   108   am
   154   117   116    1
   155   160   163    1
   156   160   159    1
   157   183   184    1
   158   108   107    1
   159   115   116    1
   160   104   103    1
   161   104   106   am
   162   116   119    1
   163   103   102    1
   164   107   106    1
   165   107   110    1
   166   184   185    1
   167   184   187    1
   168   194   193    1
   169   185   186    2
   170   185   189   am
   171   189   190    1
   172   119   120    1
   173   102    98   am
   174   187   188    1
   175   190   193    1
   176   190   191    1
   177   120   121    1
   178    98    99    2
   179    98    97    1
   180   101   100    1
   181   191   192    2
   182   123   122    1
   183    90    89    2
   184   121   122    1
   185    97   100    1
   186    97    96    1
   187    89    96   am
   188    89    88    1
   189    87    88    1
   190    92    91    1
   191    92    93    1
   192    88    91    1
   193    95    93   ar
   194    93    94   ar
