@<TRIPOS>MOLECULE
tmp/4dbsB01.pdb
 166 166 0 0 0
SMALL
GASTEIGER

@<TRIPOS>ATOM
      1  N         25.2480   -5.0290  -21.8860 N.3    19  TYR19      -0.1241
      2  CA        26.5550   -4.7430  -22.4710 C.3    19  TYR19       0.1605
      3  C         27.3150   -6.0110  -22.8530 C.2    19  TYR19       0.2264
      4  O         27.4490   -6.9320  -22.0520 O.2    19  TYR19      -0.2867
      5  CB        27.4510   -3.8590  -21.5900 C.3    19  TYR19       0.0534
      6  CG        28.7640   -3.5890  -22.2940 C.ar   19  TYR19      -0.0201
      7  CD1       28.8380   -2.6570  -23.3260 C.ar   19  TYR19      -0.0009
      8  CD2       29.9100   -4.3070  -21.9770 C.ar   19  TYR19      -0.0009
      9  CE1       30.0180   -2.4260  -24.0050 C.ar   19  TYR19       0.0417
     10  CE2       31.1030   -4.0760  -22.6440 C.ar   19  TYR19       0.0417
     11  CZ        31.1470   -3.1350  -23.6610 C.ar   19  TYR19       0.1957
     12  OH        32.3230   -2.9020  -24.3370 O.3    19  TYR19      -0.2866
     13  N         26.3160    4.1430  -24.6440 N.3    49  LEU49      -0.1231
     14  CA        27.6450    3.5400  -24.6820 C.3    49  LEU49       0.1693
     15  C         27.6490    2.1250  -25.2650 C.2    49  LEU49       0.2592
     16  O         28.6320    1.7050  -25.8800 O.2    49  LEU49      -0.2718
     17  CB        28.2410    3.4810  -23.2740 C.3    49  LEU49       0.0284
     18  CG        29.6330    2.8520  -23.1840 C.3    49  LEU49       0.0019
     19  CD1       30.6830    3.7870  -23.7680 C.3    49  LEU49       0.0001
     20  CD2       29.9830    2.4810  -21.7500 C.3    49  LEU49       0.0001
     21  N         26.5630    1.3860  -25.0620 N.am   50  TYR50      -0.1976
     22  CA        26.5740   -0.0480  -25.3700 C.3    50  TYR50       0.1639
     23  C         26.4490   -0.3430  -26.8630 C.2    50  TYR50       0.2290
     24  O         26.6240   -1.4830  -27.2940 O.2    50  TYR50      -0.2864
     25  CB        25.4840   -0.7880  -24.5970 C.3    50  TYR50       0.0560
     26  CG        25.5680   -0.6010  -23.0970 C.ar   50  TYR50      -0.0198
     27  CD1       24.5540   -1.0560  -22.2630 C.ar   50  TYR50      -0.0009
     28  CD2       26.6660    0.0250  -22.5150 C.ar   50  TYR50      -0.0009
     29  CE1       24.6280   -0.8790  -20.8900 C.ar   50  TYR50       0.0417
     30  CE2       26.7470    0.2030  -21.1400 C.ar   50  TYR50       0.0417
     31  CZ        25.7250   -0.2480  -20.3370 C.ar   50  TYR50       0.1957
     32  OH        25.7920   -0.0680  -18.9680 O.3    50  TYR50      -0.2866
     33  N         25.2500    8.4020  -17.0240 N.3   112  HIS112     -0.1226
     34  CA        26.0460    7.1800  -17.0140 C.3   112  HIS112      0.1752
     35  C         27.2460    7.3080  -16.0850 C.2   112  HIS112      0.2596
     36  O         27.6370    6.3570  -15.3950 O.2   112  HIS112     -0.2718
     37  CB        26.5160    6.8560  -18.4350 C.3   112  HIS112      0.0759
     38  CG        26.8860    5.4200  -18.6430 C.ar  112  HIS112      0.0818
     39  ND1       26.5660    4.7290  -19.7960 N.ar  112  HIS112     -0.2268
     40  CD2       27.5480    4.5410  -17.8510 C.ar  112  HIS112      0.1154
     41  CE1       27.0160    3.4900  -19.7030 C.ar  112  HIS112      0.1986
     42  NE2       27.6140    3.3480  -18.5340 N.ar  112  HIS112     -0.2212
     43  N         27.8320    8.4950  -16.0690 N.am  113  SER113     -0.1952
     44  CA        29.0390    8.7240  -15.2990 C.3   113  SER113      0.1924
     45  C         29.1680   10.2060  -14.9770 C.2   113  SER113      0.2314
     46  O         28.6840   11.0490  -15.7310 O.2   113  SER113     -0.2863
     47  CB        30.2570    8.2410  -16.0790 C.3   113  SER113      0.2116
     48  OG        31.4580    8.5520  -15.3960 O.3   113  SER113     -0.2180
     49  N         31.9570   11.6150  -14.8660 N.3   115  MET115     -0.1245
     50  CA        33.1890   12.0300  -15.5260 C.3   115  MET115      0.1570
     51  C         32.9660   12.5350  -16.9540 C.2   115  MET115      0.2261
     52  O         33.0360   11.7710  -17.9240 O.2   115  MET115     -0.2867
     53  CB        34.2260   10.9070  -15.4600 C.3   115  MET115      0.0387
     54  CG        34.7610   10.6900  -14.0520 C.3   115  MET115      0.0595
     55  SD        35.8690    9.2780  -13.8840 S.3   115  MET115     -0.1393
     56  CE        34.7240    7.9190  -14.1130 C.3   115  MET115      0.0692
     57  N         27.3890    5.6480  -11.0340 N.3   162  ASN162     -0.1240
     58  CA        28.7930    5.8500  -10.6930 C.3   162  ASN162      0.1653
     59  C         29.0770    7.1310   -9.8970 C.2   162  ASN162      0.2266
     60  O         30.2110    7.6130   -9.8650 O.2   162  ASN162     -0.2867
     61  CB        29.6490    5.7760  -11.9550 C.3   162  ASN162      0.1155
     62  CG        29.5850    4.4060  -12.6030 C.2   162  ASN162      0.2627
     63  OD1       29.8290    3.3970  -11.9470 O.2   162  ASN162     -0.2716
     64  ND2       29.2380    4.3630  -13.8860 N.am  162  ASN162     -0.0877
     65  N         23.2030    3.8380   -9.8740 N.3   185  GLN185     -0.1245
     66  CA        23.6970    2.5470  -10.3530 C.3   185  GLN185      0.1566
     67  C         25.2190    2.4850  -10.2280 C.2   185  GLN185      0.2260
     68  O         25.9360    3.2680  -10.8580 O.2   185  GLN185     -0.2867
     69  CB        23.2620    2.2890  -11.7990 C.3   185  GLN185      0.0367
     70  CG        23.7170    0.9370  -12.3220 C.3   185  GLN185      0.0905
     71  CD        23.3220    0.6860  -13.7760 C.2   185  GLN185      0.2608
     72  OE1       24.1730    0.3980  -14.6150 O.2   185  GLN185     -0.2717
     73  NE2       22.0300    0.7930  -14.0740 N.am  185  GLN185     -0.0878
     74  N         25.6970   -3.1190  -10.4310 N.3   211  TYR211     -0.1241
     75  CA        26.2460   -3.7640  -11.6140 C.3   211  TYR211      0.1605
     76  C         27.5250   -4.5020  -11.2460 C.2   211  TYR211      0.2264
     77  O         28.0990   -4.2680  -10.1790 O.2   211  TYR211     -0.2867
     78  CB        26.4790   -2.7640  -12.7600 C.3   211  TYR211      0.0534
     79  CG        27.6200   -1.7710  -12.5730 C.ar  211  TYR211     -0.0201
     80  CD1       27.3660   -0.4080  -12.4680 C.ar  211  TYR211     -0.0009
     81  CD2       28.9430   -2.1910  -12.5540 C.ar  211  TYR211     -0.0009
     82  CE1       28.3980    0.5110  -12.3200 C.ar  211  TYR211      0.0417
     83  CE2       29.9850   -1.2770  -12.4110 C.ar  211  TYR211      0.0417
     84  CZ        29.7000    0.0680  -12.2940 C.ar  211  TYR211      0.1957
     85  OH        30.7190    0.9730  -12.1510 O.3   211  TYR211     -0.2866
     86  N         39.9520   -3.1290  -18.6580 N.3   222  TRP222     -0.1241
     87  CA        39.8700   -2.4420  -17.3700 C.3   222  TRP222      0.1605
     88  C         40.1250   -3.3370  -16.1620 C.2   222  TRP222      0.2264
     89  O         40.5440   -2.8550  -15.1030 O.2   222  TRP222     -0.2867
     90  CB        38.5130   -1.7590  -17.2020 C.3   222  TRP222      0.0550
     91  CG        38.0980   -0.9230  -18.3660 C.ar  222  TRP222      0.0003
     92  CD1       38.4860    0.3590  -18.6460 C.ar  222  TRP222      0.0946
     93  CD2       37.1950   -1.3060  -19.4070 C.ar  222  TRP222      0.0152
     94  NE1       37.8820    0.7930  -19.8040 N.ar  222  TRP222     -0.2442
     95  CE2       37.0850   -0.2110  -20.2900 C.ar  222  TRP222      0.0810
     96  CE3       36.4690   -2.4680  -19.6790 C.ar  222  TRP222      0.0012
     97  CZ2       36.2800   -0.2480  -21.4210 C.ar  222  TRP222      0.0191
     98  CZ3       35.6740   -2.5020  -20.7990 C.ar  222  TRP222      0.0001
     99  CH2       35.5840   -1.4030  -21.6590 C.ar  222  TRP222      0.0015
    100  N         36.7320   -2.5330  -12.0900 N.3   301  PHE301     -0.1227
    101  CA        37.0540   -1.5290  -13.0930 C.3   301  PHE301      0.1736
    102  C         38.0970   -0.5570  -12.5640 C.2   301  PHE301      0.2595
    103  O         37.8620    0.1420  -11.5810 O.2   301  PHE301     -0.2718
    104  CB        35.7980   -0.7630  -13.5100 C.3   301  PHE301      0.0547
    105  CG        34.8120   -1.5940  -14.2770 C.ar  301  PHE301     -0.0202
    106  CD1       33.8360   -2.3260  -13.6150 C.ar  301  PHE301     -0.0042
    107  CD2       34.8630   -1.6480  -15.6610 C.ar  301  PHE301     -0.0042
    108  CE1       32.9280   -3.0930  -14.3230 C.ar  301  PHE301     -0.0003
    109  CE2       33.9590   -2.4130  -16.3730 C.ar  301  PHE301     -0.0003
    110  CZ        32.9920   -3.1360  -15.7030 C.ar  301  PHE301     -0.0000
    111  N         39.2490   -0.5210  -13.2250 N.am  302  ASN302     -0.1960
    112  CA        40.2880    0.4500  -12.9110 C.3   302  ASN302      0.1819
    113  C         40.7290    1.2070  -14.1550 C.2   302  ASN302      0.2622
    114  O         40.6790    0.6750  -15.2600 O.2   302  ASN302     -0.2715
    115  CB        41.4950   -0.2370  -12.2710 C.3   302  ASN302      0.1195
    116  CG        41.2220   -0.6930  -10.8530 C.2   302  ASN302      0.2630
    117  OD1       41.4800    0.0360   -9.8920 O.2   302  ASN302     -0.2716
    118  ND2       40.6970   -1.9040  -10.7120 N.am  302  ASN302     -0.0877
    119  N         41.1570    2.4520  -13.9700 N.am  303  SER303     -0.1950
    120  CA        41.6810    3.2570  -15.0700 C.3   303  SER303      0.1924
    121  C         42.5970    4.3640  -14.5580 C.2   303  SER303      0.2314
    122  O         42.1280    5.3660  -14.0190 O.2   303  SER303     -0.2863
    123  CB        40.5420    3.8580  -15.8950 C.3   303  SER303      0.2116
    124  OG        41.0250    4.8720  -16.7610 O.3   303  SER303     -0.2180
    125  N         41.5420    7.9040  -15.9060 N.3   306  PHE306     -0.1241
    126  CA        40.3880    8.5710  -15.3200 C.3   306  PHE306      0.1605
    127  C         40.5360    8.7710  -13.8230 C.2   306  PHE306      0.2264
    128  O         39.7420    9.4760  -13.2000 O.2   306  PHE306     -0.2867
    129  CB        39.1100    7.8130  -15.6530 C.3   306  PHE306      0.0534
    130  CG        38.6440    8.0400  -17.0490 C.ar  306  PHE306     -0.0203
    131  CD1       39.2750    7.4170  -18.1110 C.ar  306  PHE306     -0.0042
    132  CD2       37.5940    8.9000  -17.3070 C.ar  306  PHE306     -0.0042
    133  CE1       38.8590    7.6370  -19.4090 C.ar  306  PHE306     -0.0003
    134  CE2       37.1700    9.1250  -18.6010 C.ar  306  PHE306     -0.0003
    135  CZ        37.8030    8.4910  -19.6550 C.ar  306  PHE306     -0.0000
    136  N         36.2980   11.9440  -10.5570 N.3   312  TYR312     -0.1228
    137  CA        36.5820   10.5350  -10.3210 C.3   312  TYR312      0.1721
    138  C         35.8940   10.0900   -9.0330 C.2   312  TYR312      0.2437
    139  O         36.1750   10.6220   -7.9620 O.2   312  TYR312     -0.2733
    140  CB        38.0900   10.3060  -10.2420 C.3   312  TYR312      0.0547
    141  CG        38.4940    8.8560  -10.1140 C.ar  312  TYR312     -0.0200
    142  CD1       38.1930    7.9390  -11.1150 C.ar  312  TYR312     -0.0009
    143  CD2       39.1910    8.4060   -9.0020 C.ar  312  TYR312     -0.0009
    144  CE1       38.5660    6.6180  -11.0090 C.ar  312  TYR312      0.0417
    145  CE2       39.5690    7.0840   -8.8840 C.ar  312  TYR312      0.0417
    146  CZ        39.2540    6.1920   -9.8870 C.ar  312  TYR312      0.1957
    147  OH        39.6310    4.8710   -9.7700 O.3   312  TYR312     -0.2866
    148  N         34.9860    9.1090   -9.1340 N.am  313  PRO313     -0.2718
    149  CA        34.1380    8.7330   -7.9980 C.3   313  PRO313      0.1535
    150  C         34.8560    7.9600   -6.8950 C.2   313  PRO313      0.2598
    151  O         34.3520    7.9180   -5.7720 O.2   313  PRO313     -0.2715
    152  CB        33.0810    7.8340   -8.6460 C.3   313  PRO313      0.0310
    153  CG        33.7760    7.2360   -9.8090 C.3   313  PRO313      0.0237
    154  CD        34.6540    8.3350  -10.3440 C.3   313  PRO313      0.0939
    155  N         35.9990    7.3550   -7.1970 N.am  314  TYR314     -0.1974
    156  CA        36.6150    6.4220   -6.2530 C.3   314  TYR314      0.1639
    157  C         37.7540    7.0000   -5.4060 C.2   314  TYR314      0.2290
    158  O         38.6020    6.2520   -4.9160 O.2   314  TYR314     -0.2864
    159  CB        37.0940    5.1570   -6.9730 C.3   314  TYR314      0.0560
    160  CG        35.9770    4.2910   -7.5260 C.ar  314  TYR314     -0.0198
    161  CD1       34.8400    4.0260   -6.7760 C.ar  314  TYR314     -0.0009
    162  CD2       36.0730    3.7220   -8.7890 C.ar  314  TYR314     -0.0009
    163  CE1       33.8200    3.2280   -7.2740 C.ar  314  TYR314      0.0417
    164  CE2       35.0580    2.9230   -9.2970 C.ar  314  TYR314      0.0417
    165  CZ        33.9350    2.6790   -8.5340 C.ar  314  TYR314      0.1957
    166  OH        32.9240    1.8760   -9.0260 O.3   314  TYR314     -0.2866
@<TRIPOS>BOND
     1    24    23    2
     2    23    22    1
     3    16    15    2
     4    22    21    1
     5    22    25    1
     6    15    21   am
     7    15    14    1
     8    14    13    1
     9    14    17    1
    10    25    26    1
    11    12    11    1
    12     9    11   ar
    13     9     7   ar
    14    19    18    1
    15    11    10   ar
    16     7     6   ar
    17    17    18    1
    18    18    20    1
    19    26    28   ar
    20    26    27   ar
    21     3     2    1
    22     3     4    2
    23    10     8   ar
    24    28    30   ar
    25     2     1    1
    26     2     5    1
    27     6     8   ar
    28     6     5    1
    29    27    29   ar
    30    99    97   ar
    31    99    98   ar
    32    97    95   ar
    33    30    31   ar
    34    29    31   ar
    35    98    96   ar
    36    31    32    1
    37    95    94   ar
    38    95    93   ar
    39    94    92   ar
    40    39    41   ar
    41    39    38   ar
    42    41    42   ar
    43    96    93   ar
    44   135   133   ar
    45   135   134   ar
    46   133   131   ar
    47    93    91   ar
    48    86    87    1
    49    92    91   ar
    50    38    37    1
    51    38    40   ar
    52   134   132   ar
    53    42    40   ar
    54    37    34    1
    55    91    90    1
    56   131   130   ar
    57    52    51    2
    58    87    90    1
    59    87    88    1
    60   132   130   ar
    61   130   129    1
    62    33    34    1
    63    34    35    1
    64    51    50    1
    65   124   123    1
    66   109   110   ar
    67   109   107   ar
    68    88    89    2
    69    35    43   am
    70    35    36    2
    71    47    48    1
    72    47    44    1
    73    43    44    1
    74   125   126    1
    75   123   120    1
    76    46    45    2
    77   110   108   ar
    78   107   105   ar
    79   129   126    1
    80    50    53    1
    81    50    49    1
    82    53    54    1
    83   126   127    1
    84    44    45    1
    85   114   113    2
    86   120   121    1
    87   120   119    1
    88    72    71    2
    89   121   122    2
    90   108   106   ar
    91   105   106   ar
    92   105   104    1
    93   113   119   am
    94   113   112    1
    95    56    55    1
    96    73    71   am
    97    54    55    1
    98    64    62   am
    99   127   128    2
   100    71    70    1
   101   104   101    1
   102   111   112    1
   103   111   102   am
   104   101   102    1
   105   101   100    1
   106   112   115    1
   107    78    79    1
   108    78    75    1
   109    62    61    1
   110    62    63    2
   111    79    81   ar
   112    79    80   ar
   113   102   103    2
   114    81    83   ar
   115    80    82   ar
   116    83    84   ar
   117    70    69    1
   118    82    84   ar
   119    84    85    1
   120   115   116    1
   121    61    58    1
   122    69    66    1
   123    75    76    1
   124    75    74    1
   125    76    77    2
   126   142   144   ar
   127   142   141   ar
   128    57    58    1
   129   144   146   ar
   130    68    67    2
   131   116   118   am
   132   116   117    2
   133    58    59    1
   134   136   137    1
   135    66    67    1
   136    66    65    1
   137   154   153    1
   138   154   148    1
   139   137   140    1
   140   137   138    1
   141   140   141    1
   142   141   143   ar
   143    59    60    2
   144   146   147    1
   145   146   145   ar
   146   153   152    1
   147   164   162   ar
   148   164   165   ar
   149   148   138   am
   150   148   149    1
   151   138   139    2
   152   166   165    1
   153   143   145   ar
   154   162   160   ar
   155   152   149    1
   156   165   163   ar
   157   149   150    1
   158   160   159    1
   159   160   161   ar
   160   163   161   ar
   161   155   150   am
   162   155   156    1
   163   159   156    1
   164   150   151    2
   165   156   157    1
   166   157   158    2
