@<TRIPOS>MOLECULE
tmp/4dbuB01.pdb
 175 175 0 0 0
SMALL
GASTEIGER

@<TRIPOS>ATOM
      1  N         -9.8120   50.5790  -21.9480 N.3    19  TYR19      -0.1241
      2  CA       -11.0980   50.2620  -22.5610 C.3    19  TYR19       0.1605
      3  C        -11.9160   51.4940  -22.9470 C.2    19  TYR19       0.2264
      4  O        -12.0440   52.4450  -22.1720 O.2    19  TYR19      -0.2867
      5  CB       -11.9410   49.3340  -21.6840 C.3    19  TYR19       0.0534
      6  CG       -13.3240   49.1260  -22.2560 C.ar   19  TYR19      -0.0201
      7  CD1      -13.5370   48.2300  -23.2950 C.ar   19  TYR19      -0.0009
      8  CD2      -14.4100   49.8490  -21.7800 C.ar   19  TYR19      -0.0009
      9  CE1      -14.7970   48.0460  -23.8340 C.ar   19  TYR19       0.0417
     10  CE2      -15.6750   49.6720  -22.3110 C.ar   19  TYR19       0.0417
     11  CZ       -15.8620   48.7700  -23.3370 C.ar   19  TYR19       0.1957
     12  OH       -17.1180   48.5920  -23.8670 O.3    19  TYR19      -0.2866
     13  N        -10.8190   41.5270  -24.7190 N.3    49  LEU49      -0.1231
     14  CA       -12.1650   42.0760  -24.7530 C.3    49  LEU49       0.1693
     15  C        -12.1800   43.5100  -25.2700 C.2    49  LEU49       0.2592
     16  O        -13.1660   43.9500  -25.8600 O.2    49  LEU49      -0.2718
     17  CB       -12.7770   42.0250  -23.3540 C.3    49  LEU49       0.0284
     18  CG       -14.1980   42.5580  -23.1860 C.3    49  LEU49       0.0019
     19  CD1      -15.2020   41.6020  -23.8150 C.3    49  LEU49       0.0001
     20  CD2      -14.5110   42.7710  -21.7160 C.3    49  LEU49       0.0001
     21  N        -11.0800   44.2280  -25.0600 N.am   50  TYR50      -0.1976
     22  CA       -11.0120   45.6470  -25.4080 C.3    50  TYR50       0.1639
     23  C        -10.8330   45.8860  -26.9040 C.2    50  TYR50       0.2290
     24  O        -11.0140   47.0070  -27.3810 O.2    50  TYR50      -0.2864
     25  CB        -9.8880   46.3460  -24.6400 C.3    50  TYR50       0.0560
     26  CG        -9.9930   46.2230  -23.1390 C.ar   50  TYR50      -0.0198
     27  CD1       -8.9900   46.7110  -22.3130 C.ar   50  TYR50      -0.0009
     28  CD2      -11.0930   45.6160  -22.5470 C.ar   50  TYR50      -0.0009
     29  CE1       -9.0790   46.5960  -20.9420 C.ar   50  TYR50       0.0417
     30  CE2      -11.1920   45.4980  -21.1790 C.ar   50  TYR50       0.0417
     31  CZ       -10.1820   45.9900  -20.3790 C.ar   50  TYR50       0.1957
     32  OH       -10.2750   45.8700  -19.0120 O.3    50  TYR50      -0.2866
     33  N         -5.7480   40.2150  -20.6740 N.3    79  LYS79      -0.1245
     34  CA        -6.6250   39.2780  -19.9820 C.3    79  LYS79       0.1561
     35  C         -7.1870   38.1970  -20.9010 C.2    79  LYS79       0.2260
     36  O         -7.5450   38.4650  -22.0490 O.2    79  LYS79      -0.2867
     37  CB        -7.7790   40.0270  -19.3120 C.3    79  LYS79       0.0271
     38  CG        -7.3550   41.2450  -18.5120 C.3    79  LYS79       0.0035
     39  CD        -8.5440   41.8840  -17.8090 C.3    79  LYS79       0.0206
     40  CE        -8.1990   43.2660  -17.2830 C.3    79  LYS79       0.1093
     41  NZ        -7.9240   44.2300  -18.3860 N.3    79  LYS79      -0.1314
     42  N        -10.0940   36.1930  -22.0400 N.3    81  TRP81      -0.1241
     43  CA       -11.5420   36.3490  -21.9820 C.3    81  TRP81       0.1605
     44  C        -12.2380   35.0210  -21.6750 C.2    81  TRP81       0.2264
     45  O        -11.6560   33.9490  -21.8510 O.2    81  TRP81      -0.2867
     46  CB       -12.0810   36.9680  -23.2700 C.3    81  TRP81       0.0550
     47  CG       -13.5500   37.2180  -23.2240 C.ar   81  TRP81       0.0003
     48  CD1      -14.4850   36.7730  -24.1110 C.ar   81  TRP81       0.0946
     49  CD2      -14.2650   37.9530  -22.2220 C.ar   81  TRP81       0.0152
     50  NE1      -15.7360   37.1960  -23.7320 N.ar   81  TRP81      -0.2442
     51  CE2      -15.6300   37.9190  -22.5750 C.ar   81  TRP81       0.0810
     52  CE3      -13.8840   38.6390  -21.0650 C.ar   81  TRP81       0.0012
     53  CZ2      -16.6150   38.5490  -21.8120 C.ar   81  TRP81       0.0191
     54  CZ3      -14.8630   39.2610  -20.3090 C.ar   81  TRP81       0.0001
     55  CH2      -16.2120   39.2120  -20.6860 C.ar   81  TRP81       0.0015
     56  N         -9.6720   37.2240  -16.9310 N.3   112  HIS112     -0.1226
     57  CA       -10.5570   38.3850  -16.9430 C.3   112  HIS112      0.1752
     58  C        -11.7730   38.2140  -16.0420 C.2   112  HIS112      0.2596
     59  O        -12.1900   39.1510  -15.3640 O.2   112  HIS112     -0.2718
     60  CB       -11.0230   38.6890  -18.3690 C.3   112  HIS112      0.0759
     61  CG       -11.5130   40.0910  -18.5540 C.ar  112  HIS112      0.0818
     62  ND1      -11.0120   40.9330  -19.5240 N.ar  112  HIS112     -0.2268
     63  CD2      -12.4440   40.8060  -17.8800 C.ar  112  HIS112      0.1154
     64  CE1      -11.6210   42.1030  -19.4450 C.ar  112  HIS112      0.1986
     65  NE2      -12.4930   42.0530  -18.4550 N.ar  112  HIS112     -0.2212
     66  N        -12.3450   37.0160  -16.0460 N.am  113  SER113     -0.1952
     67  CA       -13.5620   36.7640  -15.2880 C.3   113  SER113      0.1924
     68  C        -13.6840   35.2880  -14.9430 C.2   113  SER113      0.2314
     69  O        -13.1340   34.4390  -15.6420 O.2   113  SER113     -0.2863
     70  CB       -14.7850   37.2240  -16.0870 C.3   113  SER113      0.2116
     71  OG       -15.9630   37.1930  -15.2970 O.3   113  SER113     -0.2180
     72  N        -16.7090   33.7780  -14.6280 N.3   115  MET115     -0.1245
     73  CA       -17.8730   33.2960  -15.3570 C.3   115  MET115      0.1570
     74  C        -17.5230   32.8680  -16.7800 C.2   115  MET115      0.2261
     75  O        -17.4050   33.6990  -17.6800 O.2   115  MET115     -0.2867
     76  CB       -18.9750   34.3560  -15.3580 C.3   115  MET115      0.0387
     77  CG       -19.4370   34.7400  -13.9650 C.3   115  MET115      0.0595
     78  SD       -20.7500   35.9690  -13.9560 S.3   115  MET115     -0.1393
     79  CE       -19.9200   37.3660  -14.7110 C.3   115  MET115      0.0692
     80  N        -12.1940   39.9610  -11.0710 N.3   162  ASN162     -0.1240
     81  CA       -13.5970   39.7590  -10.7320 C.3   162  ASN162      0.1653
     82  C        -13.8410   38.5010   -9.8990 C.2   162  ASN162      0.2266
     83  O        -14.9210   37.9130   -9.9450 O.2   162  ASN162     -0.2867
     84  CB       -14.4570   39.7510  -11.9990 C.3   162  ASN162      0.1155
     85  CG       -14.5210   41.1100  -12.6630 C.2   162  ASN162      0.2627
     86  OD1      -14.5680   42.1370  -11.9890 O.2   162  ASN162     -0.2716
     87  ND2      -14.5300   41.1220  -13.9920 N.am  162  ASN162     -0.0877
     88  N         -7.9770   41.7850   -9.9390 N.3   185  GLN185     -0.1245
     89  CA        -8.5350   43.0320  -10.4430 C.3   185  GLN185      0.1566
     90  C        -10.0520   43.0360  -10.3240 C.2   185  GLN185      0.2260
     91  O        -10.7390   42.2720  -11.0000 O.2   185  GLN185     -0.2867
     92  CB        -8.1090   43.2590  -11.8940 C.3   185  GLN185      0.0367
     93  CG        -8.5540   44.5910  -12.4630 C.3   185  GLN185      0.0905
     94  CD        -7.9630   44.8740  -13.8330 C.2   185  GLN185      0.2608
     95  OE1       -8.6840   44.9420  -14.8290 O.2   185  GLN185     -0.2717
     96  NE2       -6.6450   45.0480  -13.8880 N.am  185  GLN185     -0.0878
     97  N        -10.6000   48.9060  -10.3270 N.3   211  TYR211     -0.1241
     98  CA       -11.0520   49.5630  -11.5440 C.3   211  TYR211      0.1605
     99  C        -12.3660   50.2800  -11.2810 C.2   211  TYR211      0.2264
    100  O        -12.9690   50.1120  -10.2200 O.2   211  TYR211     -0.2867
    101  CB       -11.1770   48.5800  -12.7140 C.3   211  TYR211      0.0534
    102  CG       -12.2920   47.5550  -12.6020 C.ar  211  TYR211     -0.0201
    103  CD1      -12.0040   46.2030  -12.4540 C.ar  211  TYR211     -0.0009
    104  CD2      -13.6280   47.9350  -12.6670 C.ar  211  TYR211     -0.0009
    105  CE1      -13.0150   45.2590  -12.3650 C.ar  211  TYR211      0.0417
    106  CE2      -14.6410   47.0040  -12.5750 C.ar  211  TYR211      0.0417
    107  CZ       -14.3290   45.6660  -12.4240 C.ar  211  TYR211      0.1957
    108  OH       -15.3360   44.7340  -12.3330 O.3   211  TYR211     -0.2866
    109  N        -24.4620   49.1970  -19.4820 N.3   222  TRP222     -0.1241
    110  CA       -24.1460   48.4690  -18.2540 C.3   222  TRP222      0.1605
    111  C        -24.4570   49.2390  -16.9720 C.2   222  TRP222      0.2264
    112  O        -24.5220   48.6480  -15.8920 O.2   222  TRP222     -0.2867
    113  CB       -22.6740   48.0430  -18.2420 C.3   222  TRP222      0.0550
    114  CG       -22.4290   46.6900  -18.8340 C.ar  222  TRP222      0.0003
    115  CD1      -22.9530   45.5010  -18.4070 C.ar  222  TRP222      0.0946
    116  CD2      -21.5840   46.3770  -19.9440 C.ar  222  TRP222      0.0152
    117  NE1      -22.4940   44.4710  -19.1910 N.ar  222  TRP222     -0.2442
    118  CE2      -21.6460   44.9830  -20.1480 C.ar  222  TRP222      0.0810
    119  CE3      -20.7760   47.1410  -20.7970 C.ar  222  TRP222      0.0012
    120  CZ2      -20.9410   44.3340  -21.1580 C.ar  222  TRP222      0.0191
    121  CZ3      -20.0750   46.4990  -21.8030 C.ar  222  TRP222      0.0001
    122  CH2      -20.1620   45.1090  -21.9750 C.ar  222  TRP222      0.0015
    123  N        -20.8160   48.5170  -12.9240 N.3   301  PHE301     -0.1241
    124  CA       -21.0820   47.4520  -13.8760 C.3   301  PHE301      0.1605
    125  C        -22.2170   46.6220  -13.3010 C.2   301  PHE301      0.2264
    126  O        -22.0130   45.8330  -12.3760 O.2   301  PHE301     -0.2867
    127  CB       -19.8540   46.5720  -14.0940 C.3   301  PHE301      0.0534
    128  CG       -20.1430   45.3270  -14.8810 C.ar  301  PHE301     -0.0203
    129  CD1      -20.0600   45.3290  -16.2620 C.ar  301  PHE301     -0.0042
    130  CD2      -20.5190   44.1570  -14.2390 C.ar  301  PHE301     -0.0042
    131  CE1      -20.3360   44.1840  -16.9870 C.ar  301  PHE301     -0.0003
    132  CE2      -20.7960   43.0100  -14.9580 C.ar  301  PHE301     -0.0003
    133  CZ       -20.7040   43.0230  -16.3320 C.ar  301  PHE301     -0.0000
    134  N        -25.9060   37.9120  -15.5030 N.3   306  PHE306     -0.1241
    135  CA       -24.8690   36.9510  -15.1560 C.3   306  PHE306      0.1605
    136  C        -25.1050   36.3800  -13.7610 C.2   306  PHE306      0.2264
    137  O        -24.2620   35.6590  -13.2300 O.2   306  PHE306     -0.2867
    138  CB       -23.4880   37.6090  -15.2130 C.3   306  PHE306      0.0534
    139  CG       -22.9840   37.8580  -16.6080 C.ar  306  PHE306     -0.0203
    140  CD1      -23.2930   39.0320  -17.2720 C.ar  306  PHE306     -0.0042
    141  CD2      -22.1900   36.9210  -17.2500 C.ar  306  PHE306     -0.0042
    142  CE1      -22.8260   39.2660  -18.5530 C.ar  306  PHE306     -0.0003
    143  CE2      -21.7170   37.1500  -18.5300 C.ar  306  PHE306     -0.0003
    144  CZ       -22.0370   38.3230  -19.1820 C.ar  306  PHE306     -0.0000
    145  N        -21.1090   33.2680  -10.5880 N.3   312  TYR312     -0.1228
    146  CA       -21.4480   34.6490  -10.2660 C.3   312  TYR312      0.1721
    147  C        -20.7410   35.0690   -8.9840 C.2   312  TYR312      0.2437
    148  O        -21.0760   34.5930   -7.8990 O.2   312  TYR312     -0.2733
    149  CB       -22.9620   34.8070  -10.1130 C.3   312  TYR312      0.0547
    150  CG       -23.4280   36.2430  -10.0220 C.ar  312  TYR312     -0.0200
    151  CD1      -23.0910   37.1640  -11.0060 C.ar  312  TYR312     -0.0009
    152  CD2      -24.2190   36.6750   -8.9650 C.ar  312  TYR312     -0.0009
    153  CE1      -23.5170   38.4740  -10.9360 C.ar  312  TYR312      0.0417
    154  CE2      -24.6520   37.9870   -8.8870 C.ar  312  TYR312      0.0417
    155  CZ       -24.2970   38.8820   -9.8760 C.ar  312  TYR312      0.1957
    156  OH       -24.7200   40.1910   -9.8120 O.3   312  TYR312     -0.2866
    157  N        -19.7610   35.9720   -9.1090 N.am  313  PRO313     -0.2718
    158  CA       -18.8670   36.3520   -8.0120 C.3   313  PRO313      0.1535
    159  C        -19.4920   37.3150   -7.0050 C.2   313  PRO313      0.2598
    160  O        -18.8150   37.7040   -6.0540 O.2   313  PRO313     -0.2715
    161  CB       -17.7170   37.0440   -8.7430 C.3   313  PRO313      0.0310
    162  CG       -18.3680   37.6600   -9.9320 C.3   313  PRO313      0.0237
    163  CD       -19.4600   36.7100  -10.3480 C.3   313  PRO313      0.0939
    164  N        -20.7520   37.6920   -7.1980 N.am  314  TYR314     -0.1974
    165  CA       -21.3670   38.6950   -6.3290 C.3   314  TYR314      0.1639
    166  C        -22.4640   38.1700   -5.3990 C.2   314  TYR314      0.2290
    167  O        -23.1960   38.9550   -4.7940 O.2   314  TYR314     -0.2864
    168  CB       -21.8930   39.8760   -7.1490 C.3   314  TYR314      0.0560
    169  CG       -20.8090   40.8150   -7.6300 C.ar  314  TYR314     -0.0198
    170  CD1      -19.8340   41.2820   -6.7600 C.ar  314  TYR314     -0.0009
    171  CD2      -20.7700   41.2480   -8.9500 C.ar  314  TYR314     -0.0009
    172  CE1      -18.8450   42.1450   -7.1910 C.ar  314  TYR314      0.0417
    173  CE2      -19.7840   42.1100   -9.3900 C.ar  314  TYR314      0.0417
    174  CZ       -18.8240   42.5550   -8.5060 C.ar  314  TYR314      0.1957
    175  OH       -17.8400   43.4130   -8.9400 O.3   314  TYR314     -0.2866
@<TRIPOS>BOND
     1    24    23    2
     2    23    22    1
     3    16    15    2
     4    22    21    1
     5    22    25    1
     6    15    21   am
     7    15    14    1
     8    14    13    1
     9    14    17    1
    10    25    26    1
    11    48    50   ar
    12    48    47   ar
    13    12    11    1
    14     9    11   ar
    15     9     7   ar
    16    19    18    1
    17    50    51   ar
    18    17    18    1
    19    11    10   ar
    20     7     6   ar
    21    46    47    1
    22    46    43    1
    23    47    49   ar
    24    18    20    1
    25    26    28   ar
    26    26    27   ar
    27     3     2    1
    28     3     4    2
    29    51    49   ar
    30    51    53   ar
    31     2     1    1
    32     2     5    1
    33    28    30   ar
    34    27    29   ar
    35    10     8   ar
    36     6     8   ar
    37     6     5    1
    38    49    52   ar
    39    36    35    2
    40    42    43    1
    41    43    44    1
    42   122   121   ar
    43   122   120   ar
    44    45    44    2
    45    53    55   ar
    46   121   119   ar
    47    30    31   ar
    48   120   118   ar
    49    52    54   ar
    50    29    31   ar
    51    35    34    1
    52   119   116   ar
    53    55    54   ar
    54    33    34    1
    55    31    32    1
    56   118   116   ar
    57   118   117   ar
    58    34    37    1
    59   116   114   ar
    60    62    64   ar
    61    62    61   ar
    62   109   110    1
    63    64    65   ar
    64    37    38    1
    65   117   115   ar
    66   144   142   ar
    67   144   143   ar
    68   114   115   ar
    69   114   113    1
    70    61    60    1
    71    61    63   ar
    72   142   140   ar
    73   143   141   ar
    74    38    39    1
    75    65    63   ar
    76    41    40    1
    77    60    57    1
    78   110   113    1
    79   110   111    1
    80    39    40    1
    81    75    74    2
    82   140   139   ar
    83   141   139   ar
    84   131   133   ar
    85   131   129   ar
    86   111   112    2
    87    57    56    1
    88    57    58    1
    89    74    73    1
    90   139   138    1
    91   133   132   ar
    92   129   128   ar
    93    70    71    1
    94    70    67    1
    95    66    58   am
    96    66    67    1
    97    58    59    2
    98    69    68    2
    99   134   135    1
   100    76    73    1
   101    76    77    1
   102    73    72    1
   103    67    68    1
   104   138   135    1
   105   135   136    1
   106   132   130   ar
   107   128   130   ar
   108   128   127    1
   109    95    94    2
   110    79    78    1
   111   127   124    1
   112    87    85   am
   113    77    78    1
   114    96    94   am
   115   124   125    1
   116   124   123    1
   117    94    93    1
   118   136   137    2
   119   125   126    2
   120   101   102    1
   121   101    98    1
   122   104   102   ar
   123   104   106   ar
   124    85    84    1
   125    85    86    2
   126   102   103   ar
   127   106   107   ar
   128    93    92    1
   129   103   105   ar
   130   107   105   ar
   131   107   108    1
   132    84    81    1
   133    92    89    1
   134    98    99    1
   135    98    97    1
   136    99   100    2
   137    80    81    1
   138   151   153   ar
   139   151   150   ar
   140    91    90    2
   141   153   155   ar
   142    81    82    1
   143   145   146    1
   144    89    90    1
   145    89    88    1
   146   163   162    1
   147   163   157    1
   148   146   149    1
   149   146   147    1
   150   149   150    1
   151   150   152   ar
   152    83    82    2
   153   162   161    1
   154   155   156    1
   155   155   154   ar
   156   173   171   ar
   157   173   174   ar
   158   157   147   am
   159   157   158    1
   160   147   148    2
   161   152   154   ar
   162   171   169   ar
   163   175   174    1
   164   161   158    1
   165   174   172   ar
   166   158   159    1
   167   169   168    1
   168   169   170   ar
   169   164   159   am
   170   164   165    1
   171   172   170   ar
   172   168   165    1
   173   159   160    2
   174   165   166    1
   175   166   167    2
