@<TRIPOS>MOLECULE
tmp/4dbvC00.pdb
 225 219 0 0 0
SMALL
GASTEIGER

@<TRIPOS>ATOM
      1  N         31.8850   49.7490   17.7170 N.3     7  ASN7       -0.1225
      2  CA        31.1300   48.5500   18.0190 C.3     7  ASN7        0.1785
      3  C         32.1340   47.4150   18.0850 C.2     7  ASN7        0.2598
      4  O         32.6810   47.0170   17.0540 O.2     7  ASN7       -0.2718
      5  CB        30.0790   48.2640   16.9370 C.3     7  ASN7        0.1169
      6  CG        28.9900   47.3410   17.4350 C.2     7  ASN7        0.2627
      7  OD1       28.3390   47.6430   18.4260 O.2     7  ASN7       -0.2716
      8  ND2       28.7980   46.2080   16.7720 N.am    7  ASN7       -0.0877
      9  N         32.3730   46.8920   19.2840 N.am    8  GLY8       -0.1942
     10  CA        33.3450   45.8220   19.4530 C.3     8  GLY8        0.2014
     11  C         34.6490   46.4220   19.9660 C.2     8  GLY8        0.2639
     12  O         35.4860   46.8750   19.1820 O.2     8  GLY8       -0.2714
     13  N         34.7900   46.4620   21.2870 N.am    9  PHE9       -0.1959
     14  CA        35.9530   47.0330   21.9540 C.3     9  PHE9        0.1771
     15  C         37.0360   45.9740   22.2310 C.2     9  PHE9        0.2620
     16  O         37.4610   45.7910   23.3770 O.2     9  PHE9       -0.2715
     17  CB        35.4930   47.6710   23.2710 C.3     9  PHE9        0.0574
     18  CG        36.2660   48.9110   23.6740 C.ar    9  PHE9       -0.0200
     19  CD1       36.6270   49.8710   22.7330 C.ar    9  PHE9       -0.0042
     20  CD2       36.5660   49.1490   25.0110 C.ar    9  PHE9       -0.0042
     21  CE1       37.2640   51.0500   23.1110 C.ar    9  PHE9       -0.0003
     22  CE2       37.2050   50.3280   25.4020 C.ar    9  PHE9       -0.0003
     23  CZ        37.5490   51.2770   24.4480 C.ar    9  PHE9       -0.0000
     24  N         37.4800   45.2840   21.1860 N.am   10  GLY10      -0.1940
     25  CA        38.5010   44.2660   21.3580 C.3    10  GLY10       0.2014
     26  C         39.8670   44.8100   20.9810 C.2    10  GLY10       0.2639
     27  O         40.1080   46.0110   21.0790 O.2    10  GLY10      -0.2714
     28  N         40.7640   43.9480   20.5230 N.am   11  ARG11      -0.1963
     29  CA        42.0900   44.4140   20.1560 C.3    11  ARG11       0.1729
     30  C         42.0830   45.6030   19.1890 C.2    11  ARG11       0.2616
     31  O         42.7450   46.6160   19.4390 O.2    11  ARG11      -0.2715
     32  CB        42.9300   43.2610   19.6290 C.3    11  ARG11       0.0348
     33  CG        43.1650   42.2000   20.6810 C.3    11  ARG11       0.0492
     34  CD        43.6390   42.8330   21.9790 C.3    11  ARG11       0.2205
     35  NE        44.9760   43.4040   21.8250 N.pl3  11  ARG11      -0.0865
     36  CZ        45.6340   44.0590   22.7780 C.cat  11  ARG11       0.5346
     37  NH1       45.0830   44.2410   23.9760 N.pl3  11  ARG11       0.1354
     38  NH2       46.8440   44.5370   22.5230 N.pl3  11  ARG11       0.1354
     39  N         41.2900   45.5260   18.1270 N.am   12  ILE12      -0.1977
     40  CA        41.2310   46.6370   17.1860 C.3    12  ILE12       0.1596
     41  C         40.4230   47.8270   17.7390 C.2    12  ILE12       0.2287
     42  O         40.8530   48.9750   17.6280 O.2    12  ILE12      -0.2864
     43  CB        40.7660   46.1700   15.7580 C.3    12  ILE12       0.0276
     44  CG1       41.8510   45.2900   15.1360 C.3    12  ILE12       0.0022
     45  CG2       40.5620   47.3620   14.8160 C.3    12  ILE12       0.0022
     46  CD1       43.2380   45.9710   15.0490 C.3    12  ILE12       0.0001
     47  N         39.9400   48.8920   20.9250 N.3    14  ARG14      -0.1245
     48  CA        40.6740   49.6160   21.9600 C.3    14  ARG14       0.1563
     49  C         41.8420   50.3810   21.3530 C.2    14  ARG14       0.2260
     50  O         42.0970   51.5240   21.7280 O.2    14  ARG14      -0.2867
     51  CB        41.1280   48.6710   23.0730 C.3    14  ARG14       0.0307
     52  CG        39.9690   48.1150   23.8410 C.3    14  ARG14       0.0489
     53  CD        40.3790   47.5850   25.1790 C.3    14  ARG14       0.2205
     54  NE        41.3120   46.4750   25.0820 N.pl3  14  ARG14      -0.0865
     55  CZ        40.9540   45.2080   24.9060 C.cat  14  ARG14       0.5346
     56  NH1       39.6730   44.8950   24.7930 N.pl3  14  ARG14       0.1354
     57  NH2       41.8700   44.2430   24.9090 N.pl3  14  ARG14       0.1354
     58  N         30.3900   50.0770   22.1620 N.3    32  ASN32      -0.1225
     59  CA        29.4660   49.0000   22.4070 C.3    32  ASN32       0.1785
     60  C         30.2930   47.7100   22.4490 C.2    32  ASN32       0.2597
     61  O         31.1310   47.4750   21.5790 O.2    32  ASN32      -0.2718
     62  CB        28.3930   48.9120   21.3210 C.3    32  ASN32       0.1169
     63  CG        27.4710   47.7150   21.5360 C.2    32  ASN32       0.2627
     64  OD1       26.7240   47.6850   22.5020 O.2    32  ASN32      -0.2716
     65  ND2       27.5850   46.6960   20.6910 N.am   32  ASN32      -0.0877
     66  N         30.0930   46.9040   23.4820 N.am   33  ASP33      -0.1960
     67  CA        30.8040   45.6470   23.6240 C.3    33  ASP33       0.1840
     68  C         29.9900   44.7170   24.5150 C.2    33  ASP33       0.2622
     69  O         28.9960   45.1190   25.1110 O.2    33  ASP33      -0.2715
     70  CB        32.1990   45.8620   24.2310 C.3    33  ASP33       0.1450
     71  CG        33.1230   44.6670   24.0110 C.2    33  ASP33       0.3671
     72  OD1       33.5830   44.4790   22.8630 O.co2  33  ASP33      -0.2456
     73  OD2       33.3840   43.9070   24.9700 O.co2  33  ASP33      -0.2456
     74  N         30.4120   43.4620   24.5810 N.am   34  THR34      -0.1951
     75  CA        29.7420   42.4610   25.3970 C.3    34  THR34       0.1897
     76  C         30.1470   42.5900   26.8790 C.2    34  THR34       0.2313
     77  O         29.4460   42.1030   27.7680 O.2    34  THR34      -0.2863
     78  CB        30.0790   41.0450   24.8730 C.3    34  THR34       0.1794
     79  OG1       30.0120   41.0390   23.4410 O.3    34  THR34      -0.2208
     80  CG2       29.0940   40.0220   25.4180 C.3    34  THR34       0.0378
     81  N         24.6930   46.2350   23.7000 N.3    76  GLU76      -0.1231
     82  CA        23.8370   45.6490   22.6880 C.3    76  GLU76       0.1699
     83  C         24.4830   44.6020   21.8020 C.2    76  GLU76       0.2592
     84  O         25.4560   44.8600   21.0980 O.2    76  GLU76      -0.2718
     85  CB        23.2390   46.7370   21.7900 C.3    76  GLU76       0.0402
     86  CG        22.1220   47.5630   22.4330 C.3    76  GLU76       0.1161
     87  CD        20.9230   46.7170   22.8710 C.2    76  GLU76       0.3649
     88  OE1       20.5970   45.6970   22.1990 O.co2  76  GLU76      -0.2457
     89  OE2       20.3100   47.0810   23.8980 O.co2  76  GLU76      -0.2457
     90  N         23.9080   43.4160   21.8110 N.am   77  ARG77      -0.1980
     91  CA        24.3940   42.3590   20.9530 C.3    77  ARG77       0.1597
     92  C         23.8830   42.5940   19.5250 C.2    77  ARG77       0.2287
     93  O         24.5790   42.2780   18.5670 O.2    77  ARG77      -0.2864
     94  CB        23.9230   40.9950   21.4610 C.3    77  ARG77       0.0334
     95  CG        24.8740   40.3080   22.4240 C.3    77  ARG77       0.0492
     96  CD        26.1560   39.9340   21.7110 C.3    77  ARG77       0.2205
     97  NE        26.9840   39.0300   22.4970 N.pl3  77  ARG77      -0.0865
     98  CZ        26.6690   37.7670   22.7700 C.cat  77  ARG77       0.5346
     99  NH1       25.5340   37.2390   22.3260 N.pl3  77  ARG77       0.1354
    100  NH2       27.5080   37.0190   23.4750 N.pl3  77  ARG77       0.1354
    101  N         33.9850   46.6930   14.5840 N.3    95  SER95      -0.1202
    102  CA        35.1240   45.8640   14.9030 C.3    95  SER95       0.2020
    103  C         34.8530   44.6700   15.8250 C.2    95  SER95       0.2619
    104  O         35.7040   44.3240   16.6610 O.2    95  SER95      -0.2717
    105  CB        36.2610   46.7490   15.4450 C.3    95  SER95       0.2103
    106  OG        35.7920   47.6870   16.4050 O.3    95  SER95      -0.2182
    107  N         33.6860   44.0340   15.6620 N.am   96  THR96      -0.1938
    108  CA        33.3240   42.8460   16.4490 C.3    96  THR96       0.2028
    109  C         33.8790   41.6250   15.7200 C.2    96  THR96       0.2643
    110  O         34.2220   40.6160   16.3300 O.2    96  THR96      -0.2714
    111  CB        31.7910   42.6340   16.5420 C.3    96  THR96       0.1808
    112  OG1       31.2400   42.5110   15.2230 O.3    96  THR96      -0.2208
    113  CG2       31.1240   43.7600   17.2820 C.3    96  THR96       0.0379
    114  N         33.9340   41.7320   14.3970 N.am   97  GLY97      -0.1939
    115  CA        34.4120   40.6450   13.5840 C.3    97  GLY97       0.2014
    116  C         33.2190   39.8150   13.1590 C.2    97  GLY97       0.2639
    117  O         33.3570   38.9510   12.3130 O.2    97  GLY97      -0.2714
    118  N         32.0280   40.1250   13.6720 N.am   98  ARG98      -0.1963
    119  CA        30.8450   39.3390   13.3330 C.3    98  ARG98       0.1729
    120  C         29.9030   39.9600   12.3260 C.2    98  ARG98       0.2616
    121  O         28.9950   39.2880   11.8540 O.2    98  ARG98      -0.2715
    122  CB        30.0650   38.9520   14.5960 C.3    98  ARG98       0.0348
    123  CG        30.7730   39.3130   15.8670 C.3    98  ARG98       0.0492
    124  CD        30.6150   38.2670   16.9390 C.3    98  ARG98       0.2205
    125  NE        29.2880   38.2970   17.5370 N.pl3  98  ARG98      -0.0865
    126  CZ        28.3810   37.3420   17.3690 C.cat  98  ARG98       0.5346
    127  NH1       28.6730   36.2840   16.6200 N.pl3  98  ARG98       0.1354
    128  NH2       27.1810   37.4470   17.9350 N.pl3  98  ARG98       0.1354
    129  N         30.1240   41.2260   11.9750 N.am   99  PHE99      -0.1960
    130  CA        29.2580   41.9220   11.0240 C.3    99  PHE99       0.1771
    131  C         29.9830   42.4970    9.8200 C.2    99  PHE99       0.2620
    132  O         29.8880   43.6900    9.5680 O.2    99  PHE99      -0.2715
    133  CB        28.4840   43.0310   11.7340 C.3    99  PHE99       0.0574
    134  CG        27.8340   42.5790   12.9970 C.ar   99  PHE99      -0.0200
    135  CD1       26.9920   41.4650   12.9970 C.ar   99  PHE99      -0.0042
    136  CD2       28.1060   43.2190   14.2020 C.ar   99  PHE99      -0.0042
    137  CE1       26.4380   40.9890   14.1760 C.ar   99  PHE99      -0.0003
    138  CE2       27.5600   42.7560   15.3930 C.ar   99  PHE99      -0.0003
    139  CZ        26.7220   41.6340   15.3810 C.ar   99  PHE99      -0.0000
    140  N         30.6710   41.6400    9.0630 N.am  100  THR100     -0.1951
    141  CA        31.4180   42.0380    7.8590 C.3   100  THR100      0.1897
    142  C         30.5420   41.9780    6.6000 C.2   100  THR100      0.2313
    143  O         30.9480   42.4370    5.5310 O.2   100  THR100     -0.2863
    144  CB        32.6660   41.1350    7.6230 C.3   100  THR100      0.1794
    145  OG1       32.2530   39.7790    7.4460 O.3   100  THR100     -0.2208
    146  CG2       33.6010   41.1830    8.8000 C.3   100  THR100      0.0378
    147  N         36.3070   47.1410    9.8830 N.3   119  SER119     -0.1202
    148  CA        37.7320   46.8920   10.0870 C.3   119  SER119      0.2020
    149  C         38.1620   45.4890    9.6810 C.2   119  SER119      0.2619
    150  O         38.8230   44.7860   10.4370 O.2   119  SER119     -0.2717
    151  CB        38.1070   47.1660   11.5480 C.3   119  SER119      0.2103
    152  OG        37.2930   46.4100   12.4230 O.3   119  SER119     -0.2182
    153  N         37.8190   45.1110    8.4640 N.am  120  ALA120     -0.1965
    154  CA        38.1540   43.8040    7.9680 C.3   120  ALA120      0.1713
    155  C         37.5990   43.7520    6.5650 C.2   120  ALA120      0.2458
    156  O         36.9950   44.7220    6.1080 O.2   120  ALA120     -0.2730
    157  CB        37.4520   42.7650    8.8120 C.3   120  ALA120      0.0333
    158  N         37.9550   42.7060    5.8030 N.am  121  PRO121     -0.2727
    159  CA        37.4510   42.5380    4.4400 C.3   121  PRO121      0.1402
    160  C         35.9380   42.3920    4.6180 C.2   121  PRO121      0.2269
    161  O         35.4920   41.7950    5.5960 O.2   121  PRO121     -0.2865
    162  CB        38.0780   41.2170    4.0280 C.3   121  PRO121      0.0296
    163  CG        39.4230   41.3220    4.6520 C.3   121  PRO121      0.0237
    164  CD        39.1180   41.8300    6.0370 C.3   121  PRO121      0.0939
    165  N         39.6210   47.1760    4.6120 N.3   149  ALA149     -0.1231
    166  CA        40.3690   46.0030    4.1680 C.3   149  ALA149      0.1694
    167  C         41.0430   45.3240    5.3670 C.2   149  ALA149      0.2593
    168  O         40.5860   45.4780    6.5140 O.2   149  ALA149     -0.2718
    169  CB        41.3920   46.3770    3.0820 C.3   149  ALA149      0.0304
    170  N         42.0780   44.5300    5.1090 N.am  150  SER150     -0.1938
    171  CA        42.7790   43.8470    6.1810 C.3   150  SER150      0.2055
    172  C         44.1230   44.4810    6.4990 C.2   150  SER150      0.2643
    173  O         44.6720   45.2450    5.7010 O.2   150  SER150     -0.2714
    174  CB        42.9880   42.3760    5.8170 C.3   150  SER150      0.2130
    175  OG        43.7950   42.2320    4.6570 O.3   150  SER150     -0.2179
    176  N         44.6640   44.1330    7.6650 N.am  151  CYS151     -0.1967
    177  CA        45.9760   44.6260    8.0740 C.3   151  CYS151      0.1712
    178  C         47.0500   44.2310    7.0150 C.2   151  CYS151      0.2296
    179  O         47.8640   45.0750    6.6040 O.2   151  CYS151     -0.2864
    180  CB        46.3240   44.1360    9.5020 C.3   151  CYS151      0.0983
    181  SG        46.0520   42.3640    9.8930 S.3   151  CYS151     -0.0798
    182  N         46.2580   36.0160   16.5730 N.3   181  THR181     -0.1203
    183  CA        45.2050   36.9710   16.9480 C.3   181  THR181      0.1994
    184  C         44.1510   36.2410   17.7620 C.2   181  THR181      0.2617
    185  O         44.1630   35.0100   17.8500 O.2   181  THR181     -0.2717
    186  CB        44.4570   37.5310   15.7320 C.3   181  THR181      0.1784
    187  OG1       43.9450   36.4370   14.9630 O.3   181  THR181     -0.2211
    188  CG2       45.3380   38.4200   14.8660 C.3   181  THR181      0.0376
    189  N         43.1960   36.9910   18.3000 N.am  182  ASN182     -0.1974
    190  CA        42.1350   36.4000   19.1070 C.3   182  ASN182      0.1688
    191  C         41.2330   35.4510   18.2990 C.2   182  ASN182      0.2292
    192  O         40.2890   34.8930   18.8410 O.2   182  ASN182     -0.2864
    193  CB        41.3090   37.4840   19.8100 C.3   182  ASN182      0.1181
    194  CG        41.7600   37.7470   21.2410 C.2   182  ASN182      0.2629
    195  OD1       42.3340   36.8740   21.9090 O.2   182  ASN182     -0.2716
    196  ND2       41.4790   38.9510   21.7290 N.am  182  ASN182     -0.0877
    197  N         50.2970   44.9970   13.0440 N.3   314  ASN314     -0.1225
    198  CA        48.9250   44.6390   12.6840 C.3   314  ASN314      0.1785
    199  C         47.8160   45.3040   13.5130 C.2   314  ASN314      0.2597
    200  O         46.7040   45.5070   13.0270 O.2   314  ASN314     -0.2718
    201  CB        48.7530   43.1120   12.6190 C.3   314  ASN314      0.1169
    202  CG        49.3450   42.3880   13.8240 C.2   314  ASN314      0.2627
    203  OD1       50.5610   42.1880   13.9040 O.2   314  ASN314     -0.2716
    204  ND2       48.4860   41.9480   14.7390 N.am  314  ASN314     -0.0877
    205  N         48.1140   45.6570   14.7550 N.am  315  GLU315     -0.1979
    206  CA        47.1350   46.3270   15.6020 C.3   315  GLU315      0.1602
    207  C         47.2150   47.8680   15.4920 C.2   315  GLU315      0.2287
    208  O         46.2230   48.5320   15.2040 O.2   315  GLU315     -0.2864
    209  CB        47.3430   45.9280   17.0570 C.3   315  GLU315      0.0415
    210  CG        46.8590   44.5360   17.4330 C.3   315  GLU315      0.1163
    211  CD        47.0560   44.2530   18.9140 C.2   315  GLU315      0.3649
    212  OE1       47.7210   45.0530   19.5900 O.co2 315  GLU315     -0.2457
    213  OE2       46.5500   43.2430   19.4210 O.co2 315  GLU315     -0.2457
    214  N         47.1340   49.6210   11.6350 N.3   318  TYR318     -0.1241
    215  CA        45.7710   49.4770   11.1270 C.3   318  TYR318      0.1605
    216  C         44.7640   50.4400   11.7960 C.2   318  TYR318      0.2264
    217  O         43.9970   51.1320   11.1100 O.2   318  TYR318     -0.2867
    218  CB        45.3100   48.0230   11.2650 C.3   318  TYR318      0.0534
    219  CG        43.9920   47.7460   10.5800 C.ar  318  TYR318     -0.0201
    220  CD1       43.9390   47.4920    9.2060 C.ar  318  TYR318     -0.0009
    221  CD2       42.7890   47.7510   11.3020 C.ar  318  TYR318     -0.0009
    222  CE1       42.7310   47.2520    8.5720 C.ar  318  TYR318      0.0417
    223  CE2       41.5630   47.5090   10.6700 C.ar  318  TYR318      0.0417
    224  CZ        41.5480   47.2560    9.3090 C.ar  318  TYR318      0.1957
    225  OH        40.3620   46.9540    8.6940 O.3   318  TYR318     -0.2866
@<TRIPOS>BOND
     1   169   166    1
     2   162   159    1
     3   162   163    1
     4   166   165    1
     5   166   167    1
     6   159   160    1
     7   159   158    1
     8   160   161    2
     9   163   164    1
    10   175   174    1
    11   170   167   am
    12   170   171    1
    13   167   168    2
    14   143   142    2
    15   173   172    2
    16   158   164    1
    17   158   155   am
    18   174   171    1
    19   156   155    2
    20   171   172    1
    21   172   176   am
    22   155   154    1
    23   142   141    1
    24   179   178    2
    25   178   177    1
    26   145   144    1
    27   144   141    1
    28   144   146    1
    29   176   177    1
    30   141   140    1
    31   154   153    1
    32   154   157    1
    33   177   180    1
    34   153   149   am
    35   222   220   ar
    36   222   224   ar
    37   225   224    1
    38   140   131   am
    39   220   219   ar
    40   224   223   ar
    41   180   181    1
    42   132   131    2
    43   149   148    1
    44   149   150    2
    45   131   130    1
    46   147   148    1
    47   148   151    1
    48   219   218    1
    49   219   221   ar
    50   223   221   ar
    51   130   133    1
    52   130   129    1
    53   217   216    2
    54   215   218    1
    55   215   214    1
    56   215   216    1
    57   151   152    1
    58   133   134    1
    59   121   120    2
    60   129   120   am
    61   117   116    2
    62   120   119    1
    63   201   198    1
    64   201   202    1
    65   198   197    1
    66   198   199    1
    67   134   135   ar
    68   134   136   ar
    69   135   137   ar
    70   200   199    2
    71   116   115    1
    72   116   118   am
    73   119   118    1
    74   119   122    1
    75   199   205   am
    76   115   114    1
    77   202   203    2
    78   202   204   am
    79   137   139   ar
    80   136   138   ar
    81   114   109   am
    82   101   102    1
    83   122   123    1
    84   205   206    1
    85    45    43    1
    86   188   186    1
    87   102   105    1
    88   102   103    1
    89   187   186    1
    90    46    44    1
    91    44    43    1
    92   208   207    2
    93   112   111    1
    94   139   138   ar
    95   105   106    1
    96   207   206    1
    97   206   209    1
    98   107   103   am
    99   107   108    1
   100   109   110    2
   101   109   108    1
   102   186   183    1
   103    43    40    1
   104   103   104    2
   105   123   124    1
   106   108   111    1
   107   111   113    1
   108   182   183    1
   109   127   126    1
   110     8     6   am
   111     5     6    1
   112     5     2    1
   113   124   125    1
   114   183   184    1
   115     4     3    2
   116   209   210    1
   117    40    41    1
   118    40    39    1
   119   126   125    2
   120   126   128    1
   121   210   211    1
   122     6     7    2
   123    42    41    2
   124     1     2    1
   125   184   185    2
   126   184   189   am
   127     2     3    1
   128     3     9   am
   129    39    30   am
   130   191   192    2
   131   191   190    1
   132   189   190    1
   133    93    92    2
   134   211   213   ar
   135   211   212   ar
   136   190   193    1
   137    12    11    2
   138    30    31    2
   139    30    29    1
   140     9    10    1
   141    10    11    1
   142    92    91    1
   143    32    29    1
   144    32    33    1
   145   193   194    1
   146    11    13   am
   147    29    28    1
   148    28    26   am
   149    33    34    1
   150    65    63   am
   151    47    48    1
   152    91    94    1
   153    91    90    1
   154    26    27    2
   155    26    25    1
   156    84    83    2
   157    24    25    1
   158    24    15   am
   159   194   196   am
   160   194   195    2
   161    13    14    1
   162    62    63    1
   163    62    59    1
   164    49    50    2
   165    49    48    1
   166    94    95    1
   167    63    64    2
   168    61    60    2
   169    96    95    1
   170    96    97    1
   171    85    86    1
   172    85    82    1
   173    83    90   am
   174    83    82    1
   175    35    34    1
   176    35    36    2
   177    14    15    1
   178    14    17    1
   179    48    51    1
   180    58    59    1
   181    88    87   ar
   182    15    16    2
   183    99    98    1
   184    59    60    1
   185    86    87    1
   186    60    66   am
   187    97    98    2
   188    38    36    1
   189    82    81    1
   190    19    21   ar
   191    19    18   ar
   192    98   100    1
   193    36    37    1
   194    72    71   ar
   195    87    89   ar
   196    51    52    1
   197    21    23   ar
   198    17    18    1
   199    79    78    1
   200    66    67    1
   201    67    70    1
   202    67    68    1
   203    18    20   ar
   204    52    53    1
   205    71    70    1
   206    71    73   ar
   207    23    22   ar
   208    68    74   am
   209    68    69    2
   210    74    75    1
   211    56    55    1
   212    78    75    1
   213    78    80    1
   214    55    57    1
   215    55    54    2
   216    20    22   ar
   217    54    53    1
   218    75    76    1
   219    76    77    2
