@<TRIPOS>MOLECULE
tmp/4dbwA02.pdb
 144 141 0 0 0
SMALL
GASTEIGER

@<TRIPOS>ATOM
      1  N         19.2260   20.4920   14.5020 N.3    49  LEU49      -0.1245
      2  CA        20.4880   20.0800   15.1100 C.3    49  LEU49       0.1561
      3  C         20.8460   18.6100   14.8810 C.2    49  LEU49       0.2260
      4  O         22.0250   18.2430   14.8600 O.2    49  LEU49      -0.2867
      5  CB        20.4390   20.3620   16.6150 C.3    49  LEU49       0.0270
      6  CG        21.6690   19.9920   17.4390 C.3    49  LEU49       0.0019
      7  CD1       22.8450   20.8770   17.0580 C.3    49  LEU49       0.0001
      8  CD2       21.3750   20.1000   18.9490 C.3    49  LEU49       0.0001
      9  N         17.5450   25.9430   15.8080 N.3    81  TRP81      -0.1241
     10  CA        18.8580   25.9020   16.4310 C.3    81  TRP81       0.1605
     11  C         19.3280   27.3140   16.8160 C.2    81  TRP81       0.2264
     12  O         18.8310   28.3160   16.2990 O.2    81  TRP81      -0.2867
     13  CB        19.8990   25.1630   15.5760 C.3    81  TRP81       0.0550
     14  CG        21.2230   25.1020   16.2760 C.ar   81  TRP81       0.0003
     15  CD1       22.4160   25.5790   15.8210 C.ar   81  TRP81       0.0946
     16  CD2       21.4680   24.6000   17.5940 C.ar   81  TRP81       0.0152
     17  NE1       23.3940   25.3870   16.7650 N.ar   81  TRP81      -0.2442
     18  CE2       22.8390   24.7800   17.8610 C.ar   81  TRP81       0.0810
     19  CE3       20.6650   23.9900   18.5660 C.ar   81  TRP81       0.0012
     20  CZ2       23.4250   24.3820   19.0660 C.ar   81  TRP81       0.0191
     21  CZ3       21.2460   23.5970   19.7590 C.ar   81  TRP81       0.0001
     22  CH2       22.6130   23.7950   19.9990 C.ar   81  TRP81       0.0015
     23  N         20.3100   29.6990   24.7470 N.3   115  MET115     -0.1245
     24  CA        21.6950   30.1470   24.6470 C.3   115  MET115      0.1570
     25  C         22.1200   30.4450   23.2090 C.2   115  MET115      0.2261
     26  O         22.6750   29.5900   22.5230 O.2   115  MET115     -0.2867
     27  CB        22.6300   29.1350   25.3150 C.3   115  MET115      0.0387
     28  CG        22.3320   28.9740   26.8020 C.3   115  MET115      0.0595
     29  SD        23.2800   27.6840   27.6300 S.3   115  MET115     -0.1393
     30  CE        22.6330   26.2230   26.8130 C.3   115  MET115      0.0692
     31  N         23.7890   31.6370   19.7260 N.3   117  LEU117     -0.1245
     32  CA        25.1360   31.4870   19.1890 C.3   117  LEU117      0.1561
     33  C         25.3010   32.3200   17.9300 C.2   117  LEU117      0.2260
     34  O         24.3160   32.7260   17.3220 O.2   117  LEU117     -0.2867
     35  CB        25.4110   30.0220   18.8570 C.3   117  LEU117      0.0270
     36  CG        25.4240   29.0690   20.0490 C.3   117  LEU117      0.0019
     37  CD1       25.6320   27.6370   19.5590 C.3   117  LEU117      0.0001
     38  CD2       26.5140   29.4720   21.0180 C.3   117  LEU117      0.0001
     39  N         27.1030   24.8500   13.2080 N.3   123  LEU123     -0.1231
     40  CA        26.2120   24.6260   14.3390 C.3   123  LEU123      0.1693
     41  C         26.8730   25.1090   15.6190 C.2   123  LEU123      0.2592
     42  O         26.2070   25.6010   16.5250 O.2   123  LEU123     -0.2718
     43  CB        25.8710   23.1400   14.4680 C.3   123  LEU123      0.0284
     44  CG        25.1470   22.5170   13.2750 C.3   123  LEU123      0.0019
     45  CD1       25.0890   21.0010   13.4140 C.3   123  LEU123      0.0001
     46  CD2       23.7570   23.1060   13.1340 C.3   123  LEU123      0.0001
     47  N         28.1900   24.9530   15.6910 N.am  124  SER124     -0.1952
     48  CA        28.9530   25.4180   16.8370 C.3   124  SER124      0.1924
     49  C         30.0720   26.3360   16.3570 C.2   124  SER124      0.2314
     50  O         31.1710   25.8760   16.0450 O.2   124  SER124     -0.2863
     51  CB        29.5300   24.2400   17.6210 C.3   124  SER124      0.2116
     52  OG        30.0820   24.6710   18.8550 O.3   124  SER124     -0.2180
     53  N         33.7210   28.6000   21.6600 N.3   132  VAL132     -0.1245
     54  CA        32.4070   28.7750   21.0460 C.3   132  VAL132      0.1561
     55  C         31.9170   30.2140   21.2150 C.2   132  VAL132      0.2260
     56  O         32.0000   30.7840   22.3030 O.2   132  VAL132     -0.2867
     57  CB        31.3780   27.7940   21.6300 C.3   132  VAL132      0.0252
     58  CG1       29.9940   28.0750   21.0730 C.3   132  VAL132      0.0019
     59  CG2       31.7960   26.3630   21.3320 C.3   132  VAL132      0.0019
     60  N         30.4160   13.5910   25.1910 N.3   221  ARG221     -0.1231
     61  CA        30.5780   15.0200   24.9520 C.3   221  ARG221      0.1694
     62  C         30.0120   15.9000   26.0670 C.2   221  ARG221      0.2592
     63  O         30.4160   17.0530   26.2070 O.2   221  ARG221     -0.2718
     64  CB        29.9670   15.4080   23.6040 C.3   221  ARG221      0.0321
     65  CG        30.7370   14.8790   22.4030 C.3   221  ARG221      0.0489
     66  CD        29.9700   15.1020   21.1160 C.3   221  ARG221      0.2205
     67  NE        28.8550   14.1680   20.9750 N.pl3 221  ARG221     -0.0865
     68  CZ        27.9780   14.2010   19.9790 C.cat 221  ARG221      0.5346
     69  NH1       26.9940   13.3120   19.9240 N.pl3 221  ARG221      0.1354
     70  NH2       28.0820   15.1310   19.0380 N.pl3 221  ARG221      0.1354
     71  N         29.0920   15.3680   26.8700 N.am  222  TRP222     -0.1976
     72  CA        28.4510   16.2000   27.8870 C.3   222  TRP222      0.1640
     73  C         28.0410   15.4840   29.1720 C.2   222  TRP222      0.2290
     74  O         27.5810   16.1260   30.1130 O.2   222  TRP222     -0.2864
     75  CB        27.2510   16.9610   27.2960 C.3   222  TRP222      0.0576
     76  CG        26.4120   16.1510   26.3660 C.ar  222  TRP222      0.0006
     77  CD1       25.5320   15.1610   26.7070 C.ar  222  TRP222      0.0946
     78  CD2       26.3670   16.2560   24.9400 C.ar  222  TRP222      0.0152
     79  NE1       24.9460   14.6430   25.5810 N.ar  222  TRP222     -0.2442
     80  CE2       25.4390   15.2990   24.4810 C.ar  222  TRP222      0.0810
     81  CE3       27.0210   17.0670   24.0050 C.ar  222  TRP222      0.0012
     82  CZ2       25.1520   15.1250   23.1270 C.ar  222  TRP222      0.0191
     83  CZ3       26.7330   16.8950   22.6610 C.ar  222  TRP222      0.0001
     84  CH2       25.8080   15.9310   22.2350 C.ar  222  TRP222      0.0015
     85  N         23.2780   16.5210   30.9870 N.3   301  PHE301     -0.1227
     86  CA        23.9030   17.4190   30.0250 C.3   301  PHE301      0.1736
     87  C         24.7000   18.4830   30.7690 C.2   301  PHE301      0.2595
     88  O         24.1300   19.3090   31.4780 O.2   301  PHE301     -0.2718
     89  CB        22.8540   18.0790   29.1180 C.3   301  PHE301      0.0547
     90  CG        22.3510   17.1800   28.0220 C.ar  301  PHE301     -0.0202
     91  CD1       21.3830   16.2230   28.2800 C.ar  301  PHE301     -0.0042
     92  CD2       22.8450   17.2990   26.7290 C.ar  301  PHE301     -0.0042
     93  CE1       20.9230   15.3900   27.2730 C.ar  301  PHE301     -0.0003
     94  CE2       22.3850   16.4730   25.7160 C.ar  301  PHE301     -0.0003
     95  CZ        21.4220   15.5160   25.9870 C.ar  301  PHE301     -0.0000
     96  N         26.0200   18.4500   30.6140 N.am  302  ASN302     -0.1960
     97  CA        26.8910   19.4100   31.2880 C.3   302  ASN302      0.1819
     98  C         27.7950   20.1200   30.2900 C.2   302  ASN302      0.2622
     99  O         28.2050   19.5420   29.2870 O.2   302  ASN302     -0.2715
    100  CB        27.7460   18.7230   32.3610 C.3   302  ASN302      0.1195
    101  CG        26.9240   17.8700   33.3160 C.2   302  ASN302      0.2630
    102  OD1       26.4590   18.3460   34.3540 O.2   302  ASN302     -0.2716
    103  ND2       26.7530   16.5950   32.9730 N.am  302  ASN302     -0.0877
    104  N         28.1050   21.3780   30.5750 N.am  303  SER303     -0.1950
    105  CA        28.9970   22.1550   29.7290 C.3   303  SER303      0.1924
    106  C         29.5940   23.2910   30.5390 C.2   303  SER303      0.2314
    107  O         28.8980   24.2380   30.9060 O.2   303  SER303     -0.2863
    108  CB        28.2540   22.7160   28.5180 C.3   303  SER303      0.2116
    109  OG        29.0620   23.6580   27.8300 O.3   303  SER303     -0.2180
    110  N         29.3470   26.6620   28.4780 N.3   306  PHE306     -0.1241
    111  CA        28.0110   27.2440   28.3970 C.3   306  PHE306      0.1605
    112  C         27.4730   27.6920   29.7520 C.2   306  PHE306      0.2264
    113  O         26.5560   28.5120   29.8250 O.2   306  PHE306     -0.2867
    114  CB        27.0450   26.2790   27.7120 C.3   306  PHE306      0.0534
    115  CG        27.1120   26.3340   26.2120 C.ar  306  PHE306     -0.0203
    116  CD1       28.1840   25.7770   25.5310 C.ar  306  PHE306     -0.0042
    117  CD2       26.1190   26.9680   25.4830 C.ar  306  PHE306     -0.0042
    118  CE1       28.2580   25.8400   24.1540 C.ar  306  PHE306     -0.0003
    119  CE2       26.1890   27.0330   24.1040 C.ar  306  PHE306     -0.0003
    120  CZ        27.2580   26.4650   23.4400 C.ar  306  PHE306     -0.0000
    121  N         22.3580   30.7800   30.2340 N.3   312  TYR312     -0.1241
    122  CA        22.4520   29.4490   30.8270 C.3   312  TYR312      0.1605
    123  C         21.2690   29.2400   31.7720 C.2   312  TYR312      0.2264
    124  O         21.0480   30.0380   32.6830 O.2   312  TYR312     -0.2867
    125  CB        23.7770   29.3150   31.5810 C.3   312  TYR312      0.0534
    126  CG        24.0480   27.9480   32.1670 C.ar  312  TYR312     -0.0201
    127  CD1       24.1150   26.8220   31.3540 C.ar  312  TYR312     -0.0009
    128  CD2       24.2710   27.7900   33.5290 C.ar  312  TYR312     -0.0009
    129  CE1       24.3770   25.5700   31.8880 C.ar  312  TYR312      0.0417
    130  CE2       24.5390   26.5430   34.0740 C.ar  312  TYR312      0.0417
    131  CZ        24.5900   25.4390   33.2470 C.ar  312  TYR312      0.1957
    132  OH        24.8600   24.2000   33.7770 O.3   312  TYR312     -0.2866
    133  N         20.5240   26.9260   34.0680 N.3   314  TYR314     -0.1241
    134  CA        20.6510   26.2730   35.3740 C.3   314  TYR314      0.1605
    135  C         21.3070   27.1380   36.4490 C.2   314  TYR314      0.2264
    136  O         21.6360   26.6450   37.5260 O.2   314  TYR314     -0.2867
    137  CB        21.4000   24.9430   35.2500 C.3   314  TYR314      0.0534
    138  CG        20.7090   23.9310   34.3610 C.ar  314  TYR314     -0.0201
    139  CD1       19.3320   23.7660   34.4060 C.ar  314  TYR314     -0.0009
    140  CD2       21.4370   23.1300   33.4940 C.ar  314  TYR314     -0.0009
    141  CE1       18.6940   22.8340   33.5940 C.ar  314  TYR314      0.0417
    142  CE2       20.8110   22.2030   32.6770 C.ar  314  TYR314      0.0417
    143  CZ        19.4410   22.0550   32.7340 C.ar  314  TYR314      0.1957
    144  OH        18.8220   21.1240   31.9290 O.3   314  TYR314     -0.2866
@<TRIPOS>BOND
     1    46    44    1
     2    39    40    1
     3    44    45    1
     4    44    43    1
     5    40    43    1
     6    40    41    1
     7     1     2    1
     8     4     3    2
     9     3     2    1
    10     2     5    1
    11    13    14    1
    12    13    10    1
    13    41    47   am
    14    41    42    2
    15    47    48    1
    16     9    10    1
    17    15    14   ar
    18    15    17   ar
    19    50    49    2
    20    14    16   ar
    21    12    11    2
    22    49    48    1
    23    10    11    1
    24     5     6    1
    25    17    18   ar
    26    48    51    1
    27     7     6    1
    28    34    33    2
    29     6     8    1
    30    16    18   ar
    31    16    19   ar
    32    51    52    1
    33    18    20   ar
    34    33    32    1
    35    19    21   ar
    36    35    32    1
    37    35    36    1
    38    70    68    1
    39    20    22   ar
    40    32    31    1
    41    37    36    1
    42    21    22   ar
    43    69    68    1
    44    68    67    2
    45    36    38    1
    46    67    66    1
    47    54    55    1
    48    54    57    1
    49    54    53    1
    50    58    57    1
    51    66    65    1
    52    55    56    2
    53    59    57    1
    54    84    83   ar
    55    84    82   ar
    56    65    64    1
    57    26    25    2
    58    83    81   ar
    59    82    80   ar
    60    25    24    1
    61   120   119   ar
    62   120   118   ar
    63    64    61    1
    64    81    78   ar
    65   119   117   ar
    66   118   116   ar
    67    80    78   ar
    68    80    79   ar
    69    24    23    1
    70    24    27    1
    71    78    76   ar
    72    61    60    1
    73    61    62    1
    74    27    28    1
    75   117   115   ar
    76   116   115   ar
    77    79    77   ar
    78    94    95   ar
    79    94    92   ar
    80    95    93   ar
    81    62    63    2
    82    62    71   am
    83   115   114    1
    84    76    77   ar
    85    76    75    1
    86    92    90   ar
    87    28    29    1
    88    30    29    1
    89    71    72    1
    90    93    91   ar
    91    75    72    1
    92   114   111    1
    93   109   108    1
    94    72    73    1
    95    90    91   ar
    96    90    89    1
    97   111   110    1
    98   111   112    1
    99   108   105    1
   100    89    86    1
   101    73    74    2
   102    99    98    2
   103   105   106    1
   104   105   104    1
   105   112   113    2
   106    86    87    1
   107    86    85    1
   108   121   122    1
   109    98   104   am
   110    98    97    1
   111   106   107    2
   112    96    87   am
   113    96    97    1
   114    87    88    2
   115   122   125    1
   116   122   123    1
   117    97   100    1
   118   127   129   ar
   119   127   126   ar
   120   125   126    1
   121   123   124    2
   122   129   131   ar
   123   144   143    1
   124   126   128   ar
   125   100   101    1
   126   142   143   ar
   127   142   140   ar
   128   143   141   ar
   129   103   101   am
   130   131   132    1
   131   131   130   ar
   132   101   102    2
   133   140   138   ar
   134   128   130   ar
   135   141   139   ar
   136   133   134    1
   137   138   139   ar
   138   138   137    1
   139   137   134    1
   140   134   135    1
   141   135   136    2
