@<TRIPOS>MOLECULE
tmp/4dc2A00.pdb
 124 114 0 0 0
SMALL
GASTEIGER

@<TRIPOS>ATOM
      1  N         15.1640   -2.2790   19.5900 N.3    12  ILE12      -0.1231
      2  CA        13.8710   -2.3460   20.2650 C.3    12  ILE12       0.1696
      3  C         13.4910   -3.7370   20.7650 C.2    12  ILE12       0.2631
      4  O         12.4390   -3.8860   21.3930 O.2    12  ILE12      -0.2714
      5  CB        12.7140   -1.8190   19.3800 C.3    12  ILE12       0.0266
      6  CG1       12.6060   -2.6450   18.0930 C.3    12  ILE12       0.0019
      7  CG2       12.8880   -0.3430   19.1000 C.3    12  ILE12       0.0020
      8  CD1       11.5630   -2.1490   17.1220 C.3    12  ILE12       0.0001
      9  N         14.3270   -4.7430   20.4900 N.am   13  GLY13      -0.1732
     10  CA        14.0320   -6.1020   20.9250 C.2    13  GLY13       0.1340
     11  C         15.0240   -7.2280   20.6340 C.2    13  GLY13       0.2521
     12  O         15.9280   -7.1030   19.8080 O.2    13  GLY13      -0.2816
     13  N         14.4180  -10.9840   19.4950 N.3    15  GLY15      -0.1225
     14  CA        13.4860  -12.0170   19.0590 C.3    15  GLY15       0.1811
     15  C         13.9410  -13.4300   19.3790 C.2    15  GLY15       0.2280
     16  O         14.8340  -13.6300   20.2000 O.2    15  GLY15      -0.2866
     17  N         15.9890   -6.9940   17.0090 N.3    20  VAL20      -0.1245
     18  CA        15.0360   -6.1680   16.2710 C.3    20  VAL20       0.1561
     19  C         15.3970   -4.7040   16.4120 C.2    20  VAL20       0.2260
     20  O         15.6040   -4.2040   17.5170 O.2    20  VAL20      -0.2867
     21  CB        13.5860   -6.4040   16.7480 C.3    20  VAL20       0.0252
     22  CG1       12.6140   -5.5310   15.9880 C.3    20  VAL20       0.0019
     23  CG2       13.2170   -7.8920   16.6180 C.3    20  VAL20       0.0019
     24  N         10.4500   -1.6560   11.1610 N.3    33  ALA33      -0.1245
     25  CA        11.2130   -2.4680   12.0880 C.3    33  ALA33       0.1562
     26  C         12.0880   -3.3770   11.2450 C.2    33  ALA33       0.2260
     27  O         11.7990   -3.5980   10.0770 O.2    33  ALA33      -0.2867
     28  CB        10.3040   -3.2610   12.9710 C.3    33  ALA33       0.0290
     29  N         14.4080   -7.0740   11.4390 N.3    35  ARG35      -0.1245
     30  CA        14.8520   -8.2580   12.1510 C.3    35  ARG35       0.1563
     31  C         16.1940   -8.6550   11.5660 C.2    35  ARG35       0.2260
     32  O         16.3200   -8.8260   10.3530 O.2    35  ARG35      -0.2867
     33  CB        13.8360   -9.3950   12.0090 C.3    35  ARG35       0.0307
     34  CG        12.3610   -8.9530   12.0200 C.3    35  ARG35       0.0489
     35  CD        11.3970  -10.1020   12.3470 C.3    35  ARG35       0.2205
     36  NE        11.0880  -10.1300   13.7740 N.pl3  35  ARG35      -0.0865
     37  CZ        11.4980  -11.0760   14.6100 C.cat  35  ARG35       0.5346
     38  NH1       12.2120  -12.0900   14.1540 N.pl3  35  ARG35       0.1354
     39  NH2       11.1860  -11.0120   15.8960 N.pl3  35  ARG35       0.1354
     40  N          1.9980   -9.2720   11.0570 N.3    64  VAL64      -0.1245
     41  CA         2.9640   -8.2950   10.5850 C.3    64  VAL64       0.1561
     42  C          3.4700   -8.7240    9.2170 C.2    64  VAL64       0.2260
     43  O          3.7870   -9.8860    9.0120 O.2    64  VAL64      -0.2867
     44  CB         4.1570   -8.1510   11.5590 C.3    64  VAL64       0.0252
     45  CG1        4.9570   -9.4380   11.6160 C.3    64  VAL64       0.0019
     46  CG2        5.0570   -7.0370   11.1230 C.3    64  VAL64       0.0019
     47  N         10.2970   -5.1010    8.1730 N.3    80  ILE80      -0.1231
     48  CA         8.8990   -5.4310    8.4000 C.3    80  ILE80       0.1692
     49  C          8.1460   -4.1620    8.8270 C.2    80  ILE80       0.2592
     50  O          8.7710   -3.1340    9.1060 O.2    80  ILE80      -0.2718
     51  CB         8.7930   -6.5620    9.4410 C.3    80  ILE80       0.0266
     52  CG1        9.4600   -6.1520   10.7500 C.3    80  ILE80       0.0019
     53  CG2        9.4910   -7.8110    8.9290 C.3    80  ILE80       0.0020
     54  CD1        9.4830   -7.2670   11.7930 C.3    80  ILE80       0.0001
     55  N          6.8170   -4.2020    8.8490 N.am   81  GLU81      -0.1966
     56  CA         6.0710   -3.0090    9.2780 C.3    81  GLU81       0.1733
     57  C          6.3090   -2.7210   10.7560 C.2    81  GLU81       0.2616
     58  O          6.3720   -3.6370   11.5870 O.2    81  GLU81      -0.2715
     59  CB         4.5650   -3.1210    8.9790 C.3    81  GLU81       0.0429
     60  CG         3.9390   -4.4750    9.2930 C.3    81  GLU81       0.1163
     61  CD         2.4970   -4.6070    8.7980 C.2    81  GLU81       0.3649
     62  OE1        1.9530   -3.6130    8.2730 O.co2  81  GLU81      -0.2457
     63  OE2        1.9080   -5.7060    8.9300 O.co2  81  GLU81      -0.2457
     64  N          6.4560   -1.4420   11.0760 N.am   82  TYR82      -0.1960
     65  CA         6.6860   -1.0230   12.4510 C.3    82  TYR82       0.1771
     66  C          5.3640   -0.9110   13.2460 C.2    82  TYR82       0.2619
     67  O          4.4410   -0.2130   12.8370 O.2    82  TYR82      -0.2715
     68  CB         7.4900    0.2850   12.4630 C.3    82  TYR82       0.0574
     69  CG         7.6660    0.9140   13.8310 C.ar   82  TYR82      -0.0198
     70  CD1        8.3280    0.2430   14.8490 C.ar   82  TYR82      -0.0009
     71  CD2        7.1790    2.1890   14.0990 C.ar   82  TYR82      -0.0009
     72  CE1        8.4830    0.8190   16.1050 C.ar   82  TYR82       0.0417
     73  CE2        7.3340    2.7700   15.3440 C.ar   82  TYR82       0.0417
     74  CZ         7.9830    2.0840   16.3460 C.ar   82  TYR82       0.1957
     75  OH         8.1390    2.6640   17.5910 O.3    82  TYR82      -0.2866
     76  N          5.2790   -1.6220   14.3720 N.am   83  VAL83      -0.1977
     77  CA         4.0820   -1.6010   15.2120 C.3    83  VAL83       0.1596
     78  C          4.4020   -0.9720   16.5620 C.2    83  VAL83       0.2287
     79  O          4.9500   -1.6170   17.4590 O.2    83  VAL83      -0.2864
     80  CB         3.4920   -3.0060   15.4010 C.3    83  VAL83       0.0276
     81  CG1        2.0850   -2.9020   15.9520 C.3    83  VAL83       0.0022
     82  CG2        3.4840   -3.7590   14.0660 C.3    83  VAL83       0.0022
     83  N          4.3380   -4.5100   22.8670 N.3    87  ASP87      -0.1239
     84  CA         3.7800   -5.8620   22.9220 C.3    87  ASP87       0.1674
     85  C          3.0170   -6.1220   24.2290 C.2    87  ASP87       0.2266
     86  O          3.0640   -5.3110   25.1440 O.2    87  ASP87      -0.2867
     87  CB         4.8790   -6.9090   22.6760 C.3    87  ASP87       0.1410
     88  CG         5.9510   -6.8880   23.7420 C.2    87  ASP87       0.3668
     89  OD1        7.1360   -7.0930   23.4090 O.co2  87  ASP87      -0.2456
     90  OD2        5.6160   -6.6760   24.9260 O.co2  87  ASP87      -0.2456
     91  N          5.1260  -11.6250   24.5760 N.3   130  ASP130     -0.1239
     92  CA         6.1500  -10.8530   23.8600 C.3   130  ASP130      0.1674
     93  C          5.9140  -10.7830   22.3540 C.2   130  ASP130      0.2266
     94  O          6.3310   -9.8430   21.6790 O.2   130  ASP130     -0.2867
     95  CB         7.5190  -11.5140   24.0410 C.3   130  ASP130      0.1410
     96  CG         8.0070  -11.4830   25.4580 C.2   130  ASP130      0.3668
     97  OD1        8.6800  -10.4950   25.8230 O.co2 130  ASP130     -0.2456
     98  OD2        7.7400  -12.4520   26.1990 O.co2 130  ASP130     -0.2456
     99  N          1.8120   -7.8390   19.4750 N.3   133  LEU133     -0.1245
    100  CA         2.0750   -6.4150   19.3840 C.3   133  LEU133      0.1561
    101  C          0.7990   -5.6150   19.1920 C.2   133  LEU133      0.2260
    102  O         -0.1430   -6.0570   18.5510 O.2   133  LEU133     -0.2867
    103  CB         2.9730   -6.1440   18.1930 C.3   133  LEU133      0.0270
    104  CG         4.4730   -6.3550   18.3380 C.3   133  LEU133      0.0019
    105  CD1        5.0790   -6.4590   16.9400 C.3   133  LEU133      0.0001
    106  CD2        5.0800   -5.1930   19.0870 C.3   133  LEU133      0.0001
    107  N          3.8360  -11.1990   15.5870 N.3   143  THR143     -0.1218
    108  CA         5.1140  -11.0790   14.9160 C.3   143  THR143      0.1862
    109  C          5.9190  -12.3490   15.1520 C.2   143  THR143      0.2287
    110  O          5.3920  -13.3050   15.6980 O.2   143  THR143     -0.2866
    111  CB         5.9040   -9.8340   15.3650 C.3   143  THR143      0.1770
    112  OG1        7.0180   -9.6510   14.4870 O.3   143  THR143     -0.2211
    113  CG2        6.4170   -9.9830   16.8000 C.3   143  THR143      0.0375
    114  N          8.6100    0.6320   24.5380 N.3   294  PHE294     -0.1241
    115  CA         9.5590   -0.4760   24.4720 C.3   294  PHE294      0.1605
    116  C         10.4810   -0.5450   25.6800 C.2   294  PHE294      0.2264
    117  O         10.9220    0.4690   26.2110 O.2   294  PHE294     -0.2867
    118  CB        10.3410   -0.4680   23.1520 C.3   294  PHE294      0.0534
    119  CG         9.4670   -0.6670   21.9500 C.ar  294  PHE294     -0.0203
    120  CD1        8.8490    0.4110   21.3410 C.ar  294  PHE294     -0.0042
    121  CD2        9.2170   -1.9410   21.4600 C.ar  294  PHE294     -0.0042
    122  CE1        8.0170    0.2280   20.2500 C.ar  294  PHE294     -0.0003
    123  CE2        8.3850   -2.1320   20.3590 C.ar  294  PHE294     -0.0003
    124  CZ         7.7870   -1.0500   19.7570 C.ar  294  PHE294     -0.0000
@<TRIPOS>BOND
     1    47    48    1
     2    62    61   ar
     3    48    49    1
     4    48    51    1
     5    61    63   ar
     6    61    60    1
     7    49    55   am
     8    49    50    2
     9    55    56    1
    10    53    51    1
    11    59    56    1
    12    59    60    1
    13    43    42    2
    14    42    41    1
    15    56    57    1
    16    51    52    1
    17    27    26    2
    18    32    31    2
    19    41    40    1
    20    41    44    1
    21    52    54    1
    22    57    64   am
    23    57    58    2
    24    64    65    1
    25    46    44    1
    26    24    25    1
    27    26    25    1
    28    29    30    1
    29    44    45    1
    30    31    30    1
    31    33    34    1
    32    33    30    1
    33    34    35    1
    34    25    28    1
    35    35    36    1
    36    65    68    1
    37    65    66    1
    38    68    69    1
    39    67    66    2
    40    66    76   am
    41    36    37    2
    42    69    71   ar
    43    69    70   ar
    44    82    80    1
    45    71    73   ar
    46    38    37    1
    47    76    77    1
    48   112   111    1
    49    37    39    1
    50    70    72   ar
    51   108   109    1
    52   108   111    1
    53   108   107    1
    54   109   110    2
    55    77    80    1
    56    77    78    1
    57    73    74   ar
    58   111   113    1
    59    80    81    1
    60    22    21    1
    61    72    74   ar
    62    18    19    1
    63    18    21    1
    64    18    17    1
    65    74    75    1
    66    19    20    2
    67    78    79    2
    68    23    21    1
    69   105   104    1
    70     8     6    1
    71     6     5    1
    72   103   104    1
    73   103   100    1
    74   104   106    1
    75   102   101    2
    76    14    15    1
    77    14    13    1
    78     7     5    1
    79   101   100    1
    80    15    16    2
    81     5     2    1
    82   100    99    1
    83     1     2    1
    84   124   122   ar
    85   124   123   ar
    86    12    11    2
    87   122   120   ar
    88     2     3    1
    89   123   121   ar
    90     9     3    1
    91     9    10    2
    92    11    10    1
    93     3     4    2
    94   120   119   ar
    95   121   119   ar
    96    94    93    2
    97   119   118    1
    98    93    92    1
    99    87    84    1
   100    87    88    1
   101    83    84    1
   102    84    85    1
   103   118   115    1
   104    89    88   ar
   105    88    90   ar
   106    92    95    1
   107    92    91    1
   108    95    96    1
   109    85    86    2
   110   115   114    1
   111   115   116    1
   112    96    97   ar
   113    96    98   ar
   114   116   117    2
