@<TRIPOS>MOLECULE
tmp/4dcbA00.pdb
 164 154 0 0 0
SMALL
GASTEIGER

@<TRIPOS>ATOM
      1  N        -14.5380   20.0250   15.2880 N.3    27  LEU27      -0.1245
      2  CA       -13.8990   20.9730   14.3890 C.3    27  LEU27       0.1561
      3  C        -14.9490   21.7920   13.6380 C.2    27  LEU27       0.2260
      4  O        -15.9650   21.2610   13.1980 O.2    27  LEU27      -0.2867
      5  CB       -12.9750   20.2430   13.4120 C.3    27  LEU27       0.0270
      6  CG       -11.7100   20.9970   12.9910 C.3    27  LEU27       0.0019
      7  CD1      -10.8560   21.3460   14.2060 C.3    27  LEU27       0.0001
      8  CD2      -10.9150   20.1750   11.9930 C.3    27  LEU27       0.0001
      9  N        -17.4460   20.8920   10.6950 N.3    36  ILE36      -0.1231
     10  CA       -16.8590   20.0870    9.6380 C.3    36  ILE36       0.1692
     11  C        -16.4000   18.7190   10.1140 C.2    36  ILE36       0.2592
     12  O        -16.2870   17.7930    9.3110 O.2    36  ILE36      -0.2718
     13  CB       -15.6840   20.8040    8.9420 C.3    36  ILE36       0.0266
     14  CG1      -14.5340   21.0390    9.9220 C.3    36  ILE36       0.0019
     15  CG2      -16.1510   22.1110    8.3120 C.3    36  ILE36       0.0020
     16  CD1      -13.3790   21.8280    9.3150 C.3    36  ILE36       0.0001
     17  N        -16.1280   18.5800   11.4110 N.am   37  SER37      -0.1952
     18  CA       -15.6660   17.2930   11.9260 C.3    37  SER37       0.1924
     19  C        -16.0850   17.0110   13.3680 C.2    37  SER37       0.2314
     20  O        -16.1120   17.9090   14.2160 O.2    37  SER37      -0.2863
     21  CB       -14.1460   17.1660   11.7800 C.3    37  SER37       0.2116
     22  OG       -13.7110   15.9170   12.2740 O.3    37  SER37      -0.2180
     23  N        -15.6010   13.7370   16.2380 N.3    39  LEU39      -0.1245
     24  CA       -15.2880   12.3950   16.7220 C.3    39  LEU39       0.1561
     25  C        -15.8360   12.2100   18.1290 C.2    39  LEU39       0.2260
     26  O        -15.5200   12.9750   19.0400 O.2    39  LEU39      -0.2867
     27  CB       -13.7880   12.1180   16.6920 C.3    39  LEU39       0.0270
     28  CG       -13.1410   11.7950   15.3440 C.3    39  LEU39       0.0019
     29  CD1      -13.0740   13.0230   14.4850 C.3    39  LEU39       0.0001
     30  CD2      -11.7340   11.2230   15.5750 C.3    39  LEU39       0.0001
     31  N        -16.4480    8.6910   13.9390 N.3    80  ASN80      -0.1240
     32  CA       -15.7590    9.8000   13.3090 C.3    80  ASN80       0.1653
     33  C        -16.5790   10.2430   12.1060 C.2    80  ASN80       0.2266
     34  O        -16.6560    9.5240   11.1200 O.2    80  ASN80      -0.2867
     35  CB       -14.3740    9.3310   12.8420 C.3    80  ASN80       0.1155
     36  CG       -13.5440   10.4500   12.2330 C.2    80  ASN80       0.2627
     37  OD1      -14.0790   11.4650   11.7800 O.2    80  ASN80      -0.2716
     38  ND2      -12.2200   10.2690   12.2260 N.am   80  ASN80      -0.0877
     39  N        -17.3780   13.3880    9.2450 N.3    82  ASP82      -0.1239
     40  CA       -16.8410   14.5950    8.6130 C.3    82  ASP82       0.1674
     41  C        -17.8180   15.1800    7.5970 C.2    82  ASP82       0.2266
     42  O        -18.4310   14.4410    6.8370 O.2    82  ASP82      -0.2867
     43  CB       -15.5310   14.2810    7.8960 C.3    82  ASP82       0.1410
     44  CG       -14.6220   13.3950    8.7080 C.2    82  ASP82       0.3668
     45  OD1      -14.4090   13.6720    9.9110 O.co2  82  ASP82      -0.2456
     46  OD2      -14.1310   12.4010    8.1480 O.co2  82  ASP82      -0.2456
     47  N        -17.4320   17.3160    4.6880 N.3    84  MET84      -0.1245
     48  CA       -16.5410   17.9270    3.6990 C.3    84  MET84       0.1570
     49  C        -17.2490   18.8590    2.7120 C.2    84  MET84       0.2261
     50  O        -16.6310   19.7510    2.1300 O.2    84  MET84      -0.2867
     51  CB       -15.8190   16.8450    2.8940 C.3    84  MET84       0.0387
     52  CG       -15.1450   15.7500    3.7250 C.3    84  MET84       0.0595
     53  SD       -13.9090   16.3850    4.8750 S.3    84  MET84      -0.1393
     54  CE       -12.7560   15.0120    4.8700 C.3    84  MET84       0.0692
     55  N        -18.5890   11.6020    5.3880 N.3    93  ASP93      -0.1239
     56  CA       -17.7550   10.4930    5.8260 C.3    93  ASP93       0.1674
     57  C        -18.0780   10.0400    7.2470 C.2    93  ASP93       0.2266
     58  O        -18.3830   10.8510    8.1250 O.2    93  ASP93      -0.2867
     59  CB       -16.2750   10.8730    5.7210 C.3    93  ASP93       0.1410
     60  CG       -15.8980   11.3680    4.3360 C.2    93  ASP93       0.3668
     61  OD1      -16.0720   12.5800    4.0650 O.co2  93  ASP93      -0.2456
     62  OD2      -15.4350   10.5410    3.5180 O.co2  93  ASP93      -0.2456
     63  N        -16.7250    6.7940   10.0340 N.3    95  SER95      -0.1217
     64  CA       -16.0960    5.5370   10.3970 C.3    95  SER95       0.1889
     65  C        -16.5240    5.1780   11.8020 C.2    95  SER95       0.2288
     66  O        -16.7940    6.0500   12.6280 O.2    95  SER95      -0.2866
     67  CB       -14.5740    5.6080   10.2770 C.3    95  SER95       0.2089
     68  OG       -14.0400    6.6500   11.0790 O.3    95  SER95      -0.2183
     69  N        -15.7380    2.5460   15.1200 N.3    97  HIS97      -0.1241
     70  CA       -14.6510    1.7660   15.6910 C.3    97  HIS97       0.1621
     71  C        -15.0020    1.1940   17.0630 C.2    97  HIS97       0.2264
     72  O        -14.5830    1.7260   18.0950 O.2    97  HIS97      -0.2867
     73  CB       -13.3930    2.6380   15.7680 C.3    97  HIS97       0.0745
     74  CG       -13.0750    3.3370   14.4860 C.ar   97  HIS97       0.0817
     75  ND1      -12.1580    2.8490   13.5770 N.ar   97  HIS97      -0.2268
     76  CD2      -13.5810    4.4670   13.9330 C.ar   97  HIS97       0.1154
     77  CE1      -12.1030    3.6560   12.5320 C.ar   97  HIS97       0.1986
     78  NE2      -12.9540    4.6460   12.7250 N.ar   97  HIS97      -0.2212
     79  N        -17.2670    6.3330    3.1110 N.3   146  TYR146     -0.1227
     80  CA       -16.5800    7.5480    2.6840 C.3   146  TYR146      0.1736
     81  C        -17.1120    8.1030    1.3630 C.2   146  TYR146      0.2595
     82  O        -17.6360    7.3620    0.5220 O.2   146  TYR146     -0.2718
     83  CB       -15.0790    7.2850    2.5500 C.3   146  TYR146      0.0548
     84  CG       -14.3210    7.1460    3.8640 C.ar  146  TYR146     -0.0200
     85  CD1      -14.8040    7.7040    5.0420 C.ar  146  TYR146     -0.0009
     86  CD2      -13.1110    6.4670    3.9110 C.ar  146  TYR146     -0.0009
     87  CE1      -14.1030    7.5770    6.2370 C.ar  146  TYR146      0.0417
     88  CE2      -12.4060    6.3340    5.0850 C.ar  146  TYR146      0.0417
     89  CZ       -12.9010    6.8920    6.2430 C.ar  146  TYR146      0.1957
     90  OH       -12.1770    6.7500    7.3970 O.3   146  TYR146     -0.2866
     91  N        -16.9460    9.4100    1.1820 N.am  147  ASN147     -0.1974
     92  CA       -17.3790   10.0870   -0.0320 C.3   147  ASN147      0.1688
     93  C        -18.8200    9.7350   -0.3720 C.2   147  ASN147      0.2292
     94  O        -19.1030    9.2110   -1.4430 O.2   147  ASN147     -0.2864
     95  CB       -16.4500    9.7510   -1.2040 C.3   147  ASN147      0.1181
     96  CG       -14.9870   10.0730   -0.9120 C.2   147  ASN147      0.2629
     97  OD1      -14.6580   10.6910    0.1010 O.2   147  ASN147     -0.2716
     98  ND2      -14.1020    9.6600   -1.8160 N.am  147  ASN147     -0.0877
     99  N        -11.4920   -1.5440    8.1910 N.3   155  PHE155     -0.1241
    100  CA       -10.0580   -1.4140    8.4100 C.3   155  PHE155      0.1605
    101  C         -9.5500   -2.7490    8.9480 C.2   155  PHE155      0.2264
    102  O        -10.3200   -3.5170    9.5280 O.2   155  PHE155     -0.2867
    103  CB        -9.7550   -0.2730    9.3920 C.3   155  PHE155      0.0534
    104  CG       -10.1620    1.0850    8.8880 C.ar  155  PHE155     -0.0203
    105  CD1       -9.4400    1.7100    7.8840 C.ar  155  PHE155     -0.0042
    106  CD2      -11.2650    1.7320    9.4130 C.ar  155  PHE155     -0.0042
    107  CE1       -9.8130    2.9590    7.4120 C.ar  155  PHE155     -0.0003
    108  CE2      -11.6400    2.9770    8.9460 C.ar  155  PHE155     -0.0003
    109  CZ       -10.9120    3.5910    7.9450 C.ar  155  PHE155     -0.0000
    110  N         -5.7960    3.0530   14.5630 N.3   161  VAL161     -0.1231
    111  CA        -6.2040    4.0210   13.5710 C.3   161  VAL161      0.1692
    112  C         -6.0240    5.4520   14.0700 C.2   161  VAL161      0.2591
    113  O         -5.4410    6.2910   13.3850 O.2   161  VAL161     -0.2718
    114  CB        -7.6590    3.7600   13.1550 C.3   161  VAL161      0.0266
    115  CG1       -8.3480    5.0500   12.8010 C.3   161  VAL161      0.0020
    116  CG2       -7.7040    2.7550   11.9960 C.3   161  VAL161      0.0020
    117  N         -6.5160    5.7290   15.2720 N.am  162  ILE162     -0.1980
    118  CA        -6.3780    7.0540   15.8550 C.3   162  ILE162      0.1595
    119  C         -6.1050    6.9120   17.3480 C.2   162  ILE162      0.2287
    120  O         -6.7470    6.1030   18.0240 O.2   162  ILE162     -0.2864
    121  CB        -7.6690    7.8840   15.6700 C.3   162  ILE162      0.0276
    122  CG1       -7.9400    8.1570   14.1910 C.3   162  ILE162      0.0022
    123  CG2       -7.5940    9.2000   16.4630 C.3   162  ILE162      0.0022
    124  CD1       -9.2350    8.9050   13.9430 C.3   162  ILE162      0.0001
    125  N         -3.2360   10.5930   14.2530 N.3   204  HIS204     -0.1241
    126  CA        -3.8380    9.9020   13.1220 C.3   204  HIS204      0.1621
    127  C         -2.7940    9.0220   12.4520 C.2   204  HIS204      0.2264
    128  O         -2.0520    9.4830   11.5820 O.2   204  HIS204     -0.2867
    129  CB        -4.3930   10.9040   12.1160 C.3   204  HIS204      0.0745
    130  CG        -5.8380   11.2290   12.3150 C.ar  204  HIS204      0.0817
    131  ND1       -6.3380   11.7040   13.5140 N.ar  204  HIS204     -0.2268
    132  CD2       -6.8940   11.1570   11.4770 C.ar  204  HIS204      0.1154
    133  CE1       -7.6340   11.9030   13.4030 C.ar  204  HIS204      0.1986
    134  NE2       -8.0020   11.5770   12.1630 N.ar  204  HIS204     -0.2212
    135  N         -2.7440    6.6280   10.2690 N.3   206  MET206     -0.1230
    136  CA        -2.8000    6.2960    8.8510 C.3   206  MET206      0.1702
    137  C         -2.5550    7.5190    7.9770 C.2   206  MET206      0.2592
    138  O         -2.6060    7.4420    6.7500 O.2   206  MET206     -0.2718
    139  CB        -4.1370    5.6430    8.5060 C.3   206  MET206      0.0401
    140  CG        -4.3000    4.2630    9.1150 C.3   206  MET206      0.0596
    141  SD        -5.8820    3.5090    8.7240 S.3   206  MET206     -0.1393
    142  CE        -5.5830    1.8190    9.2600 C.3   206  MET206      0.0692
    143  N         -2.2810    8.6470    8.6250 N.am  207  ARG207     -0.1980
    144  CA        -1.9730    9.8810    7.9180 C.3   207  ARG207      0.1597
    145  C         -0.6630   10.4920    8.4120 C.2   207  ARG207      0.2287
    146  O         -0.2190   11.5220    7.9050 O.2   207  ARG207     -0.2864
    147  CB        -3.1240   10.8750    8.0660 C.3   207  ARG207      0.0334
    148  CG        -4.4500   10.3440    7.5420 C.3   207  ARG207      0.0492
    149  CD        -5.5870   11.2940    7.8740 C.3   207  ARG207      0.2205
    150  NE        -5.4910   12.5250    7.1060 N.pl3 207  ARG207     -0.0865
    151  CZ        -6.3920   13.5010    7.1340 C.cat 207  ARG207      0.5346
    152  NH1       -7.4630   13.3990    7.9040 N.pl3 207  ARG207      0.1354
    153  NH2       -6.2220   14.5810    6.3850 N.pl3 207  ARG207      0.1354
    154  N         -2.4370   16.0480   15.6590 N.3   211  PHE211     -0.1241
    155  CA        -3.2220   17.2540   15.9000 C.3   211  PHE211      0.1605
    156  C         -3.1780   17.5970   17.3810 C.2   211  PHE211      0.2264
    157  O         -3.1880   16.7010   18.2300 O.2   211  PHE211     -0.2867
    158  CB        -4.6870   17.0610   15.4840 C.3   211  PHE211      0.0534
    159  CG        -4.8730   16.6970   14.0370 C.ar  211  PHE211     -0.0203
    160  CD1       -4.8600   17.6780   13.0500 C.ar  211  PHE211     -0.0042
    161  CD2       -5.0740   15.3780   13.6590 C.ar  211  PHE211     -0.0042
    162  CE1       -5.0310   17.3480   11.7070 C.ar  211  PHE211     -0.0003
    163  CE2       -5.2490   15.0390   12.3140 C.ar  211  PHE211     -0.0003
    164  CZ        -5.2270   16.0300   11.3400 C.ar  211  PHE211     -0.0000
@<TRIPOS>BOND
     1    98    96   am
     2    94    93    2
     3    95    96    1
     4    95    92    1
     5    96    97    2
     6    93    92    1
     7    92    91    1
     8    82    81    2
     9    91    81   am
    10    81    80    1
    11    50    49    2
    12    83    80    1
    13    83    84    1
    14    80    79    1
    15    49    48    1
    16    51    48    1
    17    51    52    1
    18    62    60   ar
    19    48    47    1
    20    52    53    1
    21    84    86   ar
    22    84    85   ar
    23    86    88   ar
    24    61    60   ar
    25    60    59    1
    26    54    53    1
    27    85    87   ar
    28    88    89   ar
    29    55    56    1
    30    59    56    1
    31    56    57    1
    32    87    89   ar
    33    89    90    1
    34   153   151    1
    35   138   137    2
    36    42    41    2
    37   150   151    2
    38   150   149    1
    39   151   152    1
    40    57    58    2
    41   107   105   ar
    42   107   109   ar
    43   148   149    1
    44   148   147    1
    45    41    40    1
    46   105   104   ar
    47    43    40    1
    48    43    44    1
    49   146   145    2
    50   144   147    1
    51   144   145    1
    52   144   143    1
    53   109   108   ar
    54   137   143   am
    55   137   136    1
    56    46    44   ar
    57    99   100    1
    58    15    13    1
    59   100   101    1
    60   100   103    1
    61   139   136    1
    62   139   140    1
    63    40    39    1
    64    44    45   ar
    65   141   140    1
    66   141   142    1
    67   136   135    1
    68   104   103    1
    69   104   106   ar
    70    13    10    1
    71    13    14    1
    72   108   106   ar
    73   101   102    2
    74    12    11    2
    75    16    14    1
    76    10    11    1
    77    10     9    1
    78    63    64    1
    79    11    17   am
    80    67    64    1
    81    67    68    1
    82    64    65    1
    83    34    33    2
    84   164   162   ar
    85   164   163   ar
    86    17    18    1
    87   132   134   ar
    88   132   130   ar
    89   128   127    2
    90   162   160   ar
    91    21    18    1
    92    21    22    1
    93    37    36    2
    94    65    66    2
    95    18    19    1
    96     8     6    1
    97   116   114    1
    98    33    32    1
    99   129   130    1
   100   129   126    1
   101   134   133   ar
   102    38    36   am
   103    36    35    1
   104   163   161   ar
   105   130   131   ar
   106   127   126    1
   107    77    78   ar
   108    77    75   ar
   109    78    76   ar
   110   115   114    1
   111    35    32    1
   112     6     5    1
   113     6     7    1
   114   160   159   ar
   115   126   125    1
   116   114   111    1
   117     4     3    2
   118    32    31    1
   119    19    20    2
   120   113   112    2
   121   133   131   ar
   122     5     2    1
   123   111   112    1
   124   111   110    1
   125    75    74   ar
   126     3     2    1
   127   161   159   ar
   128    76    74   ar
   129   124   122    1
   130   159   158    1
   131   112   117   am
   132   122   121    1
   133     2     1    1
   134    29    28    1
   135    74    73    1
   136    69    70    1
   137   117   118    1
   138    28    30    1
   139    28    27    1
   140   158   155    1
   141   154   155    1
   142   121   118    1
   143   121   123    1
   144    70    73    1
   145    70    71    1
   146   118   119    1
   147   155   156    1
   148    23    24    1
   149    27    24    1
   150    24    25    1
   151    71    72    2
   152   119   120    2
   153   156   157    2
   154    25    26    2
