@<TRIPOS>MOLECULE
tmp/4dccA00.pdb
 110 105 0 0 0
SMALL
GASTEIGER

@<TRIPOS>ATOM
      1  N          4.4890    4.3240   16.7580 N.3    10  LEU10      -0.1231
      2  CA         3.3670    4.3760   15.8270 C.3    10  LEU10       0.1693
      3  C          2.1480    5.0420   16.4680 C.2    10  LEU10       0.2592
      4  O          1.7330    6.1340   16.0420 O.2    10  LEU10      -0.2718
      5  CB         3.0120    2.9280   15.3960 C.3    10  LEU10       0.0284
      6  CG         1.7780    2.8260   14.5070 C.3    10  LEU10       0.0019
      7  CD1        1.9590    3.6050   13.2140 C.3    10  LEU10       0.0001
      8  CD2        1.5380    1.3050   14.2090 C.3    10  LEU10       0.0001
      9  N          1.5840    4.4130   17.5110 N.am   11  GLY11      -0.1957
     10  CA         0.3700    4.9320   18.1600 C.3    11  GLY11       0.1869
     11  C          0.5660    6.3360   18.7420 C.2    11  GLY11       0.2309
     12  O          1.5100    6.5820   19.5000 O.2    11  GLY11      -0.2863
     13  N          0.1220    7.7050   14.2080 N.3    15  ILE15      -0.1245
     14  CA        -1.2960    7.5000   13.9190 C.3    15  ILE15       0.1561
     15  C         -2.2040    7.9730   15.0670 C.2    15  ILE15       0.2260
     16  O         -2.0260    7.6590   16.2500 O.2    15  ILE15      -0.2867
     17  CB        -1.5840    6.0100   13.4980 C.3    15  ILE15       0.0252
     18  CG1       -3.0230    5.9210   12.9830 C.3    15  ILE15       0.0019
     19  CG2       -1.3460    5.0900   14.6570 C.3    15  ILE15       0.0019
     20  CD1       -3.2470    4.7990   12.0120 C.3    15  ILE15       0.0001
     21  N         -5.3940    8.0010   17.3860 N.3    17  LEU17      -0.1245
     22  CA        -6.1920    6.8890   17.9340 C.3    17  LEU17       0.1561
     23  C         -7.5100    7.3590   18.5200 C.2    17  LEU17       0.2260
     24  O         -7.6390    8.5130   18.9410 O.2    17  LEU17      -0.2867
     25  CB        -5.4010    6.1840   19.0260 C.3    17  LEU17       0.0270
     26  CG        -4.0210    5.6850   18.6040 C.3    17  LEU17       0.0019
     27  CD1       -3.2920    5.0950   19.8080 C.3    17  LEU17       0.0001
     28  CD2       -4.1660    4.6660   17.5130 C.3    17  LEU17       0.0001
     29  N         -0.6100   -8.2720   21.7510 N.3    51  GLU51      -0.1245
     30  CA         0.3730   -7.2190   21.5920 C.3    51  GLU51       0.1567
     31  C          1.7780   -7.8090   21.5730 C.2    51  GLU51       0.2260
     32  O          2.6850   -7.2450   20.9620 O.2    51  GLU51      -0.2867
     33  CB         0.2070   -6.2330   22.7390 C.3    51  GLU51       0.0388
     34  CG         1.2280   -5.1330   22.7810 C.3    51  GLU51       0.1160
     35  CD         1.0610   -4.2470   24.0110 C.2    51  GLU51       0.3649
     36  OE1        1.2580   -4.7290   25.1520 O.co2  51  GLU51      -0.2457
     37  OE2        0.7390   -3.0560   23.8300 O.co2  51  GLU51      -0.2457
     38  N        -12.1790   -3.4140   15.6580 N.3    81  TRP81      -0.1241
     39  CA       -10.8290   -3.2590   16.2090 C.3    81  TRP81       0.1605
     40  C        -10.0200   -2.1700   15.4720 C.2    81  TRP81       0.2264
     41  O         -9.3450   -1.3450   16.1100 O.2    81  TRP81      -0.2867
     42  CB       -10.1310   -4.6320   16.1520 C.3    81  TRP81       0.0550
     43  CG        -8.7320   -4.6800   16.7550 C.ar   81  TRP81       0.0003
     44  CD1       -7.5880   -5.1120   16.1330 C.ar   81  TRP81       0.0946
     45  CD2       -8.3590   -4.3190   18.0800 C.ar   81  TRP81       0.0152
     46  NE1       -6.5330   -5.0190   16.9920 N.ar   81  TRP81      -0.2442
     47  CE2       -6.9740   -4.5320   18.1930 C.ar   81  TRP81       0.0810
     48  CE3       -9.0590   -3.8080   19.1810 C.ar   81  TRP81       0.0012
     49  CZ2       -6.2730   -4.2580   19.3620 C.ar   81  TRP81       0.0191
     50  CZ3       -8.3600   -3.5250   20.3380 C.ar   81  TRP81       0.0001
     51  CH2       -6.9780   -3.7590   20.4240 C.ar   81  TRP81       0.0015
     52  N        -10.1340    1.6790   16.0920 N.3    84  PHE84      -0.1227
     53  CA        -9.2680    2.3440   17.0600 C.3    84  PHE84       0.1736
     54  C         -8.3030    3.2880   16.3170 C.2    84  PHE84       0.2595
     55  O         -7.8930    4.3270   16.8310 O.2    84  PHE84      -0.2718
     56  CB        -8.4810    1.2720   17.8240 C.3    84  PHE84       0.0547
     57  CG        -7.6560    1.8150   18.9600 C.ar   84  PHE84      -0.0202
     58  CD1       -8.2280    2.5910   19.9430 C.ar   84  PHE84      -0.0042
     59  CD2       -6.2940    1.5490   19.0300 C.ar   84  PHE84      -0.0042
     60  CE1       -7.4720    3.0760   20.9950 C.ar   84  PHE84      -0.0003
     61  CE2       -5.5290    2.0450   20.0760 C.ar   84  PHE84      -0.0003
     62  CZ        -6.1290    2.8080   21.0620 C.ar   84  PHE84      -0.0000
     63  N         -7.9510    2.9050   15.1000 N.am   85  LEU85      -0.1980
     64  CA        -6.9850    3.6530   14.2880 C.3    85  LEU85       0.1596
     65  C         -7.7190    4.7320   13.5160 C.2    85  LEU85       0.2287
     66  O         -8.7460    4.4620   12.9020 O.2    85  LEU85      -0.2864
     67  CB        -6.3130    2.7110   13.2980 C.3    85  LEU85       0.0297
     68  CG        -5.7180    1.4800   14.0010 C.3    85  LEU85       0.0022
     69  CD1       -5.1270    0.5450   12.9200 C.3    85  LEU85       0.0001
     70  CD2       -4.6770    1.8870   15.0190 C.3    85  LEU85       0.0001
     71  N          4.4770   -0.8470   20.0030 N.3   110  ASN110     -0.1225
     72  CA         3.6200   -1.9210   20.5250 C.3   110  ASN110      0.1785
     73  C          2.3750   -1.9220   19.6780 C.2   110  ASN110      0.2598
     74  O          1.6170   -0.9460   19.6590 O.2   110  ASN110     -0.2718
     75  CB         3.1840   -1.7720   21.9840 C.3   110  ASN110      0.1169
     76  CG         4.3080   -1.9130   22.9920 C.2   110  ASN110      0.2627
     77  OD1        5.4380   -2.2510   22.6630 O.2   110  ASN110     -0.2716
     78  ND2        3.9960   -1.5720   24.2410 N.am  110  ASN110     -0.0877
     79  N          2.1570   -3.0170   18.9600 N.am  111  THR111     -0.1939
     80  CA         1.0150   -3.1000   18.0940 C.3   111  THR111      0.2028
     81  C          0.7280   -4.5600   17.8420 C.2   111  THR111      0.2642
     82  O          1.2980   -5.4300   18.5070 O.2   111  THR111     -0.2714
     83  CB         1.2090   -2.3280   16.7380 C.3   111  THR111      0.1808
     84  OG1       -0.0120   -2.3760   15.9730 O.3   111  THR111     -0.2208
     85  CG2        2.3700   -2.9220   15.9090 C.3   111  THR111      0.0379
     86  N         -0.1840   -4.8280   16.9230 N.am  112  ASN112     -0.1971
     87  CA        -0.6240   -6.2150   16.7040 C.3   112  ASN112      0.1688
     88  C         -0.8350   -6.4910   15.2200 C.2   112  ASN112      0.2292
     89  O         -0.9290   -5.5740   14.4070 O.2   112  ASN112     -0.2864
     90  CB        -1.9240   -6.4460   17.4950 C.3   112  ASN112      0.1181
     91  CG        -3.0030   -5.4260   17.1330 C.2   112  ASN112      0.2629
     92  OD1       -3.7490   -5.6070   16.1590 O.2   112  ASN112     -0.2716
     93  ND2       -3.0420   -4.3240   17.8790 N.am  112  ASN112     -0.0877
     94  N         -3.9320   -4.6030   13.4040 N.3   115  HIS115     -0.1241
     95  CA        -3.6900   -3.1470   13.2640 C.3   115  HIS115      0.1621
     96  C         -2.5630   -2.8880   12.2700 C.2   115  HIS115      0.2264
     97  O         -2.6470   -1.9740   11.4460 O.2   115  HIS115     -0.2867
     98  CB        -3.3440   -2.4930   14.6000 C.3   115  HIS115      0.0745
     99  CG        -4.5400   -2.1580   15.4370 C.ar  115  HIS115      0.0817
    100  ND1       -4.4450   -1.8510   16.7640 N.ar  115  HIS115     -0.2268
    101  CD2       -5.8610   -2.1170   15.1260 C.ar  115  HIS115      0.1154
    102  CE1       -5.6540   -1.6080   17.2440 C.ar  115  HIS115      0.1986
    103  NE2       -6.5280   -1.7680   16.2670 N.ar  115  HIS115     -0.2212
    104  N         -2.6040   -0.4140    8.9290 N.3   119  VAL119     -0.1245
    105  CA        -1.8490    0.8240    8.6630 C.3   119  VAL119      0.1561
    106  C         -1.0130    0.6700    7.3960 C.2   119  VAL119      0.2260
    107  O         -0.8280    1.6090    6.6410 O.2   119  VAL119     -0.2867
    108  CB        -0.9780    1.2560    9.8840 C.3   119  VAL119      0.0252
    109  CG1       -1.8790    1.6170   11.0750 C.3   119  VAL119      0.0019
    110  CG2        0.0010    0.1780   10.2840 C.3   119  VAL119      0.0019
@<TRIPOS>BOND
     1   107   106    2
     2   106   105    1
     3   105   104    1
     4   105   108    1
     5   108   110    1
     6   108   109    1
     7    97    96    2
     8    20    18    1
     9    96    95    1
    10    66    65    2
    11    69    68    1
    12    18    17    1
    13     7     6    1
    14    95    94    1
    15    95    98    1
    16    67    68    1
    17    67    64    1
    18    17    14    1
    19    17    19    1
    20    65    64    1
    21    14    13    1
    22    14    15    1
    23    68    70    1
    24     8     6    1
    25    64    63    1
    26    89    88    2
    27     6     5    1
    28    98    99    1
    29    15    16    2
    30    63    54   am
    31   101    99   ar
    32   101   103   ar
    33    88    87    1
    34     5     2    1
    35    99   100   ar
    36    40    41    2
    37    40    39    1
    38    38    39    1
    39     2     3    1
    40     2     1    1
    41    85    83    1
    42    84    83    1
    43     4     3    2
    44    52    53    1
    45    44    43   ar
    46    44    46   ar
    47    42    39    1
    48    42    43    1
    49    92    91    2
    50   103   102   ar
    51    54    55    2
    52    54    53    1
    53     3     9   am
    54    87    86    1
    55    87    90    1
    56    83    80    1
    57    43    45   ar
    58   100   102   ar
    59    86    81   am
    60    46    47   ar
    61    53    56    1
    62    91    90    1
    63    91    93   am
    64    21    22    1
    65     9    10    1
    66    28    26    1
    67    56    57    1
    68    81    80    1
    69    81    82    2
    70    22    23    1
    71    22    25    1
    72    45    47   ar
    73    45    48   ar
    74    80    79    1
    75    10    11    1
    76    47    49   ar
    77    23    24    2
    78    26    25    1
    79    26    27    1
    80    11    12    2
    81    57    59   ar
    82    57    58   ar
    83    79    73   am
    84    59    61   ar
    85    48    50   ar
    86    49    51   ar
    87    74    73    2
    88    73    72    1
    89    58    60   ar
    90    71    72    1
    91    61    62   ar
    92    50    51   ar
    93    72    75    1
    94    32    31    2
    95    60    62   ar
    96    31    30    1
    97    30    29    1
    98    30    33    1
    99    75    76    1
   100    77    76    2
   101    33    34    1
   102    34    35    1
   103    76    78   am
   104    37    35   ar
   105    35    36   ar
