@<TRIPOS>MOLECULE
tmp/4dceB00.pdb
 198 187 0 0 0
SMALL
GASTEIGER

@<TRIPOS>ATOM
      1  N         36.0940   28.1640   46.1100 N.3    29  LEU29      -0.1231
      2  CA        35.8050   29.2230   47.0840 C.3    29  LEU29       0.1693
      3  C         34.3510   29.1790   47.5670 C.2    29  LEU29       0.2592
      4  O         34.0780   28.7150   48.6750 O.2    29  LEU29      -0.2718
      5  CB        36.1490   30.6140   46.5220 C.3    29  LEU29       0.0284
      6  CG        37.6000   30.9670   46.1580 C.3    29  LEU29       0.0019
      7  CD1       37.6520   32.2840   45.3910 C.3    29  LEU29       0.0001
      8  CD2       38.5130   31.0280   47.3790 C.3    29  LEU29       0.0001
      9  N         33.4280   29.6490   46.7290 N.am   30  GLY30      -0.1957
     10  CA        32.0080   29.7320   47.0870 C.3    30  GLY30       0.1869
     11  C         31.1350   28.7090   46.3840 C.2    30  GLY30       0.2309
     12  O         31.2360   28.5330   45.1680 O.2    30  GLY30      -0.2863
     13  N         32.5590   28.9720   42.1990 N.3    33  VAL33      -0.1245
     14  CA        33.6220   29.9600   42.0540 C.3    33  VAL33       0.1561
     15  C         34.9340   29.3820   42.5870 C.2    33  VAL33       0.2260
     16  O         34.9510   28.6960   43.6150 O.2    33  VAL33      -0.2867
     17  CB        33.2860   31.2790   42.7900 C.3    33  VAL33       0.0252
     18  CG1       34.3110   32.3620   42.4550 C.3    33  VAL33       0.0019
     19  CG2       31.8810   31.7520   42.4300 C.3    33  VAL33       0.0019
     20  N         39.7450   35.3560   40.6470 N.3    45  ALA45      -0.1245
     21  CA        38.6520   34.4410   40.9330 C.3    45  ALA45       0.1562
     22  C         38.0410   33.9920   39.6090 C.2    45  ALA45       0.2260
     23  O         37.9260   34.7780   38.6650 O.2    45  ALA45      -0.2867
     24  CB        37.6150   35.0940   41.8040 C.3    45  ALA45       0.0290
     25  N         34.7200   32.4010   38.0070 N.3    47  LYS47      -0.1245
     26  CA        33.3230   32.0130   38.0940 C.3    47  LYS47       0.1561
     27  C         32.9900   31.1230   36.9020 C.2    47  LYS47       0.2260
     28  O         33.2170   31.4990   35.7480 O.2    47  LYS47      -0.2867
     29  CB        32.4230   33.2440   38.1080 C.3    47  LYS47       0.0271
     30  CG        30.9420   32.9120   38.2080 C.3    47  LYS47       0.0035
     31  CD        30.1080   34.1580   38.0470 C.3    47  LYS47       0.0206
     32  CE        28.6580   33.8850   38.3920 C.3    47  LYS47       0.1093
     33  NZ        28.0690   35.0510   39.0920 N.3    47  LYS47      -0.1314
     34  N         25.7210   38.9910   32.3560 N.3    64  GLU64      -0.1245
     35  CA        26.4080   39.3420   33.6050 C.3    64  GLU64       0.1567
     36  C         27.8590   39.7440   33.3350 C.2    64  GLU64       0.2260
     37  O         28.3440   40.7550   33.8580 O.2    64  GLU64      -0.2867
     38  CB        26.3640   38.1750   34.6000 C.3    64  GLU64       0.0388
     39  CG        26.5230   38.5990   36.0580 C.3    64  GLU64       0.1160
     40  CD        26.9590   37.4640   36.9690 C.2    64  GLU64       0.3649
     41  OE1       28.0200   36.8530   36.7070 O.co2  64  GLU64      -0.2457
     42  OE2       26.2500   37.1910   37.9590 O.co2  64  GLU64      -0.2457
     43  N         29.2980   43.3970   34.3050 N.3    68  ILE68      -0.1245
     44  CA        30.4400   43.5590   35.2160 C.3    68  ILE68       0.1561
     45  C         31.6300   44.2180   34.5140 C.2    68  ILE68       0.2260
     46  O         32.2670   45.1070   35.0730 O.2    68  ILE68      -0.2867
     47  CB        30.8890   42.2150   35.8660 C.3    68  ILE68       0.0252
     48  CG1       29.7320   41.5440   36.6070 C.3    68  ILE68       0.0019
     49  CG2       32.0550   42.4440   36.8290 C.3    68  ILE68       0.0019
     50  CD1       29.9150   40.0360   36.7720 C.3    68  ILE68       0.0001
     51  N         31.5170   48.1110   34.3780 N.3    71  PHE71      -0.1241
     52  CA        31.6930   48.8780   35.6180 C.3    71  PHE71       0.1605
     53  C         33.1590   49.2550   35.7650 C.2    71  PHE71       0.2264
     54  O         34.0350   48.4110   35.6000 O.2    71  PHE71      -0.2867
     55  CB        31.2390   48.0970   36.8560 C.3    71  PHE71       0.0534
     56  CG        29.7640   47.8300   36.9110 C.ar   71  PHE71      -0.0203
     57  CD1       28.8450   48.7870   36.4970 C.ar   71  PHE71      -0.0042
     58  CD2       29.2930   46.6230   37.4160 C.ar   71  PHE71      -0.0042
     59  CE1       27.4750   48.5310   36.5560 C.ar   71  PHE71      -0.0003
     60  CE2       27.9250   46.3580   37.4780 C.ar   71  PHE71      -0.0003
     61  CZ        27.0170   47.3190   37.0510 C.ar   71  PHE71      -0.0000
     62  N         33.8180   48.3250   43.2230 N.3    76  ILE76      -0.1231
     63  CA        33.0680   47.3330   42.4710 C.3    76  ILE76       0.1692
     64  C         34.0660   46.3160   41.9170 C.2    76  ILE76       0.2591
     65  O         35.0220   46.6810   41.2310 O.2    76  ILE76      -0.2718
     66  CB        32.1900   47.9790   41.3580 C.3    76  ILE76       0.0266
     67  CG1       31.0970   48.8500   41.9950 C.3    76  ILE76       0.0019
     68  CG2       31.5270   46.9030   40.4860 C.3    76  ILE76       0.0020
     69  CD1       30.6770   50.0080   41.1670 C.3    76  ILE76       0.0001
     70  N         33.8500   45.0490   42.2620 N.am   77  VAL77      -0.1980
     71  CA        34.7280   43.9490   41.8600 C.3    77  VAL77       0.1595
     72  C         34.9310   43.9190   40.3420 C.2    77  VAL77       0.2287
     73  O         33.9640   43.8680   39.5860 O.2    77  VAL77      -0.2864
     74  CB        34.1870   42.5890   42.3710 C.3    77  VAL77       0.0276
     75  CG1       34.9320   41.4160   41.7340 C.3    77  VAL77       0.0022
     76  CG2       34.2800   42.5260   43.9030 C.3    77  VAL77       0.0022
     77  N         37.3970   37.2540   37.5700 N.3    93  LEU93      -0.1231
     78  CA        37.1360   38.3900   38.4500 C.3    93  LEU93       0.1693
     79  C         38.3270   38.7280   39.3330 C.2    93  LEU93       0.2592
     80  O         39.1490   37.8670   39.6400 O.2    93  LEU93      -0.2718
     81  CB        35.9320   38.0930   39.3450 C.3    93  LEU93       0.0284
     82  CG        34.6290   37.6220   38.6980 C.3    93  LEU93       0.0019
     83  CD1       33.6970   37.0750   39.7540 C.3    93  LEU93       0.0001
     84  CD2       33.9720   38.7620   37.9440 C.3    93  LEU93       0.0001
     85  N         38.4000   39.9940   39.7350 N.am   94  GLU94      -0.1966
     86  CA        39.3030   40.4520   40.7850 C.3    94  GLU94       0.1733
     87  C         39.1830   39.5130   41.9900 C.2    94  GLU94       0.2616
     88  O         38.0800   39.2500   42.4640 O.2    94  GLU94      -0.2715
     89  CB        38.9220   41.8840   41.1540 C.3    94  GLU94       0.0429
     90  CG        39.6850   42.5040   42.3030 C.3    94  GLU94       0.1163
     91  CD        39.1360   43.8590   42.6820 C.2    94  GLU94       0.3649
     92  OE1       39.7470   44.5300   43.5290 O.co2  94  GLU94      -0.2457
     93  OE2       38.0910   44.2650   42.1280 O.co2  94  GLU94      -0.2457
     94  N         40.3090   38.9750   42.4580 N.am   95  LEU95      -0.1963
     95  CA        40.2760   38.0680   43.6060 C.3    95  LEU95       0.1728
     96  C         40.1090   38.8510   44.9060 C.2    95  LEU95       0.2616
     97  O         40.8500   39.8020   45.1710 O.2    95  LEU95      -0.2715
     98  CB        41.5230   37.1760   43.6600 C.3    95  LEU95       0.0311
     99  CG        41.6500   36.1970   44.8390 C.3    95  LEU95       0.0022
    100  CD1       40.4700   35.2420   44.9300 C.3    95  LEU95       0.0001
    101  CD2       42.9600   35.4210   44.7600 C.3    95  LEU95       0.0001
    102  N         39.1250   38.4550   45.7070 N.am   96  MET96      -0.1963
    103  CA        38.8670   39.1360   46.9710 C.3    96  MET96       0.1736
    104  C         39.2140   38.2030   48.1310 C.2    96  MET96       0.2616
    105  O         38.4190   37.3480   48.5110 O.2    96  MET96      -0.2715
    106  CB        37.4170   39.6330   47.0310 C.3    96  MET96       0.0427
    107  CG        37.0020   40.5200   45.8460 C.3    96  MET96       0.0599
    108  SD        37.7720   42.1520   45.8330 S.3    96  MET96      -0.1393
    109  CE        36.8830   42.9610   47.1520 C.3    96  MET96       0.0692
    110  N         40.4270   38.3650   48.6670 N.am   97  ALA97      -0.1963
    111  CA        40.9870   37.4460   49.6720 C.3    97  ALA97       0.1728
    112  C         40.2990   37.4870   51.0410 C.2    97  ALA97       0.2617
    113  O         40.4420   36.5550   51.8380 O.2    97  ALA97      -0.2715
    114  CB        42.4990   37.6690   49.8230 C.3    97  ALA97       0.0334
    115  N         39.5580   38.5570   51.3160 N.am   98  GLY98      -0.1940
    116  CA        38.8150   38.6670   52.5760 C.3    98  GLY98       0.2014
    117  C         37.4340   38.0220   52.5800 C.2    98  GLY98       0.2639
    118  O         36.7320   38.0730   53.5890 O.2    98  GLY98      -0.2714
    119  N         37.0320   37.4300   51.4530 N.am   99  GLY99      -0.1939
    120  CA        35.7210   36.7840   51.3420 C.3    99  GLY99       0.2014
    121  C         34.5660   37.7650   51.4590 C.2    99  GLY99       0.2638
    122  O         34.7640   38.9770   51.3400 O.2    99  GLY99      -0.2714
    123  N         33.3630   37.2400   51.6920 N.am  100  ASP100     -0.1971
    124  CA        32.1650   38.0740   51.8230 C.3   100  ASP100      0.1709
    125  C         32.0310   38.7230   53.1970 C.2   100  ASP100      0.2293
    126  O         32.4940   38.1900   54.2120 O.2   100  ASP100     -0.2864
    127  CB        30.8830   37.3160   51.4400 C.3   100  ASP100      0.1436
    128  CG        30.4390   36.3310   52.5020 C.2   100  ASP100      0.3671
    129  OD1       31.0110   35.2230   52.5680 O.co2 100  ASP100     -0.2456
    130  OD2       29.5100   36.6670   53.2670 O.co2 100  ASP100     -0.2456
    131  N         27.0730   53.5740   40.9530 N.3   137  LEU137     -0.1245
    132  CA        25.9140   52.9660   40.2900 C.3   137  LEU137      0.1561
    133  C         24.7670   53.9570   40.0840 C.2   137  LEU137      0.2260
    134  O         24.1830   54.0230   39.0050 O.2   137  LEU137     -0.2867
    135  CB        25.4370   51.7230   41.0560 C.3   137  LEU137      0.0270
    136  CG        26.4370   50.5550   41.0630 C.3   137  LEU137      0.0019
    137  CD1       25.9640   49.3960   41.9380 C.3   137  LEU137      0.0001
    138  CD2       26.7550   50.0720   39.6430 C.3   137  LEU137      0.0001
    139  N         21.0210   48.2380   41.4490 N.3   144  HIS144     -0.1241
    140  CA        21.5620   46.9370   41.8180 C.3   144  HIS144      0.1621
    141  C         20.4850   45.9360   42.2230 C.2   144  HIS144      0.2264
    142  O         20.5080   44.7910   41.7680 O.2   144  HIS144     -0.2867
    143  CB        22.6030   47.0630   42.9330 C.3   144  HIS144      0.0745
    144  CG        23.3120   45.7800   43.2240 C.ar  144  HIS144      0.0817
    145  ND1       22.7410   44.7670   43.9610 N.ar  144  HIS144     -0.2268
    146  CD2       24.5340   45.3310   42.8530 C.ar  144  HIS144      0.1154
    147  CE1       23.5820   43.7520   44.0420 C.ar  144  HIS144      0.1986
    148  NE2       24.6790   44.0680   43.3790 N.ar  144  HIS144     -0.2212
    149  N         26.0110   39.8730   52.2420 N.3   150  ARG150     -0.1245
    150  CA        26.4220   38.6680   51.5180 C.3   150  ARG150      0.1563
    151  C         26.9310   38.9700   50.0930 C.2   150  ARG150      0.2260
    152  O         27.6600   38.1620   49.5100 O.2   150  ARG150     -0.2867
    153  CB        25.2690   37.6420   51.4680 C.3   150  ARG150      0.0307
    154  CG        24.0770   38.1040   50.6420 C.3   150  ARG150      0.0489
    155  CD        22.9140   37.1290   50.6370 C.3   150  ARG150      0.2205
    156  NE        21.8120   37.6600   49.8300 N.pl3 150  ARG150     -0.0865
    157  CZ        20.8720   38.4880   50.2860 C.cat 150  ARG150      0.5346
    158  NH1       20.8820   38.8830   51.5510 N.pl3 150  ARG150      0.1354
    159  NH2       19.9150   38.9180   49.4800 N.pl3 150  ARG150      0.1354
    160  N         32.1850   41.9760   49.0360 N.3   153  LEU153     -0.1245
    161  CA        33.4000   41.1970   49.2100 C.3   153  LEU153      0.1561
    162  C         34.5050   42.1070   49.7400 C.2   153  LEU153      0.2260
    163  O         34.4340   43.3300   49.5920 O.2   153  LEU153     -0.2867
    164  CB        33.8090   40.5130   47.8900 C.3   153  LEU153      0.0270
    165  CG        32.8240   39.5400   47.2170 C.3   153  LEU153      0.0019
    166  CD1       33.3730   38.9900   45.9030 C.3   153  LEU153      0.0001
    167  CD2       32.4360   38.3880   48.1340 C.3   153  LEU153      0.0001
    168  N         31.1750   46.0500   46.1700 N.3   165  ILE165     -0.1231
    169  CA        29.9990   45.3270   45.6920 C.3   165  ILE165      0.1692
    170  C         30.5100   44.2430   44.7480 C.2   165  ILE165      0.2593
    171  O         31.2120   44.5460   43.7810 O.2   165  ILE165     -0.2718
    172  CB        29.0100   46.2670   44.9470 C.3   165  ILE165      0.0266
    173  CG1       28.6180   47.4590   45.8380 C.3   165  ILE165      0.0019
    174  CG2       27.7760   45.4880   44.4910 C.3   165  ILE165      0.0020
    175  CD1       27.9080   48.5820   45.1070 C.3   165  ILE165      0.0001
    176  N         30.1700   42.9860   45.0250 N.am  166  GLY166     -0.1942
    177  CA        30.7980   41.8640   44.3260 C.3   166  GLY166      0.2014
    178  C         29.9190   40.6900   43.9520 C.2   166  GLY166      0.2639
    179  O         30.4180   39.6040   43.6740 O.2   166  GLY166     -0.2714
    180  N         28.6100   40.9140   43.9320 N.am  167  ASP167     -0.1957
    181  CA        27.6350   39.8900   43.5740 C.3   167  ASP167      0.1840
    182  C         26.2960   40.5570   43.2980 C.2   167  ASP167      0.2622
    183  O         25.9900   41.6090   43.8620 O.2   167  ASP167     -0.2715
    184  CB        27.4780   38.8790   44.7150 C.3   167  ASP167      0.1450
    185  CG        26.9770   37.5270   44.2470 C.2   167  ASP167      0.3671
    186  OD1       26.6430   37.3640   43.0540 O.co2 167  ASP167     -0.2456
    187  OD2       26.9330   36.6070   45.0860 O.co2 167  ASP167     -0.2456
    188  N         25.5110   39.9510   42.4140 N.am  168  PHE168     -0.1974
    189  CA        24.1300   40.3680   42.1900 C.3   168  PHE168      0.1639
    190  C         23.2360   39.4690   43.0240 C.2   168  PHE168      0.2290
    191  O         23.6880   38.4400   43.5230 O.2   168  PHE168     -0.2864
    192  CB        23.7440   40.2210   40.7140 C.3   168  PHE168      0.0560
    193  CG        24.3580   41.2520   39.8090 C.ar  168  PHE168     -0.0200
    194  CD1       24.1120   42.6070   40.0020 C.ar  168  PHE168     -0.0042
    195  CD2       25.1570   40.8610   38.7390 C.ar  168  PHE168     -0.0042
    196  CE1       24.6780   43.5610   39.1580 C.ar  168  PHE168     -0.0003
    197  CE2       25.7260   41.8070   37.8880 C.ar  168  PHE168     -0.0003
    198  CZ        25.4840   43.1610   38.0990 C.ar  168  PHE168     -0.0000
@<TRIPOS>BOND
     1    34    35    1
     2    36    35    1
     3    36    37    2
     4    35    38    1
     5    43    44    1
     6    51    52    1
     7    45    46    2
     8    45    44    1
     9    38    39    1
    10    44    47    1
    11    54    53    2
    12    52    53    1
    13    52    55    1
    14    28    27    2
    15    47    48    1
    16    47    49    1
    17    39    40    1
    18    57    59   ar
    19    57    56   ar
    20    59    61   ar
    21    48    50    1
    22    41    40   ar
    23    55    56    1
    24    27    26    1
    25    56    58   ar
    26    40    42   ar
    27    61    60   ar
    28    58    60   ar
    29    77    78    1
    30   197   198   ar
    31   197   195   ar
    32    84    82    1
    33    25    26    1
    34    31    30    1
    35    31    32    1
    36    26    29    1
    37   198   196   ar
    38    29    30    1
    39    32    33    1
    40    78    79    1
    41    78    81    1
    42    23    22    2
    43    82    81    1
    44    82    83    1
    45   195   193   ar
    46   134   133    2
    47   196   194   ar
    48    79    80    2
    49    79    85   am
    50    73    72    2
    51    22    21    1
    52   138   136    1
    53    85    86    1
    54   193   194   ar
    55   193   192    1
    56   133   132    1
    57   132   131    1
    58   132   135    1
    59    72    71    1
    60    68    66    1
    61    20    21    1
    62   192   189    1
    63    86    89    1
    64    86    87    1
    65    21    24    1
    66   135   136    1
    67   136   137    1
    68    89    90    1
    69    69    67    1
    70    65    64    2
    71    66    67    1
    72    66    63    1
    73   139   140    1
    74    75    74    1
    75   142   141    2
    76   140   141    1
    77   140   143    1
    78    71    70    1
    79    71    74    1
    80    64    70   am
    81    64    63    1
    82    87    94   am
    83    87    88    2
    84    14    13    1
    85    14    15    1
    86    14    17    1
    87    93    91   ar
    88   189   188    1
    89   189   190    1
    90    90    91    1
    91    74    76    1
    92   188   182   am
    93    19    17    1
    94    18    17    1
    95    94    95    1
    96    63    62    1
    97    15    16    2
    98    91    92   ar
    99   146   144   ar
   100   146   148   ar
   101   143   144    1
   102   190   191    2
   103   186   185   ar
   104   144   145   ar
   105   182   181    1
   106   182   183    2
   107   148   147   ar
   108   181   180    1
   109   181   184    1
   110    95    98    1
   111    95    96    1
   112    98    99    1
   113   179   178    2
   114   171   170    2
   115   180   178   am
   116   178   177    1
   117   145   147   ar
   118   185   184    1
   119   185   187   ar
   120   177   176    1
   121   174   172    1
   122   170   176   am
   123   170   169    1
   124   101    99    1
   125    99   100    1
   126    96    97    2
   127    96   102   am
   128   172   169    1
   129   172   173    1
   130   175   173    1
   131    12    11    2
   132     7     6    1
   133   169   168    1
   134   102   103    1
   135   108   107    1
   136   108   109    1
   137   107   106    1
   138   166   165    1
   139     1     2    1
   140     6     5    1
   141     6     8    1
   142    11    10    1
   143     5     2    1
   144     9    10    1
   145     9     3   am
   146   103   106    1
   147   103   104    1
   148     2     3    1
   149   165   164    1
   150   165   167    1
   151     3     4    2
   152   164   161    1
   153   104   105    2
   154   104   110   am
   155   110   111    1
   156   160   161    1
   157   161   162    1
   158   159   157    1
   159   152   151    2
   160   163   162    2
   161   111   114    1
   162   111   112    1
   163   156   157    2
   164   156   155    1
   165   151   150    1
   166   157   158    1
   167   155   154    1
   168   154   153    1
   169   112   115   am
   170   112   113    2
   171   115   116    1
   172   122   121    2
   173   120   119    1
   174   120   121    1
   175   127   124    1
   176   127   128    1
   177   119   117   am
   178   121   123   am
   179   153   150    1
   180   150   149    1
   181   123   124    1
   182   124   125    1
   183   128   129   ar
   184   128   130   ar
   185   116   117    1
   186   117   118    2
   187   125   126    2
