@<TRIPOS>MOLECULE
tmp/4dcfB00.pdb
 138 132 0 0 0
SMALL
GASTEIGER

@<TRIPOS>ATOM
      1  N         12.3020  -31.5550    6.4500 N.3     2  LEU2       -0.1231
      2  CA        11.4550  -30.9010    5.4760 C.3     2  LEU2        0.1693
      3  C         11.2580  -29.4660    5.8640 C.2     2  LEU2        0.2591
      4  O         11.0400  -28.6180    5.0110 O.2     2  LEU2       -0.2718
      5  CB        10.1030  -31.5990    5.3990 C.3     2  LEU2        0.0284
      6  CG        10.1610  -33.1090    5.6770 C.3     2  LEU2        0.0019
      7  CD1        9.1390  -33.4690    6.7430 C.3     2  LEU2        0.0001
      8  CD2       10.0090  -33.9900    4.4460 C.3     2  LEU2        0.0001
      9  N         11.3410  -29.1750    7.1530 N.am    3  VAL3       -0.1980
     10  CA        11.2160  -27.7860    7.5830 C.3     3  VAL3        0.1595
     11  C         12.3150  -26.9690    6.8920 C.2     3  VAL3        0.2287
     12  O         12.0580  -25.8760    6.4060 O.2     3  VAL3       -0.2864
     13  CB        11.2000  -27.6340    9.1370 C.3     3  VAL3        0.0276
     14  CG1       12.5960  -27.5840    9.7100 C.3     3  VAL3        0.0022
     15  CG2       10.4070  -26.4060    9.5580 C.3     3  VAL3        0.0022
     16  N         13.8230  -28.1940    4.1340 N.3     5  LEU5       -0.1231
     17  CA        13.5080  -28.3760    2.7350 C.3     5  LEU5        0.1693
     18  C         12.6070  -27.2400    2.2260 C.2     5  LEU5        0.2593
     19  O         12.9190  -26.6060    1.2180 O.2     5  LEU5       -0.2718
     20  CB        12.8990  -29.7490    2.4790 C.3     5  LEU5        0.0284
     21  CG        12.7100  -30.2310    1.0310 C.3     5  LEU5        0.0019
     22  CD1       13.9130  -29.8810    0.1390 C.3     5  LEU5        0.0001
     23  CD2       12.3960  -31.7300    0.9750 C.3     5  LEU5        0.0001
     24  N         11.5210  -26.9550    2.9370 N.am    6  GLY6       -0.1942
     25  CA        10.6040  -25.9060    2.5140 C.3     6  GLY6        0.2014
     26  C         11.2710  -24.5470    2.4050 C.2     6  GLY6        0.2638
     27  O         11.0630  -23.8150    1.4450 O.2     6  GLY6       -0.2714
     28  N         12.0910  -24.2200    3.3970 N.am    7  LYS7       -0.1977
     29  CA        12.7960  -22.9450    3.4420 C.3     7  LYS7        0.1596
     30  C         13.7200  -22.8330    2.2270 C.2     7  LYS7        0.2287
     31  O         13.8900  -21.7610    1.6400 O.2     7  LYS7       -0.2864
     32  CB        13.6000  -22.8070    4.7500 C.3     7  LYS7        0.0298
     33  CG        13.4470  -21.4350    5.4710 C.3     7  LYS7        0.0038
     34  CD        14.5430  -21.1590    6.5260 C.3     7  LYS7        0.0206
     35  CE        14.6130  -19.6610    6.8860 C.3     7  LYS7        0.1093
     36  NZ        16.0420  -19.1100    6.8530 N.3     7  LYS7       -0.1314
     37  N         13.3980  -24.4440   -0.8440 N.3     9  ILE9       -0.1231
     38  CA        12.5920  -24.3220   -2.0440 C.3     9  ILE9        0.1692
     39  C         11.9220  -22.9430   -2.2240 C.2     9  ILE9        0.2591
     40  O         11.8640  -22.4210   -3.3340 O.2     9  ILE9       -0.2718
     41  CB        11.5360  -25.4110   -2.0800 C.3     9  ILE9        0.0266
     42  CG1       12.2070  -26.7800   -2.1750 C.3     9  ILE9        0.0019
     43  CG2       10.5770  -25.1790   -3.2310 C.3     9  ILE9        0.0020
     44  CD1       11.2910  -27.9370   -1.7770 C.3     9  ILE9        0.0001
     45  N         11.4040  -22.3640   -1.1450 N.am   10  LEU10      -0.1980
     46  CA        10.8620  -21.0170   -1.2310 C.3    10  LEU10       0.1596
     47  C         11.9650  -20.0050   -1.5600 C.2    10  LEU10       0.2287
     48  O         11.7680  -19.0990   -2.3570 O.2    10  LEU10      -0.2864
     49  CB        10.0880  -20.6490    0.0440 C.3    10  LEU10       0.0297
     50  CG         9.7360  -19.1800    0.3130 C.3    10  LEU10       0.0022
     51  CD1        8.7940  -18.6090   -0.7270 C.3    10  LEU10       0.0001
     52  CD2        9.1410  -19.0210    1.6960 C.3    10  LEU10       0.0001
     53  N          5.7680  -21.1310   -3.0650 N.3    16  ASN16      -0.1226
     54  CA         5.4090  -21.8630   -1.8550 C.3    16  ASN16       0.1770
     55  C          5.6520  -23.3500   -2.0200 C.2    16  ASN16       0.2439
     56  O          4.9780  -24.0100   -2.8190 O.2    16  ASN16      -0.2733
     57  CB         3.9400  -21.6730   -1.4980 C.3    16  ASN16       0.1168
     58  CG         3.5750  -22.3330   -0.1770 C.2    16  ASN16       0.2627
     59  OD1        3.7440  -23.5590    0.0080 O.2    16  ASN16      -0.2716
     60  ND2        3.0840  -21.5160    0.7680 N.am   16  ASN16      -0.0877
     61  N          6.5900  -23.8910   -1.2340 N.am   17  PRO17      -0.2718
     62  CA         6.9280  -25.3040   -1.3680 C.3    17  PRO17       0.1535
     63  C          5.7000  -26.2510   -1.2610 C.2    17  PRO17       0.2598
     64  O          5.5370  -27.1390   -2.1170 O.2    17  PRO17      -0.2715
     65  CB         7.9460  -25.5340   -0.2370 C.3    17  PRO17       0.0310
     66  CG         7.7520  -24.3660    0.7160 C.3    17  PRO17       0.0237
     67  CD         7.3480  -23.2300   -0.1540 C.3    17  PRO17       0.0939
     68  N          4.8460  -26.0700   -0.2500 N.am   18  ALA18      -0.1978
     69  CA         3.7310  -27.0080   -0.0490 C.3    18  ALA18       0.1597
     70  C          2.7220  -26.9420   -1.2050 C.2    18  ALA18       0.2287
     71  O          2.3400  -27.9600   -1.7490 O.2    18  ALA18      -0.2864
     72  CB         3.0440  -26.7700    1.3020 C.3    18  ALA18       0.0319
     73  N          4.7210  -28.0160   -5.0260 N.3    21  TYR21      -0.1227
     74  CA         5.3510  -29.3020   -5.2370 C.3    21  TYR21       0.1736
     75  C          4.7970  -30.3060   -4.2630 C.2    21  TYR21       0.2596
     76  O          5.4440  -31.3150   -3.9690 O.2    21  TYR21      -0.2718
     77  CB         6.8550  -29.1890   -5.0440 C.3    21  TYR21       0.0548
     78  CG         7.4870  -28.0980   -5.8590 C.ar   21  TYR21      -0.0200
     79  CD1        7.7400  -28.2670   -7.2240 C.ar   21  TYR21      -0.0009
     80  CD2        7.8380  -26.8910   -5.2700 C.ar   21  TYR21      -0.0009
     81  CE1        8.3250  -27.2400   -7.9720 C.ar   21  TYR21       0.0417
     82  CE2        8.4170  -25.8680   -6.0130 C.ar   21  TYR21       0.0417
     83  CZ         8.6630  -26.0470   -7.3560 C.ar   21  TYR21       0.1957
     84  OH         9.2480  -25.0270   -8.0610 O.3    21  TYR21      -0.2866
     85  N          3.5930  -30.0250   -3.7670 N.am   22  GLY22      -0.1957
     86  CA         2.9450  -30.8590   -2.7710 C.3    22  GLY22       0.1869
     87  C          2.6710  -32.2210   -3.3470 C.2    22  GLY22       0.2309
     88  O          3.0830  -33.2330   -2.7740 O.2    22  GLY22      -0.2863
     89  N          7.9390  -35.5050   -6.1840 N.3    28  CYS28      -0.1221
     90  CA         7.2700  -34.2730   -5.7840 C.3    28  CYS28       0.1808
     91  C          6.2980  -34.1110   -4.6220 C.2    28  CYS28       0.2601
     92  O          5.0910  -33.9800   -4.8270 O.2    28  CYS28      -0.2717
     93  CB         6.9410  -33.2710   -6.8910 C.3    28  CYS28       0.0970
     94  SG         8.3880  -32.4990   -7.6530 S.3    28  CYS28      -0.0800
     95  N          6.8250  -34.1270   -3.4020 N.am   29  GLY29      -0.1957
     96  CA         5.9780  -34.0700   -2.2170 C.3    29  GLY29       0.1869
     97  C          5.6160  -35.4650   -1.7770 C.2    29  GLY29       0.2309
     98  O          6.0620  -35.9500   -0.7270 O.2    29  GLY29      -0.2863
     99  N         12.7040  -34.1300   -8.2510 N.3    44  CYS44      -0.1235
    100  CA        12.2550  -34.7850   -7.0350 C.3    44  CYS44       0.1677
    101  C         12.6930  -36.2450   -6.9880 C.2    44  CYS44       0.2270
    102  O         12.9820  -36.7800   -5.9200 O.2    44  CYS44      -0.2867
    103  CB        10.7520  -34.6540   -6.8890 C.3    44  CYS44       0.0956
    104  SG        10.1580  -32.9300   -6.6380 S.3    44  CYS44      -0.0801
    105  N         16.3780  -36.6620   -5.9030 N.3    47  HIS47      -0.1226
    106  CA        16.3020  -36.3770   -4.4820 C.3    47  HIS47       0.1752
    107  C         15.9660  -37.5710   -3.5990 C.2    47  HIS47       0.2595
    108  O         16.4630  -37.6650   -2.4830 O.2    47  HIS47      -0.2718
    109  CB        15.2350  -35.3140   -4.2810 C.3    47  HIS47       0.0759
    110  CG        15.2350  -34.7010   -2.9310 C.ar   47  HIS47       0.0818
    111  ND1       14.1490  -34.7770   -2.0910 N.ar   47  HIS47      -0.2268
    112  CD2       16.1790  -33.9900   -2.2740 C.ar   47  HIS47       0.1154
    113  CE1       14.4230  -34.1390   -0.9670 C.ar   47  HIS47       0.1986
    114  NE2       15.6510  -33.6560   -1.0500 N.ar   47  HIS47      -0.2212
    115  N         15.1110  -38.4690   -4.0730 N.am   48  LYS48      -0.1980
    116  CA        14.7860  -39.6350   -3.2760 C.3    48  LYS48       0.1596
    117  C         15.8660  -40.6700   -3.4410 C.2    48  LYS48       0.2287
    118  O         16.2170  -41.3610   -2.4900 O.2    48  LYS48      -0.2864
    119  CB        13.4300  -40.2010   -3.6440 C.3    48  LYS48       0.0298
    120  CG        12.3510  -39.2010   -3.5040 C.3    48  LYS48       0.0038
    121  CD        11.2040  -39.7570   -2.7500 C.3    48  LYS48       0.0206
    122  CE        10.1500  -38.7150   -2.7080 C.3    48  LYS48       0.1093
    123  NZ         8.8310  -39.3220   -2.7790 N.3    48  LYS48      -0.1314
    124  N         17.9540  -30.1430   -4.9140 N.3    92  VAL92      -0.1245
    125  CA        16.5940  -30.1920   -5.4390 C.3    92  VAL92       0.1561
    126  C         15.9980  -28.7990   -5.5840 C.2    92  VAL92       0.2260
    127  O         15.3290  -28.5230   -6.5730 O.2    92  VAL92      -0.2867
    128  CB        15.6650  -31.1540   -4.6520 C.3    92  VAL92       0.0252
    129  CG1       15.2470  -30.5690   -3.3070 C.3    92  VAL92       0.0019
    130  CG2       14.4570  -31.5080   -5.4900 C.3    92  VAL92       0.0019
    131  N         14.9750  -27.4470   -8.9330 N.3    96  LEU96      -0.1245
    132  CA        13.5860  -27.0140   -9.1560 C.3    96  LEU96       0.1561
    133  C         13.4820  -25.6110   -9.7460 C.2    96  LEU96       0.2260
    134  O         12.6330  -25.3530  -10.5960 O.2    96  LEU96      -0.2867
    135  CB        12.7620  -27.0550   -7.8700 C.3    96  LEU96       0.0270
    136  CG        12.4200  -28.3900   -7.2380 C.3    96  LEU96       0.0019
    137  CD1       11.6440  -28.1690   -5.9720 C.3    96  LEU96       0.0001
    138  CD2       11.6290  -29.2480   -8.1930 C.3    96  LEU96       0.0001
@<TRIPOS>BOND
     1   134   133    2
     2   133   132    1
     3   132   131    1
     4   132   135    1
     5    99   100    1
     6   138   136    1
     7    84    83    1
     8    81    83   ar
     9    81    79   ar
    10   135   136    1
    11    94    93    1
    12    94   104    1
    13    83    82   ar
    14   136   137    1
    15    79    78   ar
    16   100   101    1
    17   100   103    1
    18   101   102    2
    19    93    90    1
    20   103   104    1
    21   127   126    2
    22    89    90    1
    23    82    80   ar
    24   105   106    1
    25    78    80   ar
    26    78    77    1
    27    90    91    1
    28   126   125    1
    29   130   128    1
    30   125   124    1
    31   125   128    1
    32    74    77    1
    33    74    73    1
    34    74    75    1
    35    92    91    2
    36   128   129    1
    37    91    95   am
    38   106   109    1
    39   106   107    1
    40   109   110    1
    41    75    76    2
    42    75    85   am
    43   115   107   am
    44   115   116    1
    45    85    86    1
    46   119   120    1
    47   119   116    1
    48   107   108    2
    49   120   121    1
    50   117   116    1
    51   117   118    2
    52    95    96    1
    53    87    88    2
    54    87    86    1
    55    40    39    2
    56    43    41    1
    57    53    54    1
    58   110   112   ar
    59   110   111   ar
    60    56    55    2
    61   123   122    1
    62   121   122    1
    63    48    47    2
    64   112   114   ar
    65    39    38    1
    66    39    45   am
    67    96    97    1
    68    42    41    1
    69    42    44    1
    70    64    63    2
    71   111   113   ar
    72    41    38    1
    73    38    37    1
    74    55    54    1
    75    55    61   am
    76    54    57    1
    77    97    98    2
    78    71    70    2
    79    47    46    1
    80    57    58    1
    81    62    63    1
    82    62    61    1
    83    62    65    1
    84    63    68   am
    85    61    67    1
    86    46    45    1
    87    46    49    1
    88    70    69    1
    89   114   113   ar
    90    51    50    1
    91    68    69    1
    92    65    66    1
    93    58    59    2
    94    58    60   am
    95    67    66    1
    96    69    72    1
    97    49    50    1
    98    22    21    1
    99    50    52    1
   100    23    21    1
   101    21    20    1
   102    19    18    2
   103    27    26    2
   104    31    30    2
   105    18    17    1
   106    18    24   am
   107    30    29    1
   108    26    25    1
   109    26    28   am
   110    20    17    1
   111    25    24    1
   112    17    16    1
   113    28    29    1
   114    29    32    1
   115     8     6    1
   116    32    33    1
   117     4     3    2
   118     5     2    1
   119     5     6    1
   120    33    34    1
   121     2     3    1
   122     2     1    1
   123     6     7    1
   124     3     9   am
   125    12    11    2
   126    34    35    1
   127    36    35    1
   128    11    10    1
   129     9    10    1
   130    10    13    1
   131    13    15    1
   132    13    14    1
