@<TRIPOS>MOLECULE
tmp/4dchA00.pdb
 80 73 0 0 0
SMALL
GASTEIGER

@<TRIPOS>ATOM
      1  N         15.1520   -9.3440    7.9930 N.3   169  ASN169     -0.1225
      2  CA        16.0860   -8.3370    8.5370 C.3   169  ASN169      0.1785
      3  C         15.3160   -7.0300    8.8040 C.2   169  ASN169      0.2597
      4  O         14.3710   -6.7010    8.0790 O.2   169  ASN169     -0.2718
      5  CB        17.2400   -8.1290    7.5410 C.3   169  ASN169      0.1169
      6  CG        18.2790   -7.1610    8.0500 C.2   169  ASN169      0.2627
      7  OD1       18.3470   -6.0190    7.6060 O.2   169  ASN169     -0.2716
      8  ND2       19.1110   -7.6310    8.9910 N.am  169  ASN169     -0.0877
      9  N         15.7180   -6.2690    9.8040 N.am  170  ASP170     -0.1960
     10  CA        15.0570   -5.0040   10.0790 C.3   170  ASP170      0.1840
     11  C         15.0230   -4.0210    8.9100 C.2   170  ASP170      0.2622
     12  O         14.0070   -3.3190    8.7670 O.2   170  ASP170     -0.2715
     13  CB        15.5350   -4.3540   11.4000 C.3   170  ASP170      0.1450
     14  CG        17.0370   -4.1290   11.4620 C.2   170  ASP170      0.3671
     15  OD1       17.5180   -3.6260   12.5150 O.co2 170  ASP170     -0.2456
     16  OD2       17.7370   -4.4250   10.4920 O.co2 170  ASP170     -0.2456
     17  N         16.0790   -3.9600    8.0820 N.am  171  THR171     -0.1951
     18  CA        16.0850   -3.0700    6.9000 C.3   171  THR171      0.1897
     19  C         14.9410   -3.5190    5.9350 C.2   171  THR171      0.2313
     20  O         14.2320   -2.6950    5.3200 O.2   171  THR171     -0.2863
     21  CB        17.4390   -3.0500    6.1310 C.3   171  THR171      0.1794
     22  OG1       17.7310   -4.3460    5.5800 O.3   171  THR171     -0.2208
     23  CG2       18.5920   -2.6680    7.0970 C.3   171  THR171      0.0378
     24  N         18.4160    1.4570    8.0220 N.3   190  ILE190     -0.1245
     25  CA        18.3010    1.5900    9.4610 C.3   190  ILE190      0.1561
     26  C         19.5330    2.4020    9.9290 C.2   190  ILE190      0.2260
     27  O         20.6660    2.0480    9.5850 O.2   190  ILE190     -0.2867
     28  CB        18.3290    0.1900   10.1630 C.3   190  ILE190      0.0252
     29  CG1       17.1180   -0.6980    9.7840 C.3   190  ILE190      0.0019
     30  CG2       18.4680    0.3380   11.6870 C.3   190  ILE190      0.0019
     31  CD1       15.8380   -0.2250   10.3530 C.3   190  ILE190      0.0001
     32  N         23.0120    0.0300   15.1950 N.3   194  GLY194     -0.1210
     33  CA        23.7570   -0.3350   14.0160 C.3   194  GLY194      0.1956
     34  C         23.2500    0.4000   12.7790 C.2   194  GLY194      0.2612
     35  O         22.2960    1.1930   12.8540 O.2   194  GLY194     -0.2717
     36  N         23.8740    0.1250   11.6380 N.am  195  CYS195     -0.1956
     37  CA        23.5080    0.7800   10.3710 C.3   195  CYS195      0.1843
     38  C         23.6280   -0.1840    9.1810 C.2   195  CYS195      0.2625
     39  O         24.6680   -0.8530    8.9860 O.2   195  CYS195     -0.2714
     40  CB        24.4060    1.9900   10.1170 C.3   195  CYS195      0.0997
     41  SG        24.0120    2.9200    8.6260 S.3   195  CYS195     -0.0797
     42  N         22.5650   -0.2440    8.3660 N.am  196  ASN196     -0.1972
     43  CA        22.5490   -1.1960    7.2610 C.3   196  ASN196      0.1688
     44  C         21.4780   -0.7290    6.2490 C.2   196  ASN196      0.2292
     45  O         20.6830    0.1780    6.5470 O.2   196  ASN196     -0.2864
     46  CB        22.2140   -2.5980    7.8400 C.3   196  ASN196      0.1181
     47  CG        22.2810   -3.7360    6.8020 C.2   196  ASN196      0.2629
     48  OD1       22.9230   -3.6250    5.7920 O.2   196  ASN196     -0.2716
     49  ND2       21.5860   -4.8280    7.0800 N.am  196  ASN196     -0.0877
     50  N         24.2490   -5.6880    4.3090 N.3   221  GLU221     -0.1245
     51  CA        25.1170   -5.8080    5.5080 C.3   221  GLU221      0.1567
     52  C         26.3250   -4.9170    5.3790 C.2   221  GLU221      0.2260
     53  O         27.4900   -5.3500    5.5590 O.2   221  GLU221     -0.2867
     54  CB        25.4990   -7.2740    5.7680 C.3   221  GLU221      0.0388
     55  CG        24.3110   -8.1060    6.2840 C.3   221  GLU221      0.1160
     56  CD        23.8380   -7.7160    7.6770 C.2   221  GLU221      0.3649
     57  OE1       24.5800   -7.0710    8.4500 O.co2 221  GLU221     -0.2457
     58  OE2       22.7030   -8.0410    8.0280 O.co2 221  GLU221     -0.2457
     59  N         27.5040   -2.6280    7.0830 N.3   223  GLY223     -0.1225
     60  CA        28.2250   -2.1620    8.2700 C.3   223  GLY223      0.1811
     61  C         29.6580   -2.6890    8.2410 C.2   223  GLY223      0.2280
     62  O         30.5570   -2.1410    8.8960 O.2   223  GLY223     -0.2866
     63  N         33.3790   -4.4320   11.1170 N.3   252  GLN252     -0.1245
     64  CA        32.2730   -3.4690   11.1270 C.3   252  GLN252      0.1566
     65  C         32.7860   -2.0170   11.1560 C.2   252  GLN252      0.2260
     66  O         32.2340   -1.1510   11.8170 O.2   252  GLN252     -0.2867
     67  CB        31.2750   -3.7640   12.2740 C.3   252  GLN252      0.0367
     68  CG        30.5960   -5.1690   12.1950 C.3   252  GLN252      0.0905
     69  CD        29.6310   -5.3420   10.9910 C.2   252  GLN252      0.2608
     70  OE1       29.8040   -6.2430   10.1630 O.2   252  GLN252     -0.2717
     71  NE2       28.6000   -4.5120   10.9230 N.am  252  GLN252     -0.0878
     72  N         30.1830    0.7600   10.1100 N.3   255  GLU255     -0.1245
     73  CA        29.1980    0.8680   11.1780 C.3   255  GLU255      0.1567
     74  C         29.7450    1.6390   12.4020 C.2   255  GLU255      0.2260
     75  O         29.0360    2.4680   12.9860 O.2   255  GLU255     -0.2867
     76  CB        28.7540   -0.5290   11.5970 C.3   255  GLU255      0.0388
     77  CG        27.6310   -0.4870   12.5500 C.3   255  GLU255      0.1160
     78  CD        26.9740   -1.8140   12.5860 C.2   255  GLU255      0.3649
     79  OE1       27.6360   -2.7900   13.0100 O.co2 255  GLU255     -0.2457
     80  OE2       25.8200   -1.8870   12.1380 O.co2 255  GLU255     -0.2457
@<TRIPOS>BOND
     1    50    51    1
     2    20    19    2
     3    52    51    1
     4    52    53    2
     5    51    54    1
     6    22    21    1
     7    54    55    1
     8    48    47    2
     9    19    18    1
    10    21    18    1
    11    21    23    1
    12    44    45    2
    13    44    43    1
    14    55    56    1
    15    47    49   am
    16    47    46    1
    17    18    17    1
    18    59    60    1
    19    43    46    1
    20    43    42    1
    21     5     6    1
    22     5     2    1
    23     7     6    2
    24    56    58   ar
    25    56    57   ar
    26     1     2    1
    27    24    25    1
    28     6     8   am
    29     4     3    2
    30    17    11   am
    31    61    60    1
    32    61    62    2
    33    42    38   am
    34     2     3    1
    35    41    40    1
    36    12    11    2
    37     3     9   am
    38    11    10    1
    39    39    38    2
    40    38    37    1
    41    25    26    1
    42    25    28    1
    43    27    26    2
    44    29    28    1
    45    29    31    1
    46     9    10    1
    47    10    13    1
    48    72    73    1
    49    40    37    1
    50    28    30    1
    51    70    69    2
    52    37    36    1
    53    16    14   ar
    54    71    69   am
    55    69    68    1
    56    63    64    1
    57    64    65    1
    58    64    67    1
    59    65    66    2
    60    73    76    1
    61    73    74    1
    62    13    14    1
    63    14    15   ar
    64    76    77    1
    65    36    34   am
    66    80    78   ar
    67    68    67    1
    68    74    75    2
    69    77    78    1
    70    78    79   ar
    71    34    35    2
    72    34    33    1
    73    33    32    1
