@<TRIPOS>MOLECULE
tmp/4dchA01.pdb
 175 170 0 0 0
SMALL
GASTEIGER

@<TRIPOS>ATOM
      1  N         15.4920  -13.4300   -0.7120 N.3    53  TYR53      -0.1227
      2  CA        14.3550  -14.1880   -1.3070 C.3    53  TYR53       0.1736
      3  C         13.0230  -13.4280   -1.3480 C.2    53  TYR53       0.2595
      4  O         11.9610  -14.0190   -1.6610 O.2    53  TYR53      -0.2718
      5  CB        14.2200  -15.5790   -0.6430 C.3    53  TYR53       0.0548
      6  CG        15.5050  -16.3370   -0.8620 C.ar   53  TYR53      -0.0200
      7  CD1       16.5210  -16.3320    0.1170 C.ar   53  TYR53      -0.0009
      8  CD2       15.7400  -17.0120   -2.0680 C.ar   53  TYR53      -0.0009
      9  CE1       17.7220  -16.9790   -0.1100 C.ar   53  TYR53       0.0417
     10  CE2       16.9450  -17.6680   -2.3020 C.ar   53  TYR53       0.0417
     11  CZ        17.9180  -17.6580   -1.3170 C.ar   53  TYR53       0.1957
     12  OH        19.0970  -18.3090   -1.5690 O.3    53  TYR53      -0.2866
     13  N         13.0470  -12.1410   -0.9950 N.am   54  VAL54      -0.1966
     14  CA        11.8610  -11.2940   -1.1110 C.3    54  VAL54       0.1727
     15  C         11.8340  -10.6870   -2.5230 C.2    54  VAL54       0.2616
     16  O         12.7130   -9.8900   -2.9060 O.2    54  VAL54      -0.2715
     17  CB        11.7990  -10.1840   -0.0040 C.3    54  VAL54       0.0290
     18  CG1       10.5930   -9.2540   -0.2410 C.3    54  VAL54       0.0023
     19  CG2       11.7450  -10.8180    1.3900 C.3    54  VAL54       0.0023
     20  N         10.8290  -11.0960   -3.3060 N.am   55  ARG55      -0.1963
     21  CA        10.7850  -10.7780   -4.7500 C.3    55  ARG55       0.1729
     22  C          9.8380   -9.6160   -4.9820 C.2    55  ARG55       0.2617
     23  O          8.9680   -9.3540   -4.1490 O.2    55  ARG55      -0.2715
     24  CB        10.2930  -12.0240   -5.5210 C.3    55  ARG55       0.0348
     25  CG        11.3160  -13.1740   -5.6190 C.3    55  ARG55       0.0492
     26  CD        12.4430  -12.8480   -6.6120 C.3    55  ARG55       0.2205
     27  NE        11.9690  -12.6690   -7.9940 N.pl3  55  ARG55      -0.0865
     28  CZ        11.7810  -13.6640   -8.8620 C.cat  55  ARG55       0.5346
     29  NH1       12.0360  -14.9260   -8.5220 N.pl3  55  ARG55       0.1354
     30  NH2       11.3440  -13.3990  -10.0870 N.pl3  55  ARG55       0.1354
     31  N         10.0220   -8.8800   -6.0780 N.am   56  SER56      -0.1936
     32  CA         9.1480   -7.7310   -6.3870 C.3    56  SER56       0.2055
     33  C          7.7110   -8.1530   -6.7540 C.2    56  SER56       0.2644
     34  O          6.8260   -7.2940   -6.8740 O.2    56  SER56      -0.2714
     35  CB         9.7230   -6.9100   -7.5330 C.3    56  SER56       0.2130
     36  OG         9.9830   -7.7560   -8.6320 O.3    56  SER56      -0.2179
     37  N          7.5250   -9.4560   -6.9660 N.am   57  THR57      -0.1937
     38  CA         6.2110  -10.0430   -7.3060 C.3    57  THR57       0.2013
     39  C          5.7030  -10.9530   -6.1770 C.2    57  THR57       0.2484
     40  O          6.4990  -11.4440   -5.3750 O.2    57  THR57      -0.2729
     41  CB         6.2960  -10.8880   -8.5840 C.3    57  THR57       0.1807
     42  OG1        7.4110  -11.7880   -8.5230 O.3    57  THR57      -0.2208
     43  CG2        6.3880  -10.0120   -9.8310 C.3    57  THR57       0.0379
     44  N          4.3730  -11.1670   -6.0950 N.am   58  PRO58      -0.2715
     45  CA         3.8930  -12.1250   -5.0810 C.3    58  PRO58       0.1536
     46  C          4.4250  -13.5490   -5.2460 C.2    58  PRO58       0.2598
     47  O          4.6260  -14.0440   -6.3670 O.2    58  PRO58      -0.2715
     48  CB         2.3640  -12.0760   -5.2340 C.3    58  PRO58       0.0310
     49  CG         2.0860  -10.7740   -5.8620 C.3    58  PRO58       0.0237
     50  CD         3.2550  -10.5560   -6.8320 C.3    58  PRO58       0.0939
     51  N          4.6850  -14.1960   -4.1180 N.am   59  GLU59      -0.1978
     52  CA         5.0880  -15.6020   -4.0930 C.3    59  GLU59       0.1602
     53  C          4.3790  -16.2600   -2.9220 C.2    59  GLU59       0.2287
     54  O          3.7450  -15.5670   -2.1200 O.2    59  GLU59      -0.2864
     55  CB         6.6030  -15.7650   -3.9440 C.3    59  GLU59       0.0415
     56  CG         7.4550  -14.8050   -4.7710 C.3    59  GLU59       0.1163
     57  CD         7.6030  -15.1990   -6.2310 C.2    59  GLU59       0.3649
     58  OE1        7.6410  -16.4160   -6.5280 O.co2  59  GLU59      -0.2457
     59  OE2        7.6900  -14.2820   -7.0910 O.co2  59  GLU59      -0.2457
     60  N         -5.1500   -6.1500   -6.4900 N.3    88  GLN88      -0.1231
     61  CA        -3.7890   -6.0560   -5.9220 C.3    88  GLN88       0.1698
     62  C         -3.8980   -6.5300   -4.4530 C.2    88  GLN88       0.2592
     63  O         -3.9400   -5.6750   -3.5780 O.2    88  GLN88      -0.2718
     64  CB        -3.3320   -4.5950   -5.8970 C.3    88  GLN88       0.0381
     65  CG        -2.2380   -4.1830   -6.8720 C.3    88  GLN88       0.0905
     66  CD        -1.4040   -3.0280   -6.3080 C.2    88  GLN88       0.2608
     67  OE1       -0.7290   -2.2980   -7.0520 O.2    88  GLN88      -0.2717
     68  NE2       -1.4500   -2.8560   -4.9790 N.am   88  GLN88      -0.0878
     69  N         -3.9510   -7.8530   -4.1940 N.am   89  TRP89      -0.1976
     70  CA        -4.3010   -8.5090   -2.8730 C.3    89  TRP89       0.1640
     71  C         -5.4530   -7.9180   -2.0020 C.2    89  TRP89       0.2290
     72  O         -5.3650   -6.7720   -1.5850 O.2    89  TRP89      -0.2864
     73  CB        -3.0750   -8.6740   -1.9400 C.3    89  TRP89       0.0576
     74  CG        -2.0440   -9.7230   -2.2840 C.ar   89  TRP89       0.0006
     75  CD1       -2.0670  -10.6290   -3.3140 C.ar   89  TRP89       0.0946
     76  CD2       -0.8400   -9.9830   -1.5490 C.ar   89  TRP89       0.0152
     77  NE1       -0.9390  -11.4260   -3.2720 N.ar   89  TRP89      -0.2442
     78  CE2       -0.1690  -11.0470   -2.1990 C.ar   89  TRP89       0.0810
     79  CE3       -0.2540   -9.4110   -0.4080 C.ar   89  TRP89       0.0012
     80  CZ2        1.0650  -11.5410   -1.7500 C.ar   89  TRP89       0.0191
     81  CZ3        0.9770   -9.9130    0.0370 C.ar   89  TRP89       0.0001
     82  CH2        1.6150  -10.9580   -0.6390 C.ar   89  TRP89       0.0015
     83  N         11.6990   -1.6030    4.5580 N.3   175  MET175     -0.1230
     84  CA        11.3450   -1.4500    3.1310 C.3   175  MET175      0.1702
     85  C          9.8910   -1.9080    2.8600 C.2   175  MET175      0.2592
     86  O          9.1010   -1.1980    2.2130 O.2   175  MET175     -0.2718
     87  CB        12.2850   -2.2510    2.2370 C.3   175  MET175      0.0401
     88  CG        12.1150   -1.9450    0.7390 C.3   175  MET175      0.0596
     89  SD        12.8430   -3.1150   -0.3690 S.3   175  MET175     -0.1393
     90  CE        11.9100   -4.5790    0.0570 C.3   175  MET175      0.0692
     91  N          9.5350   -3.0690    3.3800 N.am  176  ILE176     -0.1980
     92  CA         8.1790   -3.6200    3.1540 C.3   176  ILE176      0.1595
     93  C          7.0800   -2.7540    3.8060 C.2   176  ILE176      0.2287
     94  O          6.0260   -2.5210    3.1810 O.2   176  ILE176     -0.2864
     95  CB         8.0670   -5.0880    3.6760 C.3   176  ILE176      0.0276
     96  CG1        9.0350   -6.0150    2.9070 C.3   176  ILE176      0.0022
     97  CG2        6.5380   -5.5740    3.5900 C.3   176  ILE176      0.0022
     98  CD1        9.3060   -7.3690    3.6000 C.3   176  ILE176      0.0001
     99  N          6.8740    0.3300    1.7000 N.3   179  TYR179     -0.1241
    100  CA         6.2810   -0.0630    0.4040 C.3   179  TYR179      0.1605
    101  C          4.7550   -0.1030    0.4990 C.2   179  TYR179      0.2264
    102  O          4.0700    0.3340   -0.4430 O.2   179  TYR179     -0.2867
    103  CB         6.8270   -1.4110   -0.0790 C.3   179  TYR179      0.0534
    104  CG         6.1060   -1.9600   -1.3060 C.ar  179  TYR179     -0.0201
    105  CD1        4.9170   -2.6790   -1.1740 C.ar  179  TYR179     -0.0009
    106  CD2        6.6270   -1.7660   -2.5790 C.ar  179  TYR179     -0.0009
    107  CE1        4.2520   -3.1870   -2.2960 C.ar  179  TYR179      0.0417
    108  CE2        5.9710   -2.2580   -3.7090 C.ar  179  TYR179      0.0417
    109  CZ         4.7860   -2.9620   -3.5550 C.ar  179  TYR179      0.1957
    110  OH         4.1450   -3.4460   -4.6750 O.3   179  TYR179     -0.2866
    111  N          4.3120    2.4500   -3.0980 N.3   183  HIS183     -0.1241
    112  CA         4.8740    1.4010   -3.9690 C.3   183  HIS183      0.1621
    113  C          6.2050    1.7260   -4.6690 C.2   183  HIS183      0.2264
    114  O          6.8400    0.8340   -5.2150 O.2   183  HIS183     -0.2867
    115  CB         3.8670    0.8830   -5.0040 C.3   183  HIS183      0.0745
    116  CG         2.6530    0.2220   -4.4220 C.ar  183  HIS183      0.0817
    117  ND1        2.4630    0.0180   -3.0720 N.ar  183  HIS183     -0.2268
    118  CD2        1.5660   -0.3080   -5.0350 C.ar  183  HIS183      0.1154
    119  CE1        1.3070   -0.5920   -2.8760 C.ar  183  HIS183      0.1986
    120  NE2        0.7410   -0.7970   -4.0520 N.ar  183  HIS183     -0.2212
    121  N          8.7290    2.6040   -3.0470 N.3   185  CYS185     -0.1235
    122  CA         9.7790    2.2670   -2.0590 C.3   185  CYS185      0.1677
    123  C         10.5300    0.9860   -2.4300 C.2   185  CYS185      0.2270
    124  O          9.9600   -0.1040   -2.3890 O.2   185  CYS185     -0.2867
    125  CB         9.2170    2.1710   -0.6340 C.3   185  CYS185      0.0956
    126  SG        10.6020    1.8690    0.5550 S.3   185  CYS185     -0.0801
    127  N         16.2430   -3.2100   -3.9530 N.3   200  MET200     -0.1245
    128  CA        15.7600   -4.1740   -4.9520 C.3   200  MET200      0.1570
    129  C         16.7460   -4.2490   -6.1180 C.2   200  MET200      0.2261
    130  O         16.8730   -3.2840   -6.9000 O.2   200  MET200     -0.2867
    131  CB        14.3750   -3.7490   -5.4550 C.3   200  MET200      0.0387
    132  CG        13.3090   -3.6570   -4.3650 C.3   200  MET200      0.0595
    133  SD        13.0320   -5.1650   -3.3910 S.3   200  MET200     -0.1393
    134  CE        12.4970   -6.3230   -4.6630 C.3   200  MET200      0.0692
    135  N          1.6890   -6.6820    6.1570 N.3   416  LEU416     -0.1245
    136  CA         2.3570   -6.9980    4.9040 C.3   416  LEU416      0.1561
    137  C          3.7460   -7.5850    5.1810 C.2   416  LEU416      0.2260
    138  O          4.1920   -8.4900    4.4590 O.2   416  LEU416     -0.2867
    139  CB         2.4500   -5.7710    3.9670 C.3   416  LEU416      0.0270
    140  CG         3.2330   -5.9900    2.6850 C.3   416  LEU416      0.0019
    141  CD1        2.5470   -7.0190    1.7560 C.3   416  LEU416      0.0001
    142  CD2        3.4260   -4.6990    1.9310 C.3   416  LEU416      0.0001
    143  N          4.7710  -11.3420    3.9320 N.3   420  VAL420     -0.1245
    144  CA         5.9800  -11.6190    3.1480 C.3   420  VAL420      0.1561
    145  C          6.8150  -12.6690    3.9150 C.2   420  VAL420      0.2260
    146  O          7.2750  -13.6230    3.2950 O.2   420  VAL420     -0.2867
    147  CB         6.7990  -10.3430    2.7850 C.3   420  VAL420      0.0252
    148  CG1        8.2050  -10.6780    2.2020 C.3   420  VAL420      0.0019
    149  CG2        6.0290   -9.4800    1.7870 C.3   420  VAL420      0.0019
    150  N          5.0720  -16.1370    3.4950 N.3   423  LYS423     -0.1231
    151  CA         5.1230  -16.6060    2.1170 C.3   423  LYS423      0.1693
    152  C          6.5600  -16.9630    1.7110 C.2   423  LYS423      0.2591
    153  O          6.7990  -17.8970    0.9460 O.2   423  LYS423     -0.2718
    154  CB         4.5110  -15.5410    1.1800 C.3   423  LYS423      0.0285
    155  CG         2.9850  -15.4220    1.3790 C.3   423  LYS423      0.0035
    156  CD         2.4470  -14.1840    0.6850 C.3   423  LYS423      0.0206
    157  CE         0.8990  -14.2190    0.6610 C.3   423  LYS423      0.1093
    158  NZ         0.3900  -15.2580   -0.3440 N.3   423  LYS423     -0.1314
    159  N          7.5400  -16.2140    2.2340 N.am  424  LYS424     -0.1980
    160  CA         8.9300  -16.5800    2.0100 C.3   424  LYS424      0.1596
    161  C          9.2170  -17.9490    2.6420 C.2   424  LYS424      0.2287
    162  O          9.8150  -18.8190    1.9840 O.2   424  LYS424     -0.2864
    163  CB         9.8890  -15.5070    2.5650 C.3   424  LYS424      0.0298
    164  CG        11.3870  -15.9700    2.6400 C.3   424  LYS424      0.0038
    165  CD        12.2990  -14.8520    3.2150 C.3   424  LYS424      0.0206
    166  CE        13.7410  -15.3680    3.4650 C.3   424  LYS424      0.1093
    167  NZ        14.5770  -14.2620    4.1580 N.3   424  LYS424     -0.1314
    168  N          7.7560  -20.6640    0.3760 N.3   427  MET427     -0.1245
    169  CA         8.5640  -20.8230   -0.8370 C.3   427  MET427      0.1570
    170  C          9.8660  -21.5760   -0.5670 C.2   427  MET427      0.2261
    171  O         10.2950  -22.3700   -1.4020 O.2   427  MET427     -0.2867
    172  CB         8.8410  -19.4430   -1.4580 C.3   427  MET427      0.0387
    173  CG         9.8250  -19.4150   -2.6460 C.3   427  MET427      0.0595
    174  SD        11.5180  -19.0120   -2.0730 S.3   427  MET427     -0.1393
    175  CE        12.5510  -19.0200   -3.5550 C.3   427  MET427      0.0692
@<TRIPOS>BOND
     1    30    28    1
     2    43    41    1
     3    28    29    1
     4    28    27    2
     5    36    35    1
     6    41    42    1
     7    41    38    1
     8    27    26    1
     9    35    32    1
    10    38    37    1
    11    38    39    1
    12    59    57   ar
    13    67    66    2
    14    37    33   am
    15   130   129    2
    16    34    33    2
    17    65    66    1
    18    65    64    1
    19    50    44    1
    20    50    49    1
    21    33    32    1
    22    26    25    1
    23    58    57   ar
    24    60    61    1
    25    32    31    1
    26    47    46    2
    27    66    68   am
    28    57    56    1
    29    39    44   am
    30    39    40    2
    31   129   128    1
    32    44    45    1
    33    31    22   am
    34    61    64    1
    35    61    62    1
    36    49    48    1
    37    25    24    1
    38    24    21    1
    39   131   128    1
    40   131   132    1
    41    46    45    1
    42    46    51   am
    43    48    45    1
    44   114   113    2
    45   118   116   ar
    46   118   120   ar
    47   115   116    1
    48   115   112    1
    49    22    21    1
    50    22    23    2
    51   128   127    1
    52    56    55    1
    53    21    20    1
    54   110   109    1
    55   113   112    1
    56   134   133    1
    57    62    69   am
    58    62    63    2
    59   116   117   ar
    60   132   133    1
    61    69    70    1
    62    51    52    1
    63    52    55    1
    64    52    53    1
    65   120   119   ar
    66   112   111    1
    67   108   109   ar
    68   108   106   ar
    69   175   174    1
    70   109   107   ar
    71    75    77   ar
    72    75    74   ar
    73    20    15   am
    74    77    78   ar
    75   117   119   ar
    76   121   122    1
    77    53    54    2
    78    16    15    2
    79    70    71    1
    80    70    73    1
    81   173   174    1
    82   173   172    1
    83   106   104   ar
    84    15    14    1
    85   123   124    2
    86   123   122    1
    87    10     8   ar
    88    10    11   ar
    89   107   105   ar
    90    74    73    1
    91    74    76   ar
    92    78    80   ar
    93    78    76   ar
    94     8     6   ar
    95   122   125    1
    96    71    72    2
    97    80    82   ar
    98     4     3    2
    99    12    11    1
   100    76    79   ar
   101   172   169    1
   102   171   170    2
   103     3     2    1
   104     3    13   am
   105    11     9   ar
   106     2     1    1
   107     2     5    1
   108   104   105   ar
   109   104   103    1
   110    14    13    1
   111    14    17    1
   112     6     5    1
   113     6     7   ar
   114   169   170    1
   115   169   168    1
   116    82    81   ar
   117   125   126    1
   118   102   101    2
   119    79    81   ar
   120    89    90    1
   121    89    88    1
   122   158   157    1
   123    18    17    1
   124     9     7   ar
   125   103   100    1
   126    17    19    1
   127   100   101    1
   128   100    99    1
   129   157   156    1
   130   156   155    1
   131    88    87    1
   132   153   152    2
   133   154   155    1
   134   154   151    1
   135   152   151    1
   136   152   159   am
   137   141   140    1
   138   149   147    1
   139   142   140    1
   140   162   161    2
   141   160   159    1
   142   160   163    1
   143   160   161    1
   144   151   150    1
   145   148   147    1
   146    86    85    2
   147    87    84    1
   148   163   164    1
   149   164   165    1
   150   140   139    1
   151   147   144    1
   152    85    84    1
   153    85    91   am
   154    96    98    1
   155    96    95    1
   156    84    83    1
   157   144   145    1
   158   144   143    1
   159    92    91    1
   160    92    95    1
   161    92    93    1
   162    94    93    2
   163   165   166    1
   164   146   145    2
   165   166   167    1
   166    97    95    1
   167   139   136    1
   168   138   137    2
   169   136   137    1
   170   136   135    1
