@<TRIPOS>MOLECULE
tmp/4dcmA00.pdb
 201 193 0 0 0
SMALL
GASTEIGER

@<TRIPOS>ATOM
      1  N         35.3900    7.8050   52.5900 N.3    67  ILE67      -0.1245
      2  CA        34.0980    8.1290   51.9910 C.3    67  ILE67       0.1561
      3  C         33.1970    8.7260   53.0670 C.2    67  ILE67       0.2260
      4  O         32.4530    9.6670   52.8180 O.2    67  ILE67      -0.2867
      5  CB        33.4010    6.9020   51.4000 C.3    67  ILE67       0.0252
      6  CG1       34.1460    6.4070   50.1570 C.3    67  ILE67       0.0019
      7  CG2       31.9550    7.2420   51.0270 C.3    67  ILE67       0.0019
      8  CD1       33.6630    7.0220   48.8560 C.3    67  ILE67       0.0001
      9  N         40.1600   -6.1750   53.7200 N.3   200  PHE200     -0.1241
     10  CA        39.5250   -7.2360   52.9380 C.3   200  PHE200      0.1605
     11  C         40.3280   -8.5430   52.9730 C.2   200  PHE200      0.2264
     12  O         41.5510   -8.5270   52.7990 O.2   200  PHE200     -0.2867
     13  CB        39.3780   -6.7690   51.4910 C.3   200  PHE200      0.0534
     14  CG        39.0230   -7.8700   50.5240 C.ar  200  PHE200     -0.0203
     15  CD1       37.7160   -8.3390   50.4310 C.ar  200  PHE200     -0.0042
     16  CD2       39.9900   -8.4170   49.6870 C.ar  200  PHE200     -0.0042
     17  CE1       37.3800   -9.3500   49.5280 C.ar  200  PHE200     -0.0003
     18  CE2       39.6630   -9.4270   48.7790 C.ar  200  PHE200     -0.0003
     19  CZ        38.3560   -9.8950   48.6990 C.ar  200  PHE200     -0.0000
     20  N         43.1390  -13.9560   49.2420 N.3   206  ASP206     -0.1239
     21  CA        41.9130  -14.0400   48.4630 C.3   206  ASP206      0.1674
     22  C         42.1730  -14.7880   47.1610 C.2   206  ASP206      0.2266
     23  O         43.1910  -14.5670   46.5000 O.2   206  ASP206     -0.2867
     24  CB        41.3820  -12.6400   48.1680 C.3   206  ASP206      0.1410
     25  CG        40.1900  -12.6510   47.2320 C.2   206  ASP206      0.3668
     26  OD1       39.0870  -13.0580   47.6630 O.co2 206  ASP206     -0.2456
     27  OD2       40.3510  -12.2330   46.0640 O.co2 206  ASP206     -0.2456
     28  N         42.3320  -12.6520   44.0630 N.3   209  ALA209     -0.1245
     29  CA        43.6650  -12.0610   43.9740 C.3   209  ALA209      0.1562
     30  C         44.7030  -13.0880   43.5230 C.2   209  ALA209      0.2260
     31  O         45.5630  -12.7860   42.7020 O.2   209  ALA209     -0.2867
     32  CB        44.0690  -11.4510   45.3160 C.3   209  ALA209      0.0290
     33  N         44.3530  -13.3560   39.9260 N.3   212  PHE212     -0.1241
     34  CA        44.7990  -12.1140   39.2950 C.3   212  PHE212      0.1605
     35  C         46.3260  -12.0480   39.1610 C.2   212  PHE212      0.2264
     36  O         46.8550  -11.6810   38.1100 O.2   212  PHE212     -0.2867
     37  CB        44.3190  -10.9220   40.1300 C.3   212  PHE212      0.0534
     38  CG        44.2310   -9.6310   39.3660 C.ar  212  PHE212     -0.0203
     39  CD1       44.4230   -9.6040   37.9950 C.ar  212  PHE212     -0.0042
     40  CD2       43.9620   -8.4360   40.0260 C.ar  212  PHE212     -0.0042
     41  CE1       44.3380   -8.4130   37.2920 C.ar  212  PHE212     -0.0003
     42  CE2       43.8730   -7.2410   39.3300 C.ar  212  PHE212     -0.0003
     43  CZ        44.0630   -7.2310   37.9570 C.ar  212  PHE212     -0.0000
     44  N         47.5100    0.2560   42.0120 N.3   225  ASP225     -0.1225
     45  CA        46.7750   -0.7780   42.7180 C.3   225  ASP225      0.1805
     46  C         45.5000   -0.1190   43.2650 C.2   225  ASP225      0.2598
     47  O         45.4820    0.4050   44.3960 O.2   225  ASP225     -0.2718
     48  CB        47.6220   -1.3460   43.8560 C.3   225  ASP225      0.1424
     49  CG        47.0120   -2.5930   44.4660 C.2   225  ASP225      0.3668
     50  OD1       45.8340   -2.9010   44.1510 O.co2 225  ASP225     -0.2456
     51  OD2       47.7010   -3.2570   45.2750 O.co2 225  ASP225     -0.2456
     52  N         44.4490   -0.1150   42.4440 N.am  226  LEU226     -0.1966
     53  CA        43.2260    0.6160   42.7680 C.3   226  LEU226      0.1728
     54  C         42.3360   -0.2310   43.6480 C.2   226  LEU226      0.2617
     55  O         41.7760   -1.2230   43.1880 O.2   226  LEU226     -0.2715
     56  CB        42.4770    1.0340   41.5000 C.3   226  LEU226      0.0311
     57  CG        41.1740    1.8020   41.7370 C.3   226  LEU226      0.0022
     58  CD1       41.3580    2.9650   42.7180 C.3   226  LEU226      0.0001
     59  CD2       40.6100    2.3060   40.4240 C.3   226  LEU226      0.0001
     60  N         42.1970    0.1690   44.9100 N.am  227  GLY227     -0.1940
     61  CA        41.5310   -0.6590   45.9070 C.3   227  GLY227      0.2014
     62  C         42.5000   -1.7180   46.3970 C.2   227  GLY227      0.2639
     63  O         42.2560   -2.9170   46.2370 O.2   227  GLY227     -0.2714
     64  N         43.5980   -1.2650   47.0000 N.am  228  CYS228     -0.1953
     65  CA        44.7470   -2.1200   47.2850 C.3   228  CYS228      0.1843
     66  C         44.5390   -3.1220   48.4260 C.2   228  CYS228      0.2626
     67  O         45.1340   -4.2020   48.4180 O.2   228  CYS228     -0.2714
     68  CB        45.9890   -1.2580   47.5570 C.3   228  CYS228      0.0997
     69  SG        45.7700    0.0270   48.8390 S.3   228  CYS228     -0.0797
     70  N         43.7120   -2.7700   49.4070 N.am  229  GLY229     -0.1940
     71  CA        43.5450   -3.6270   50.5680 C.3   229  GLY229      0.2014
     72  C         44.8790   -3.8680   51.2590 C.2   229  GLY229      0.2638
     73  O         45.5580   -2.9100   51.6450 O.2   229  GLY229     -0.2714
     74  N         45.2710   -5.1330   51.4160 N.am  230  ASN230     -0.1972
     75  CA        46.5540   -5.4360   52.0550 C.3   230  ASN230      0.1688
     76  C         47.7650   -5.2200   51.1370 C.2   230  ASN230      0.2292
     77  O         48.9020   -5.3470   51.5820 O.2   230  ASN230     -0.2864
     78  CB        46.5680   -6.8470   52.6440 C.3   230  ASN230      0.1181
     79  CG        46.2540   -7.9110   51.6140 C.2   230  ASN230      0.2629
     80  OD1       46.3910   -7.6900   50.4080 O.2   230  ASN230     -0.2716
     81  ND2       45.8240   -9.0810   52.0870 N.am  230  ASN230     -0.0877
     82  N         48.8110   -6.8290   48.3700 N.3   232  VAL232     -0.1231
     83  CA        49.4270   -7.9750   47.7070 C.3   232  VAL232      0.1692
     84  C         49.6060   -7.8080   46.1830 C.2   232  VAL232      0.2591
     85  O         50.6600   -8.1660   45.6250 O.2   232  VAL232     -0.2718
     86  CB        48.6690   -9.2780   48.0380 C.3   232  VAL232      0.0266
     87  CG1       48.8890  -10.3120   46.9610 C.3   232  VAL232      0.0020
     88  CG2       49.1030   -9.8040   49.3980 C.3   232  VAL232      0.0020
     89  N         48.5970   -7.2530   45.5140 N.am  233  ILE233     -0.1980
     90  CA        48.7190   -6.9870   44.0850 C.3   233  ILE233      0.1595
     91  C         49.8240   -5.9640   43.8420 C.2   233  ILE233      0.2287
     92  O         50.6560   -6.1400   42.9500 O.2   233  ILE233     -0.2864
     93  CB        47.4170   -6.4730   43.4710 C.3   233  ILE233      0.0276
     94  CG1       46.3320   -7.5480   43.5600 C.3   233  ILE233      0.0022
     95  CG2       47.6420   -6.0560   42.0100 C.3   233  ILE233      0.0022
     96  CD1       46.7250   -8.8670   42.9200 C.3   233  ILE233      0.0001
     97  N         46.1310    2.5750   46.2810 N.3   249  VAL249     -0.1231
     98  CA        44.9770    3.4420   46.5280 C.3   249  VAL249      0.1692
     99  C         43.8520    2.6990   47.2390 C.2   249  VAL249      0.2592
    100  O         43.3940    1.6570   46.7590 O.2   249  VAL249     -0.2718
    101  CB        44.4170    4.0140   45.2050 C.3   249  VAL249      0.0266
    102  CG1       43.1880    4.8800   45.4700 C.3   249  VAL249      0.0020
    103  CG2       45.4940    4.8030   44.4670 C.3   249  VAL249      0.0020
    104  N         43.4040    3.2190   48.3810 N.am  250  ASP250     -0.1960
    105  CA        42.2240    2.6380   49.0160 C.3   250  ASP250      0.1840
    106  C         41.4250    3.6630   49.8170 C.2   250  ASP250      0.2622
    107  O         41.9660    4.6590   50.3020 O.2   250  ASP250     -0.2715
    108  CB        42.5830    1.4050   49.8730 C.3   250  ASP250      0.1450
    109  CG        41.4100    0.4430   50.0300 C.2   250  ASP250      0.3671
    110  OD1       41.5190   -0.7210   49.5660 O.co2 250  ASP250     -0.2456
    111  OD2       40.3650    0.8520   50.6020 O.co2 250  ASP250     -0.2456
    112  N         40.1280    3.4050   49.9220 N.am  251  GLU251     -0.1963
    113  CA        39.1900    4.2570   50.6460 C.3   251  GLU251      0.1733
    114  C         39.3800    4.0760   52.1540 C.2   251  GLU251      0.2617
    115  O         39.0440    4.9510   52.9650 O.2   251  GLU251     -0.2715
    116  CB        37.7690    3.8600   50.2270 C.3   251  GLU251      0.0429
    117  CG        36.6730    4.6970   50.8020 C.3   251  GLU251      0.1163
    118  CD        36.0270    4.0580   52.0100 C.2   251  GLU251      0.3649
    119  OE1       35.9820    2.8100   52.0760 O.co2 251  GLU251     -0.2457
    120  OE2       35.5680    4.8110   52.8950 O.co2 251  GLU251     -0.2457
    121  N         39.9530    2.9330   52.5080 N.am  252  SER252     -0.1950
    122  CA        40.1650    2.5350   53.8890 C.3   252  SER252      0.1924
    123  C         41.5950    2.8120   54.3220 C.2   252  SER252      0.2314
    124  O         42.5340    2.1910   53.8080 O.2   252  SER252     -0.2863
    125  CB        39.9000    1.0300   54.0180 C.3   252  SER252      0.2116
    126  OG        40.5180    0.4890   55.1760 O.3   252  SER252     -0.2180
    127  N         43.5530   -0.2470   55.1210 N.3   254  ALA254     -0.1245
    128  CA        44.0940   -0.9340   53.9500 C.3   254  ALA254      0.1562
    129  C         45.4060   -0.2780   53.5100 C.2   254  ALA254      0.2260
    130  O         46.4050   -0.9560   53.2670 O.2   254  ALA254     -0.2867
    131  CB        43.0890   -0.9210   52.8150 C.3   254  ALA254      0.0290
    132  N         42.0220    7.5970   49.1900 N.3   276  ASN276     -0.1225
    133  CA        41.1720    8.3640   48.3000 C.3   276  ASN276      0.1785
    134  C         39.8890    7.6310   47.9430 C.2   276  ASN276      0.2597
    135  O         39.7730    6.4150   48.1380 O.2   276  ASN276     -0.2718
    136  CB        41.9530    8.7350   47.0240 C.3   276  ASN276      0.1169
    137  CG        41.2970    9.8670   46.2380 C.2   276  ASN276      0.2627
    138  OD1       40.3160   10.4830   46.6860 O.2   276  ASN276     -0.2716
    139  ND2       41.8430   10.1520   45.0600 N.am  276  ASN276     -0.0877
    140  N         38.9220    8.3850   47.4330 N.am  277  ASN277     -0.1960
    141  CA        37.7540    7.7910   46.8220 C.3   277  ASN277      0.1819
    142  C         38.1120    7.5020   45.3660 C.2   277  ASN277      0.2621
    143  O         38.0850    8.4010   44.5250 O.2   277  ASN277     -0.2715
    144  CB        36.5730    8.7540   46.9100 C.3   277  ASN277      0.1195
    145  CG        35.4290    8.3430   46.0220 C.2   277  ASN277      0.2630
    146  OD1       35.2610    7.1580   45.7210 O.2   277  ASN277     -0.2716
    147  ND2       34.6320    9.3200   45.5860 N.am  277  ASN277     -0.0877
    148  N         38.4640    6.2530   45.0770 N.am  278  ALA278     -0.1977
    149  CA        39.0000    5.9060   43.7720 C.3   278  ALA278      0.1597
    150  C         40.0900    6.9040   43.4130 C.2   278  ALA278      0.2287
    151  O         41.0790    7.0480   44.1400 O.2   278  ALA278     -0.2864
    152  CB        37.9050    5.9060   42.7230 C.3   278  ALA278      0.0319
    153  N         40.6050   -4.9110   41.7490 N.3   293  ASN293     -0.1226
    154  CA        39.7740   -6.0350   42.1590 C.3   293  ASN293      0.1770
    155  C         38.5660   -5.4840   42.9130 C.2   293  ASN293      0.2439
    156  O         38.5180   -5.5250   44.1430 O.2   293  ASN293     -0.2733
    157  CB        40.5780   -6.9990   43.0370 C.3   293  ASN293      0.1168
    158  CG        39.7720   -8.2150   43.4730 C.2   293  ASN293      0.2627
    159  OD1       38.6220   -8.3840   43.0760 O.2   293  ASN293     -0.2716
    160  ND2       40.3830   -9.0720   44.2900 N.am  293  ASN293     -0.0877
    161  N         37.5840   -4.9600   42.1630 N.am  294  PRO294     -0.2718
    162  CA        36.4630   -4.1760   42.6930 C.3   294  PRO294      0.1520
    163  C         35.6810   -4.9280   43.7540 C.2   294  PRO294      0.2440
    164  O         35.6670   -6.1600   43.7420 O.2   294  PRO294     -0.2731
    165  CB        35.5730   -3.9510   41.4610 C.3   294  PRO294      0.0310
    166  CG        36.4580   -4.1590   40.2910 C.3   294  PRO294      0.0237
    167  CD        37.4580   -5.1900   40.7110 C.3   294  PRO294      0.0939
    168  N         35.0210   -4.1900   44.6580 N.am  295  PRO295     -0.2716
    169  CA        34.2260   -4.8470   45.6980 C.3   295  PRO295      0.1536
    170  C         33.1480   -5.7140   45.0640 C.2   295  PRO295      0.2598
    171  O         32.5900   -5.3630   44.0210 O.2   295  PRO295     -0.2715
    172  CB        33.5970   -3.6760   46.4590 C.3   295  PRO295      0.0310
    173  CG        34.5360   -2.5200   46.2130 C.3   295  PRO295      0.0237
    174  CD        35.0050   -2.7210   44.7890 C.3   295  PRO295      0.0939
    175  N         32.8700   -6.8420   45.7000 N.am  296  PHE296     -0.1974
    176  CA        31.9660   -7.8310   45.1450 C.3   296  PHE296      0.1639
    177  C         30.6130   -7.7930   45.8460 C.2   296  PHE296      0.2290
    178  O         29.8390   -6.8550   45.6530 O.2   296  PHE296     -0.2864
    179  CB        32.5960   -9.2200   45.2520 C.3   296  PHE296      0.0560
    180  CG        31.6320  -10.3430   45.0310 C.ar  296  PHE296     -0.0200
    181  CD1       31.0780  -10.5640   43.7810 C.ar  296  PHE296     -0.0042
    182  CD2       31.2860  -11.1870   46.0750 C.ar  296  PHE296     -0.0042
    183  CE1       30.1900  -11.6040   43.5760 C.ar  296  PHE296     -0.0003
    184  CE2       30.4000  -12.2300   45.8770 C.ar  296  PHE296     -0.0003
    185  CZ        29.8500  -12.4390   44.6250 C.ar  296  PHE296     -0.0000
    186  N         29.8730    1.2240   42.2880 N.3   299  VAL299     -0.1245
    187  CA        31.2310    1.3790   42.7820 C.3   299  VAL299      0.1561
    188  C         32.2440    0.9700   41.7210 C.2   299  VAL299      0.2260
    189  O         33.1640    1.7220   41.4050 O.2   299  VAL299     -0.2867
    190  CB        31.4580    0.5020   44.0380 C.3   299  VAL299      0.0252
    191  CG1       32.9000    0.5970   44.5110 C.3   299  VAL299      0.0019
    192  CG2       30.4880    0.8930   45.1510 C.3   299  VAL299      0.0019
    193  N         32.2040    3.3300   38.8890 N.3   302  GLU302     -0.1245
    194  CA        32.9060    4.5490   39.2730 C.3   302  GLU302      0.1567
    195  C         34.4120    4.3200   39.1180 C.2   302  GLU302      0.2260
    196  O         35.1290    5.1430   38.5460 O.2   302  GLU302     -0.2867
    197  CB        32.5730    4.9310   40.7190 C.3   302  GLU302      0.0388
    198  CG        32.6200    6.4360   41.0100 C.3   302  GLU302      0.1160
    199  CD        33.0580    6.7560   42.4390 C.2   302  GLU302      0.3649
    200  OE1       34.2050    6.4070   42.8090 O.co2 302  GLU302     -0.2457
    201  OE2       32.2620    7.3640   43.1920 O.co2 302  GLU302     -0.2457
@<TRIPOS>BOND
     1    41    43   ar
     2    41    39   ar
     3    43    42   ar
     4    39    38   ar
     5    36    35    2
     6   196   195    2
     7   193   194    1
     8   195   194    1
     9    35    34    1
    10   194   197    1
    11    34    33    1
    12    34    37    1
    13    42    40   ar
    14    38    40   ar
    15    38    37    1
    16   166   167    1
    17   166   165    1
    18    59    57    1
    19   167   161    1
    20   197   198    1
    21   198   199    1
    22   189   188    2
    23   165   162    1
    24    56    57    1
    25    56    53    1
    26   188   187    1
    27    57    58    1
    28   153   154    1
    29    95    93    1
    30    44    45    1
    31   154   155    1
    32   154   157    1
    33   161   162    1
    34   161   155   am
    35   186   187    1
    36   199   200   ar
    37   199   201   ar
    38    52    53    1
    39    52    46   am
    40   162   163    1
    41    31    30    2
    42    45    46    1
    43    45    48    1
    44   152   149    1
    45    53    54    1
    46   187   190    1
    47   155   156    2
    48    96    94    1
    49    92    91    2
    50   157   158    1
    51   159   158    2
    52    55    54    2
    53    46    47    2
    54   150   149    1
    55   150   151    2
    56    93    94    1
    57    93    90    1
    58   158   160   am
    59    30    29    1
    60   183   181   ar
    61   183   185   ar
    62    54    60   am
    63   164   163    2
    64   163   168   am
    65   149   148    1
    66   181   180   ar
    67    91    90    1
    68    48    49    1
    69    29    28    1
    70    29    32    1
    71   171   170    2
    72   190   191    1
    73   190   192    1
    74    90    89    1
    75    50    49   ar
    76    49    51   ar
    77   103   101    1
    78   143   142    2
    79   185   184   ar
    80   168   174    1
    81   168   169    1
    82   174   173    1
    83    60    61    1
    84   180   179    1
    85   180   182   ar
    86   139   137   am
    87   170   169    1
    88   170   175   am
    89   148   142   am
    90   176   179    1
    91   176   175    1
    92   176   177    1
    93   101   102    1
    94   101    98    1
    95   142   141    1
    96    89    84   am
    97   147   145   am
    98    85    84    2
    99   178   177    2
   100   169   172    1
   101   146   145    2
   102   184   182   ar
   103    61    62    1
   104   145   144    1
   105    27    25   ar
   106    84    83    1
   107   173   172    1
   108    63    62    2
   109   137   138    2
   110   137   136    1
   111    97    98    1
   112    62    64   am
   113    23    22    2
   114    98    99    1
   115   100    99    2
   116   141   144    1
   117   141   140    1
   118    87    86    1
   119    64    65    1
   120   136   133    1
   121    22    21    1
   122    25    26   ar
   123    25    24    1
   124    99   104   am
   125    65    68    1
   126    65    66    1
   127   140   134   am
   128    68    69    1
   129    83    86    1
   130    83    82    1
   131   134   135    2
   132   134   133    1
   133    86    88    1
   134    24    21    1
   135   133   132    1
   136   104   105    1
   137    67    66    2
   138    66    70   am
   139    21    20    1
   140    19    18   ar
   141    19    17   ar
   142    18    16   ar
   143     8     6    1
   144   105   106    1
   145   105   108    1
   146    70    71    1
   147    17    15   ar
   148   110   109   ar
   149    16    14   ar
   150   106   112   am
   151   106   107    2
   152   108   109    1
   153   112   113    1
   154   109   111   ar
   155     6     5    1
   156   116   113    1
   157   116   117    1
   158    80    79    2
   159    15    14   ar
   160    14    13    1
   161    71    72    1
   162   113   114    1
   163   117   118    1
   164     7     5    1
   165    76    77    2
   166    76    75    1
   167    72    74   am
   168    72    73    2
   169     5     2    1
   170    74    75    1
   171    13    10    1
   172    79    81   am
   173    79    78    1
   174     2     1    1
   175     2     3    1
   176   118   119   ar
   177   118   120   ar
   178    75    78    1
   179   114   121   am
   180   114   115    2
   181   121   122    1
   182    12    11    2
   183   131   128    1
   184     4     3    2
   185    10    11    1
   186    10     9    1
   187   130   129    2
   188   129   128    1
   189   124   123    2
   190   122   125    1
   191   122   123    1
   192   128   127    1
   193   125   126    1
