@<TRIPOS>MOLECULE
tmp/4dcnB00.pdb
 157 151 0 0 0
SMALL
GASTEIGER

@<TRIPOS>ATOM
      1  N         -4.4580  -30.6790   -0.3400 N.3    12  ASP12      -0.1225
      2  CA        -5.2740  -29.6400    0.2610 C.3    12  ASP12       0.1805
      3  C         -4.8420  -29.3410    1.7050 C.2    12  ASP12       0.2598
      4  O         -4.7880  -30.2350    2.5500 O.2    12  ASP12      -0.2718
      5  CB        -6.7590  -30.0260    0.1940 C.3    12  ASP12       0.1424
      6  CG        -7.0730  -31.3380    0.9180 C.2    12  ASP12       0.3668
      7  OD1       -6.4980  -32.3920    0.5710 O.co2  12  ASP12      -0.2456
      8  OD2       -7.9190  -31.3210    1.8350 O.co2  12  ASP12      -0.2456
      9  N         -4.5070  -28.0840    1.9700 N.am   13  GLY13      -0.1942
     10  CA        -4.1750  -27.6550    3.3130 C.3    13  GLY13       0.2014
     11  C         -2.7030  -27.4470    3.5760 C.2    13  GLY13       0.2639
     12  O         -2.3270  -26.9230    4.6270 O.2    13  GLY13      -0.2714
     13  N         -1.8670  -27.8580    2.6300 N.am   14  ALA14      -0.1963
     14  CA        -0.4200  -27.7030    2.7590 C.3    14  ALA14       0.1728
     15  C         -0.0260  -26.2390    2.9840 C.2    14  ALA14       0.2617
     16  O          0.6910  -25.9130    3.9360 O.2    14  ALA14      -0.2715
     17  CB         0.2770  -28.2690    1.5430 C.3    14  ALA14       0.0334
     18  N         -0.5190  -25.3620    2.1120 N.am   15  GLY15      -0.1940
     19  CA        -0.2540  -23.9330    2.2060 C.3    15  GLY15       0.2014
     20  C          0.1440  -23.3810    0.8590 C.2    15  GLY15       0.2639
     21  O          0.9060  -22.4190    0.7780 O.2    15  GLY15      -0.2714
     22  N         -0.3850  -23.9900   -0.1980 N.am   16  LYS16      -0.1963
     23  CA        -0.0190  -23.6450   -1.5760 C.3    16  LYS16       0.1728
     24  C         -0.3490  -22.1960   -1.9610 C.2    16  LYS16       0.2617
     25  O          0.5460  -21.4340   -2.3370 O.2    16  LYS16      -0.2715
     26  CB        -0.6680  -24.6220   -2.5650 C.3    16  LYS16       0.0311
     27  CG        -0.1280  -26.0470   -2.4780 C.3    16  LYS16       0.0038
     28  CD        -0.7530  -26.9630   -3.5180 C.3    16  LYS16       0.0206
     29  CE        -2.2410  -27.1600   -3.2990 C.3    16  LYS16       0.1093
     30  NZ        -2.5530  -27.8440   -2.0230 N.3    16  LYS16      -0.1314
     31  N         -1.6280  -21.8300   -1.8600 N.am   17  THR17      -0.1937
     32  CA        -2.0900  -20.4920   -2.2280 C.3    17  THR17       0.2028
     33  C         -1.4170  -19.4110   -1.3980 C.2    17  THR17       0.2642
     34  O         -1.1130  -18.3360   -1.9060 O.2    17  THR17      -0.2714
     35  CB        -3.5960  -20.3690   -2.0580 C.3    17  THR17       0.1808
     36  OG1       -4.2210  -21.5390   -2.5870 O.3    17  THR17      -0.2208
     37  CG2       -4.1200  -19.1620   -2.7900 C.3    17  THR17       0.0379
     38  N         -1.1910  -19.7080   -0.1230 N.am   18  THR18      -0.1950
     39  CA        -0.4640  -18.8190    0.7730 C.3    18  THR18       0.1897
     40  C          0.9910  -18.5660    0.3090 C.2    18  THR18       0.2313
     41  O          1.4720  -17.4360    0.4030 O.2    18  THR18      -0.2863
     42  CB        -0.5210  -19.3340    2.2360 C.3    18  THR18       0.1794
     43  OG1       -1.8840  -19.6140    2.5940 O.3    18  THR18      -0.2208
     44  CG2        0.0550  -18.3100    3.2060 C.3    18  THR18       0.0378
     45  N         -7.2390  -16.7230    2.3280 N.3    31  THR31      -0.1203
     46  CA        -7.4240  -17.6760    1.2240 C.3    31  THR31       0.1994
     47  C         -8.6600  -18.5610    1.3630 C.2    31  THR31       0.2618
     48  O         -9.1070  -18.8730    2.4610 O.2    31  THR31      -0.2717
     49  CB        -6.2060  -18.5840    1.0390 C.3    31  THR31       0.1784
     50  OG1       -6.0910  -19.4550    2.1680 O.3    31  THR31      -0.2211
     51  CG2       -4.9300  -17.7600    0.9000 C.3    31  THR31       0.0376
     52  N         -9.2070  -18.9540    0.2240 N.am   32  ILE32      -0.1966
     53  CA       -10.2690  -19.9450    0.1770 C.3    32  ILE32       0.1712
     54  C         -9.6850  -21.2010   -0.4850 C.2    32  ILE32       0.2458
     55  O         -8.6820  -21.1060   -1.1920 O.2    32  ILE32      -0.2730
     56  CB       -11.5450  -19.4130   -0.5650 C.3    32  ILE32       0.0289
     57  CG1      -11.2960  -19.2380   -2.0670 C.3    32  ILE32       0.0022
     58  CG2      -12.0240  -18.1120    0.0570 C.3    32  ILE32       0.0023
     59  CD1      -12.5470  -18.9440   -2.8770 C.3    32  ILE32       0.0001
     60  N        -10.2820  -22.3800   -0.2360 N.am   33  PRO33      -0.2716
     61  CA        -9.7730  -23.5990   -0.8530 C.3    33  PRO33       0.1536
     62  C         -9.8200  -23.4710   -2.3580 C.2    33  PRO33       0.2599
     63  O        -10.7980  -22.9600   -2.8970 O.2    33  PRO33      -0.2715
     64  CB       -10.7580  -24.6570   -0.3780 C.3    33  PRO33       0.0310
     65  CG       -11.2790  -24.1070    0.9210 C.3    33  PRO33       0.0237
     66  CD       -11.4140  -22.6540    0.6640 C.3    33  PRO33       0.0939
     67  N         -8.7660  -23.9060   -3.0340 N.am   34  THR34      -0.1951
     68  CA        -8.5910  -23.5520   -4.4440 C.3    34  THR34       0.1897
     69  C         -9.2880  -24.5060   -5.4010 C.2    34  THR34       0.2313
     70  O         -8.7390  -25.5510   -5.7490 O.2    34  THR34      -0.2863
     71  CB        -7.1010  -23.4140   -4.8110 C.3    34  THR34       0.1794
     72  OG1       -6.4470  -22.5940   -3.8310 O.3    34  THR34      -0.2208
     73  CG2       -6.9310  -22.7980   -6.2020 C.3    34  THR34       0.0378
     74  N         -0.8030  -22.0430   -9.2540 N.3    53  ASP53      -0.1239
     75  CA        -1.0890  -22.6890   -7.9920 C.3    53  ASP53       0.1674
     76  C         -2.3620  -23.4920   -8.1800 C.2    53  ASP53       0.2266
     77  O         -3.4320  -22.9200   -8.3610 O.2    53  ASP53      -0.2867
     78  CB        -1.2230  -21.6250   -6.8890 C.3    53  ASP53       0.1410
     79  CG        -2.1180  -22.0580   -5.7350 C.2    53  ASP53       0.3668
     80  OD1       -1.9700  -23.1930   -5.2350 O.co2  53  ASP53      -0.2456
     81  OD2       -2.9700  -21.2460   -5.3150 O.co2  53  ASP53      -0.2456
     82  N         -5.1750  -26.5550   -6.9800 N.3    55  GLY55      -0.1210
     83  CA        -5.7960  -27.0890   -5.7730 C.3    55  GLY55       0.1956
     84  C         -5.4020  -28.5260   -5.5070 C.2    55  GLY55       0.2612
     85  O         -5.2300  -29.3170   -6.4390 O.2    55  GLY55      -0.2717
     86  N         -5.2730  -28.8600   -4.2270 N.am   56  GLY56      -0.1942
     87  CA        -4.8440  -30.1900   -3.8230 C.3    56  GLY56       0.2014
     88  C         -5.9180  -31.0930   -3.2530 C.2    56  GLY56       0.2638
     89  O         -5.6000  -32.1330   -2.6880 O.2    56  GLY56      -0.2714
     90  N         -7.1840  -30.6990   -3.3840 N.am   57  LEU57      -0.1977
     91  CA        -8.2990  -31.5600   -2.9840 C.3    57  LEU57       0.1596
     92  C         -8.3890  -32.7790   -3.8990 C.2    57  LEU57       0.2287
     93  O         -8.0930  -32.6870   -5.1030 O.2    57  LEU57      -0.2864
     94  CB        -9.6240  -30.7990   -3.0040 C.3    57  LEU57       0.0297
     95  CG       -10.0620  -29.9710   -1.7890 C.3    57  LEU57       0.0022
     96  CD1      -11.2690  -29.0880   -2.1560 C.3    57  LEU57       0.0001
     97  CD2      -10.3620  -30.8320   -0.5480 C.3    57  LEU57       0.0001
     98  N          6.2790  -27.3640    4.6820 N.3   112  ASN112     -0.1225
     99  CA         5.6060  -26.1970    5.2240 C.3   112  ASN112      0.1785
    100  C          5.0430  -26.3870    6.6200 C.2   112  ASN112      0.2597
    101  O          4.9510  -27.5090    7.1050 O.2   112  ASN112     -0.2718
    102  CB         4.5260  -25.6880    4.2770 C.3   112  ASN112      0.1169
    103  CG         4.2000  -24.2390    4.5120 C.2   112  ASN112      0.2627
    104  OD1        5.0910  -23.4030    4.6190 O.2   112  ASN112     -0.2716
    105  ND2        2.9200  -23.9340    4.6110 N.am  112  ASN112     -0.0877
    106  N          4.6760  -25.2670    7.2450 N.am  113  LYS113     -0.1980
    107  CA         4.0960  -25.2190    8.5900 C.3   113  LYS113      0.1596
    108  C          5.1030  -25.6240    9.6680 C.2   113  LYS113      0.2287
    109  O          4.7230  -26.1230   10.7310 O.2   113  LYS113     -0.2864
    110  CB         2.8010  -26.0470    8.6750 C.3   113  LYS113      0.0298
    111  CG         1.7530  -25.6810    7.6240 C.3   113  LYS113      0.0038
    112  CD         0.4620  -26.4550    7.8200 C.3   113  LYS113      0.0206
    113  CE        -0.6800  -25.8000    7.0610 C.3   113  LYS113      0.1093
    114  NZ        -2.0190  -26.2140    7.5720 N.3   113  LYS113     -0.1314
    115  N          6.6440  -23.7800   11.5770 N.3   115  ASP115     -0.1225
    116  CA         6.4910  -22.8920   12.7220 C.3   115  ASP115      0.1805
    117  C          5.8410  -23.5980   13.9140 C.2   115  ASP115      0.2597
    118  O          5.9780  -23.1560   15.0500 O.2   115  ASP115     -0.2718
    119  CB         5.6910  -21.6440   12.3200 C.3   115  ASP115      0.1424
    120  CG         4.2400  -21.9550   11.9630 C.2   115  ASP115      0.3668
    121  OD1        3.9990  -22.7720   11.0460 O.co2 115  ASP115     -0.2456
    122  OD2        3.3340  -21.3710   12.6030 O.co2 115  ASP115     -0.2456
    123  N          5.1420  -24.6980   13.6350 N.am  116  MET116     -0.1979
    124  CA         4.4570  -25.4930   14.6570 C.3   116  MET116      0.1605
    125  C          5.4290  -26.3620   15.4500 C.2   116  MET116      0.2287
    126  O          6.4580  -26.7880   14.9240 O.2   116  MET116     -0.2864
    127  CB         3.3790  -26.3790   14.0270 C.3   116  MET116      0.0413
    128  CG         2.3110  -25.6340   13.2360 C.3   116  MET116      0.0598
    129  SD         1.3670  -24.4340   14.1980 S.3   116  MET116     -0.1393
    130  CE         0.2060  -25.4620   15.1000 C.3   116  MET116      0.0692
    131  N          7.7040  -21.6000    6.6020 N.3   145  SER145     -0.1202
    132  CA         6.4370  -21.2260    7.2000 C.3   145  SER145      0.2020
    133  C          5.8210  -20.1310    6.3500 C.2   145  SER145      0.2619
    134  O          6.3480  -19.0210    6.2690 O.2   145  SER145     -0.2717
    135  CB         6.6010  -20.7530    8.6360 C.3   145  SER145      0.2103
    136  OG         5.3390  -20.3640    9.1440 O.3   145  SER145     -0.2182
    137  N          4.7080  -20.4620    5.7090 N.am  146  ALA146     -0.1965
    138  CA         4.0370  -19.5530    4.7970 C.3   146  ALA146      0.1728
    139  C          3.3710  -18.4040    5.5470 C.2   146  ALA146      0.2617
    140  O          3.2630  -17.2890    5.0250 O.2   146  ALA146     -0.2715
    141  CB         3.0200  -20.3140    3.9760 C.3   146  ALA146      0.0334
    142  N          2.9320  -18.6840    6.7720 N.am  147  THR147     -0.1937
    143  CA         2.2970  -17.6820    7.6190 C.3   147  THR147      0.2028
    144  C          3.3040  -16.7730    8.3240 C.2   147  THR147      0.2642
    145  O          3.0870  -15.5670    8.4230 O.2   147  THR147     -0.2714
    146  CB         1.3950  -18.3250    8.6710 C.3   147  THR147      0.1808
    147  OG1        2.0850  -19.4290    9.2670 O.3   147  THR147     -0.2208
    148  CG2        0.0950  -18.8090    8.0340 C.3   147  THR147      0.0379
    149  N          4.3940  -17.3480    8.8170 N.am  148  LYS148     -0.1977
    150  CA         5.4280  -16.5640    9.4880 C.3   148  LYS148      0.1596
    151  C          6.3170  -15.8720    8.4710 C.2   148  LYS148      0.2287
    152  O          6.6720  -14.7060    8.6430 O.2   148  LYS148     -0.2864
    153  CB         6.2780  -17.4460   10.4070 C.3   148  LYS148      0.0298
    154  CG         5.5140  -18.1120   11.5540 C.3   148  LYS148      0.0038
    155  CD         5.2730  -17.1680   12.7230 C.3   148  LYS148      0.0206
    156  CE         4.0770  -17.6290   13.5410 C.3   148  LYS148      0.1093
    157  NZ         2.8280  -17.6910   12.7050 N.3   148  LYS148     -0.1314
@<TRIPOS>BOND
     1    74    75    1
     2    77    76    2
     3    76    75    1
     4    75    78    1
     5    82    83    1
     6    78    79    1
     7    85    84    2
     8    73    71    1
     9    83    84    1
    10    70    69    2
    11    79    81   ar
    12    79    80   ar
    13    84    86   am
    14    69    68    1
    15    93    92    2
    16    71    68    1
    17    71    72    1
    18    68    67    1
    19    86    87    1
    20    92    91    1
    21    87    88    1
    22    28    29    1
    23    28    27    1
    24    90    88   am
    25    90    91    1
    26    29    30    1
    27    88    89    2
    28    67    62   am
    29    94    91    1
    30    94    95    1
    31    63    62    2
    32    59    57    1
    33    37    35    1
    34    36    35    1
    35    26    27    1
    36    26    23    1
    37    62    61    1
    38    25    24    2
    39    32    35    1
    40    32    31    1
    41    32    33    1
    42    96    95    1
    43    57    56    1
    44    24    31   am
    45    24    23    1
    46    34    33    2
    47    95    97    1
    48    23    22    1
    49    33    38   am
    50    55    54    2
    51    61    64    1
    52    61    60    1
    53    56    58    1
    54    56    53    1
    55    54    60   am
    56    54    53    1
    57    64    65    1
    58     1     2    1
    59    60    66    1
    60    22    20   am
    61    38    39    1
    62    53    52    1
    63     5     2    1
    64     5     6    1
    65    52    47   am
    66     2     3    1
    67    40    41    2
    68    40    39    1
    69     7     6   ar
    70    66    65    1
    71    39    42    1
    72    21    20    2
    73    20    19    1
    74    51    49    1
    75     6     8   ar
    76    49    46    1
    77    49    50    1
    78    46    47    1
    79    46    45    1
    80    47    48    2
    81    17    14    1
    82     3     9   am
    83     3     4    2
    84     9    10    1
    85    18    19    1
    86    18    15   am
    87    42    43    1
    88    42    44    1
    89    13    14    1
    90    13    11   am
    91    14    15    1
    92    15    16    2
    93    10    11    1
    94    11    12    2
    95   141   138    1
    96   102   103    1
    97   102    99    1
    98   103   105   am
    99   103   104    2
   100    98    99    1
   101   138   139    1
   102   138   137    1
   103   140   139    2
   104    99   100    1
   105   139   142   am
   106   137   133   am
   107   134   133    2
   108   133   132    1
   109   131   132    1
   110   100   101    2
   111   100   106   am
   112   142   143    1
   113   113   114    1
   114   113   112    1
   115   132   135    1
   116   106   107    1
   117   143   144    1
   118   143   146    1
   119   111   112    1
   120   111   110    1
   121   148   146    1
   122   144   145    2
   123   144   149   am
   124   151   152    2
   125   151   150    1
   126   107   110    1
   127   107   108    1
   128   135   136    1
   129   146   147    1
   130   149   150    1
   131   150   153    1
   132   108   109    2
   133   153   154    1
   134   121   120   ar
   135   154   155    1
   136   115   116    1
   137   120   119    1
   138   120   122   ar
   139   119   116    1
   140   157   156    1
   141   116   117    1
   142   155   156    1
   143   128   127    1
   144   128   129    1
   145   123   117   am
   146   123   124    1
   147   117   118    2
   148   127   124    1
   149   129   130    1
   150   124   125    1
   151   126   125    2
