@<TRIPOS>MOLECULE
tmp/4dcvA00.pdb
 122 116 0 0 0
SMALL
GASTEIGER

@<TRIPOS>ATOM
      1  N        -11.6010   -5.6530  -37.8460 N.3   156  PRO156     -0.2102
      2  CA       -12.9470   -5.6880  -37.2670 C.3   156  PRO156      0.1504
      3  C        -13.8370   -6.7970  -37.8490 C.2   156  PRO156      0.2576
      4  O        -13.9140   -6.9640  -39.0590 O.2   156  PRO156     -0.2718
      5  CB       -13.5220   -4.3090  -37.6130 C.3   156  PRO156      0.0282
      6  CG       -12.4000   -3.5290  -38.2390 C.3   156  PRO156      0.0208
      7  CD       -11.1260   -4.2680  -38.0090 C.3   156  PRO156      0.0893
      8  N        -14.4810   -7.5470  -36.9620 N.am  157  ASN157     -0.1961
      9  CA       -15.5060   -8.5320  -37.3240 C.3   157  ASN157      0.1819
     10  C        -15.0230   -9.8300  -38.0030 C.2   157  ASN157      0.2621
     11  O        -15.8400  -10.5270  -38.6040 O.2   157  ASN157     -0.2715
     12  CB       -16.6400   -7.8720  -38.1320 C.3   157  ASN157      0.1195
     13  CG       -17.2680   -6.6990  -37.3970 C.2   157  ASN157      0.2630
     14  OD1      -17.9620   -6.8720  -36.3780 O.2   157  ASN157     -0.2716
     15  ND2      -17.0140   -5.4840  -37.9010 N.am  157  ASN157     -0.0877
     16  N        -13.7240  -10.1550  -37.9000 N.am  158  VAL158     -0.1963
     17  CA       -13.2070  -11.4350  -38.4130 C.3   158  VAL158      0.1727
     18  C        -13.6800  -12.6200  -37.6020 C.2   158  VAL158      0.2617
     19  O        -13.6480  -13.7410  -38.0900 O.2   158  VAL158     -0.2715
     20  CB       -11.6630  -11.5730  -38.4020 C.3   158  VAL158      0.0290
     21  CG1      -11.0610  -11.3040  -39.7680 C.3   158  VAL158      0.0023
     22  CG2      -11.0140  -10.7960  -37.2590 C.3   158  VAL158      0.0023
     23  N        -14.0350  -12.3850  -36.3430 N.am  159  GLY159     -0.1940
     24  CA       -14.5240  -13.4670  -35.5030 C.3   159  GLY159      0.2014
     25  C        -13.5930  -13.8840  -34.3960 C.2   159  GLY159      0.2639
     26  O        -13.7160  -15.0090  -33.8970 O.2   159  GLY159     -0.2714
     27  N        -12.6620  -12.9930  -34.0320 N.am  160  LYS160     -0.1963
     28  CA       -11.8100  -13.1360  -32.8360 C.3   160  LYS160      0.1728
     29  C        -12.5460  -13.6790  -31.5870 C.2   160  LYS160      0.2617
     30  O        -12.2310  -14.7800  -31.0970 O.2   160  LYS160     -0.2715
     31  CB       -11.1430  -11.7980  -32.4770 C.3   160  LYS160      0.0311
     32  CG       -10.2260  -11.2500  -33.5490 C.3   160  LYS160      0.0038
     33  CD        -9.3270  -10.1540  -33.0080 C.3   160  LYS160      0.0206
     34  CE       -10.0490   -8.8250  -32.8190 C.3   160  LYS160      0.1093
     35  NZ       -10.5630   -8.3480  -34.1240 N.3   160  LYS160     -0.1314
     36  N        -13.5270  -12.9250  -31.0930 N.am  161  SER161     -0.1936
     37  CA       -14.3170  -13.3690  -29.9400 C.3   161  SER161      0.2055
     38  C        -14.9670  -14.7260  -30.1770 C.2   161  SER161      0.2643
     39  O        -14.9200  -15.5950  -29.3110 O.2   161  SER161     -0.2714
     40  CB       -15.3740  -12.3250  -29.5510 C.3   161  SER161      0.2130
     41  OG       -14.7490  -11.0920  -29.2180 O.3   161  SER161     -0.2179
     42  N        -15.5510  -14.9100  -31.3520 N.am  162  SER162     -0.1949
     43  CA       -16.1780  -16.1640  -31.6890 C.3   162  SER162      0.1924
     44  C        -15.1880  -17.3220  -31.7280 C.2   162  SER162      0.2314
     45  O        -15.5090  -18.3980  -31.2300 O.2   162  SER162     -0.2863
     46  CB       -16.8910  -16.0400  -33.0310 C.3   162  SER162      0.2116
     47  OG       -17.7230  -14.8970  -33.0420 O.3   162  SER162     -0.2180
     48  N        -10.8620   -7.1850  -27.4970 N.3   199  MET199     -0.1245
     49  CA       -11.7210   -7.7730  -28.5230 C.3   199  MET199      0.1570
     50  C        -13.2040   -7.4880  -28.2570 C.2   199  MET199      0.2261
     51  O        -13.9950   -7.4010  -29.1870 O.2   199  MET199     -0.2867
     52  CB       -11.5010   -9.2880  -28.6130 C.3   199  MET199      0.0387
     53  CG       -10.0720   -9.7360  -28.8890 C.3   199  MET199      0.0595
     54  SD        -9.8370  -11.5050  -28.6000 S.3   199  MET199     -0.1393
     55  CE       -11.5370  -12.0490  -28.6210 C.3   199  MET199      0.0692
     56  N        -16.3960   -2.6510  -28.3980 N.3   202  LYS202     -0.1245
     57  CA       -17.7040   -2.0730  -28.7290 C.3   202  LYS202      0.1561
     58  C        -18.8070   -2.8060  -27.9700 C.2   202  LYS202      0.2260
     59  O        -18.6620   -3.9770  -27.6370 O.2   202  LYS202     -0.2867
     60  CB       -17.9890   -2.0030  -30.2420 C.3   202  LYS202      0.0271
     61  CG       -17.4130   -3.1140  -31.1130 C.3   202  LYS202      0.0035
     62  CD       -16.2320   -2.6340  -31.9590 C.3   202  LYS202      0.0206
     63  CE       -14.9090   -2.6460  -31.1980 C.3   202  LYS202      0.1093
     64  NZ       -14.5310   -4.0060  -30.7030 N.3   202  LYS202     -0.1314
     65  N        -14.0610  -14.9590  -46.2160 N.3   234  GLU234     -0.1245
     66  CA       -15.1220  -14.4290  -47.0680 C.3   234  GLU234      0.1567
     67  C        -14.7170  -13.1320  -47.7700 C.2   234  GLU234      0.2260
     68  O        -14.8280  -13.0320  -48.9870 O.2   234  GLU234     -0.2867
     69  CB       -16.3940  -14.2170  -46.2500 C.3   234  GLU234      0.0388
     70  CG       -17.6700  -14.4000  -47.0440 C.3   234  GLU234      0.1160
     71  CD       -18.9200  -14.0390  -46.2560 C.2   234  GLU234      0.3649
     72  OE1      -18.8120  -13.7940  -45.0280 O.co2 234  GLU234     -0.2457
     73  OE2      -20.0180  -14.0100  -46.8720 O.co2 234  GLU234     -0.2457
     74  N        -10.6080  -17.7680  -40.9150 N.3   260  ASN260     -0.1225
     75  CA       -11.9420  -18.0280  -40.3490 C.3   260  ASN260      0.1785
     76  C        -13.0340  -17.8810  -41.4270 C.2   260  ASN260      0.2597
     77  O        -12.7610  -17.4510  -42.5550 O.2   260  ASN260     -0.2718
     78  CB       -12.2090  -17.0920  -39.1390 C.3   260  ASN260      0.1169
     79  CG       -13.3840  -17.5520  -38.2500 C.2   260  ASN260      0.2627
     80  OD1      -13.7050  -18.7460  -38.1420 O.2   260  ASN260     -0.2716
     81  ND2      -14.0290  -16.5940  -37.6060 N.am  260  ASN260     -0.0877
     82  N        -14.2700  -18.2280  -41.0790 N.am  261  LYS261     -0.1980
     83  CA       -15.4230  -18.1320  -41.9840 C.3   261  LYS261      0.1596
     84  C        -15.2810  -19.0520  -43.1830 C.2   261  LYS261      0.2287
     85  O        -15.8280  -18.7780  -44.2520 O.2   261  LYS261     -0.2864
     86  CB       -15.7060  -16.6920  -42.4290 C.3   261  LYS261      0.0298
     87  CG       -15.6590  -15.7050  -41.2720 C.3   261  LYS261      0.0038
     88  CD       -16.1870  -14.3200  -41.6010 C.3   261  LYS261      0.0206
     89  CE       -16.4400  -13.5900  -40.2920 C.3   261  LYS261      0.1093
     90  NZ       -16.8480  -12.1750  -40.4850 N.3   261  LYS261     -0.1314
     91  N        -16.7420  -21.7340  -43.6720 N.3   263  ASP263     -0.1225
     92  CA       -18.1000  -22.1980  -43.9760 C.3   263  ASP263      0.1805
     93  C        -18.8030  -21.3440  -45.0390 C.2   263  ASP263      0.2597
     94  O        -19.6680  -21.8320  -45.7610 O.2   263  ASP263     -0.2718
     95  CB       -18.9460  -22.2070  -42.6940 C.3   263  ASP263      0.1424
     96  CG       -19.0370  -20.8280  -42.0350 C.2   263  ASP263      0.3668
     97  OD1      -18.0050  -20.2990  -41.5950 O.co2 263  ASP263     -0.2456
     98  OD2      -20.1470  -20.2710  -41.9380 O.co2 263  ASP263     -0.2456
     99  N        -18.4210  -20.0710  -45.1210 N.am  264  ALA264     -0.1979
    100  CA       -19.0770  -19.0960  -45.9890 C.3   264  ALA264      0.1597
    101  C        -18.3120  -18.8500  -47.2890 C.2   264  ALA264      0.2287
    102  O        -18.2830  -17.7350  -47.7880 O.2   264  ALA264     -0.2864
    103  CB       -19.2740  -17.7850  -45.2310 C.3   264  ALA264      0.0319
    104  N        -13.9240  -22.7510  -39.0100 N.3   295  SER295     -0.1202
    105  CA       -15.1190  -21.9270  -38.8250 C.3   295  SER295      0.2020
    106  C        -15.5350  -21.8470  -37.3560 C.2   295  SER295      0.2619
    107  O        -15.8690  -22.8640  -36.7430 O.2   295  SER295     -0.2717
    108  CB       -16.2750  -22.4350  -39.6980 C.3   295  SER295      0.2103
    109  OG       -17.5010  -21.7960  -39.3530 O.3   295  SER295     -0.2182
    110  N        -15.5160  -20.6430  -36.7890 N.am  296  ALA296     -0.1965
    111  CA       -15.9140  -20.4780  -35.3890 C.3   296  ALA296      0.1728
    112  C        -17.4000  -20.7950  -35.2340 C.2   296  ALA296      0.2616
    113  O        -17.8460  -21.2540  -34.1800 O.2   296  ALA296     -0.2715
    114  CB       -15.5970  -19.0800  -34.8780 C.3   296  ALA296      0.0334
    115  N        -18.1510  -20.5850  -36.3110 N.am  297  LEU297     -0.1977
    116  CA       -19.5810  -20.7880  -36.2900 C.3   297  LEU297      0.1596
    117  C        -19.9660  -22.2650  -36.3940 C.2   297  LEU297      0.2287
    118  O        -20.7830  -22.7210  -35.6220 O.2   297  LEU297     -0.2864
    119  CB       -20.2510  -19.8750  -37.3300 C.3   297  LEU297      0.0297
    120  CG       -21.5590  -20.0690  -38.1160 C.3   297  LEU297      0.0022
    121  CD1      -22.6230  -20.8940  -37.4120 C.3   297  LEU297      0.0001
    122  CD2      -22.1060  -18.7020  -38.5200 C.3   297  LEU297      0.0001
@<TRIPOS>BOND
     1    68    67    2
     2   102   101    2
     3    67    66    1
     4   101   100    1
     5    66    69    1
     6    66    65    1
     7    70    71    1
     8    70    69    1
     9    73    71   ar
    10    71    72   ar
    11   100   103    1
    12   100    99    1
    13    94    93    2
    14    99    93   am
    15    93    92    1
    16    85    84    2
    17    92    91    1
    18    92    95    1
    19    84    83    1
    20    95    96    1
    21    77    76    2
    22    86    83    1
    23    86    87    1
    24    96    98   ar
    25    96    97   ar
    26    83    82    1
    27    88    87    1
    28    88    89    1
    29    76    82   am
    30    76    75    1
    31    74    75    1
    32    90    89    1
    33    75    78    1
    34    21    20    1
    35   108   109    1
    36   108   105    1
    37    78    79    1
    38     4     3    2
    39   104   105    1
    40   105   106    1
    41    11    10    2
    42   122   120    1
    43    17    20    1
    44    17    16    1
    45    17    18    1
    46    20    22    1
    47    79    80    2
    48    79    81   am
    49     6     7    1
    50     6     5    1
    51    12    13    1
    52    12     9    1
    53   120   121    1
    54   120   119    1
    55    19    18    2
    56     7     1    1
    57    10    16   am
    58    10     9    1
    59    15    13   am
    60     3     2    1
    61     3     8   am
    62     1     2    1
    63     5     2    1
    64    18    23   am
    65    13    14    2
    66   106   110   am
    67   106   107    2
    68   119   116    1
    69     9     8    1
    70   110   111    1
    71   117   116    1
    72   117   118    2
    73    23    24    1
    74   115   116    1
    75   115   112   am
    76    24    25    1
    77   111   112    1
    78   111   114    1
    79   112   113    2
    80    25    27   am
    81    25    26    2
    82    35    34    1
    83    27    28    1
    84    32    33    1
    85    32    31    1
    86    47    46    1
    87    46    43    1
    88    33    34    1
    89    28    31    1
    90    28    29    1
    91    62    63    1
    92    62    61    1
    93    44    43    1
    94    44    45    2
    95    43    42    1
    96    29    30    2
    97    29    36   am
    98    42    38   am
    99    63    64    1
   100    61    60    1
   101    36    37    1
   102    60    57    1
   103    38    37    1
   104    38    39    2
   105    37    40    1
   106    40    41    1
   107    51    50    2
   108    53    52    1
   109    53    54    1
   110    57    56    1
   111    57    58    1
   112    55    54    1
   113    52    49    1
   114    49    50    1
   115    49    48    1
   116    58    59    2
