@<TRIPOS>MOLECULE
tmp/4dcyA00.pdb
 133 131 0 0 0
SMALL
GASTEIGER

@<TRIPOS>ATOM
      1  N         -1.9330   -8.8370  -41.8440 N.3    20  TYR20      -0.1227
      2  CA        -1.6130   -7.5930  -41.1610 C.3    20  TYR20       0.1736
      3  C         -0.7870   -6.6910  -42.0830 C.2    20  TYR20       0.2596
      4  O         -1.2400   -6.3800  -43.1760 O.2    20  TYR20      -0.2718
      5  CB        -0.9340   -7.9150  -39.8310 C.3    20  TYR20       0.0548
      6  CG        -1.8290   -8.7730  -38.9630 C.ar   20  TYR20      -0.0200
      7  CD1       -1.7880  -10.1700  -39.0350 C.ar   20  TYR20      -0.0009
      8  CD2       -2.7380   -8.1840  -38.0930 C.ar   20  TYR20      -0.0009
      9  CE1       -2.6220  -10.9480  -38.2470 C.ar   20  TYR20       0.0417
     10  CE2       -3.5880   -8.9490  -37.3170 C.ar   20  TYR20       0.0417
     11  CZ        -3.5240  -10.3280  -37.3930 C.ar   20  TYR20       0.1957
     12  OH        -4.3650  -11.0700  -36.6070 O.3    20  TYR20      -0.2866
     13  N          0.4030   -6.2700  -41.6640 N.am   21  THR21      -0.1953
     14  CA         1.2470   -5.4290  -42.5050 C.3    21  THR21       0.1897
     15  C          1.4290   -6.0860  -43.8640 C.2    21  THR21       0.2313
     16  O          1.6190   -7.3010  -43.9440 O.2    21  THR21      -0.2863
     17  CB         2.6260   -5.1970  -41.8490 C.3    21  THR21       0.1794
     18  OG1        2.4810   -4.3230  -40.7240 O.3    21  THR21      -0.2208
     19  CG2        3.6010   -4.5750  -42.8330 C.3    21  THR21       0.0378
     20  N         -1.1740   -4.2610  -44.9610 N.3    23  ASN23      -0.1225
     21  CA        -2.5800   -3.8740  -45.0610 C.3    23  ASN23       0.1785
     22  C         -2.9110   -2.7700  -44.0660 C.2    23  ASN23       0.2597
     23  O         -2.5610   -2.8540  -42.8910 O.2    23  ASN23      -0.2718
     24  CB        -3.5110   -5.0820  -44.8410 C.3    23  ASN23       0.1169
     25  CG        -3.3050   -6.1700  -45.8830 C.2    23  ASN23       0.2627
     26  OD1       -3.7310   -6.0390  -47.0390 O.2    23  ASN23      -0.2716
     27  ND2       -2.6150   -7.2330  -45.4920 N.am   23  ASN23      -0.0877
     28  N         -3.5740   -1.7220  -44.5270 N.am   24  GLN24      -0.1965
     29  CA        -3.9930   -0.6650  -43.5940 C.3    24  GLN24       0.1733
     30  C         -5.3830   -0.9770  -43.0500 C.2    24  GLN24       0.2616
     31  O         -6.3090   -1.2050  -43.8270 O.2    24  GLN24      -0.2715
     32  CB        -3.9390    0.7100  -44.2780 C.3    24  GLN24       0.0408
     33  CG        -2.5380    1.0660  -44.7950 C.3    24  GLN24       0.0908
     34  CD        -1.5090    1.1060  -43.6740 C.2    24  GLN24       0.2608
     35  OE1       -1.5430    1.9910  -42.8250 O.2    24  GLN24      -0.2717
     36  NE2       -0.6180    0.1190  -43.6450 N.am   24  GLN24      -0.0878
     37  N         -5.5250   -1.0160  -41.7190 N.am   25  MET25      -0.1977
     38  CA        -6.7710   -1.4630  -41.1100 C.3    25  MET25       0.1605
     39  C         -7.9940   -0.6730  -41.5920 C.2    25  MET25       0.2287
     40  O         -9.0490   -1.2510  -41.8190 O.2    25  MET25      -0.2864
     41  CB        -6.6950   -1.4060  -39.5780 C.3    25  MET25       0.0413
     42  CG        -5.6820   -2.3680  -38.9640 C.3    25  MET25       0.0598
     43  SD        -5.5250   -2.1610  -37.1620 S.3    25  MET25      -0.1393
     44  CE        -7.0850   -2.8210  -36.6380 C.3    25  MET25       0.0692
     45  N         -2.2180  -13.3870  -30.7650 N.3    98  TRP98      -0.1241
     46  CA        -2.3970  -12.2100  -29.9200 C.3    98  TRP98       0.1605
     47  C         -3.8740  -12.0170  -29.5640 C.2    98  TRP98       0.2264
     48  O         -4.2090  -11.4060  -28.5560 O.2    98  TRP98      -0.2867
     49  CB        -1.8790  -10.9610  -30.6380 C.3    98  TRP98       0.0550
     50  CG        -2.7120  -10.6020  -31.8480 C.ar   98  TRP98       0.0003
     51  CD1       -2.5620  -11.0840  -33.1130 C.ar   98  TRP98       0.0946
     52  CD2       -3.8180   -9.6970  -31.8920 C.ar   98  TRP98       0.0152
     53  NE1       -3.5060  -10.5440  -33.9410 N.ar   98  TRP98      -0.2442
     54  CE2       -4.2910   -9.6830  -33.2210 C.ar   98  TRP98       0.0810
     55  CE3       -4.4610   -8.9030  -30.9380 C.ar   98  TRP98       0.0012
     56  CZ2       -5.3820   -8.9020  -33.6260 C.ar   98  TRP98       0.0191
     57  CZ3       -5.5510   -8.1270  -31.3400 C.ar   98  TRP98       0.0001
     58  CH2       -6.0010   -8.1380  -32.6680 C.ar   98  TRP98       0.0015
     59  N         -9.9800   -6.7450  -38.4040 N.3   135  ARG135     -0.1245
     60  CA        -9.3650   -7.9910  -38.8470 C.3   135  ARG135      0.1563
     61  C         -9.0910   -8.8700  -37.6190 C.2   135  ARG135      0.2260
     62  O         -8.9530   -8.3630  -36.5020 O.2   135  ARG135     -0.2867
     63  CB        -8.0740   -7.6970  -39.6220 C.3   135  ARG135      0.0307
     64  CG        -6.9910   -6.9440  -38.8150 C.3   135  ARG135      0.0489
     65  CD        -5.9340   -6.3330  -39.7200 C.3   135  ARG135      0.2205
     66  NE        -4.8410   -5.7030  -38.9700 N.pl3 135  ARG135     -0.0865
     67  CZ        -3.8990   -4.9370  -39.5150 C.cat 135  ARG135      0.5346
     68  NH1       -3.9220   -4.6620  -40.8150 N.pl3 135  ARG135      0.1354
     69  NH2       -2.9350   -4.4310  -38.7550 N.pl3 135  ARG135      0.1354
     70  N         -7.6750    6.7350  -26.5450 N.3   245  GLU245     -0.1245
     71  CA        -6.7340    5.7550  -25.9900 C.3   245  GLU245      0.1567
     72  C         -5.6000    6.4450  -25.2470 C.2   245  GLU245      0.2260
     73  O         -5.4800    7.6700  -25.2860 O.2   245  GLU245     -0.2867
     74  CB        -6.1370    4.8910  -27.1060 C.3   245  GLU245      0.0388
     75  CG        -5.2370    5.7020  -28.0630 C.3   245  GLU245      0.1160
     76  CD        -5.3090    5.1910  -29.4970 C.2   245  GLU245      0.3649
     77  OE1       -4.4720    5.6100  -30.3070 O.co2 245  GLU245     -0.2457
     78  OE2       -6.2060    4.3760  -29.8110 O.co2 245  GLU245     -0.2457
     79  N         10.3760   -2.2110  -32.7750 N.3   380  TYR380     -0.1241
     80  CA         9.4600   -3.3300  -32.5910 C.3   380  TYR380      0.1605
     81  C         10.2090   -4.5570  -32.0830 C.2   380  TYR380      0.2264
     82  O          9.7080   -5.2930  -31.2330 O.2   380  TYR380     -0.2867
     83  CB         8.6950   -3.6110  -33.8830 C.3   380  TYR380      0.0534
     84  CG         7.7790   -2.4640  -34.2500 C.ar  380  TYR380     -0.0201
     85  CD1        7.6090   -2.0700  -35.5730 C.ar  380  TYR380     -0.0009
     86  CD2        7.0930   -1.7610  -33.2600 C.ar  380  TYR380     -0.0009
     87  CE1        6.7760   -1.0110  -35.9010 C.ar  380  TYR380      0.0417
     88  CE2        6.2590   -0.7060  -33.5780 C.ar  380  TYR380      0.0417
     89  CZ         6.1030   -0.3360  -34.8980 C.ar  380  TYR380      0.1957
     90  OH         5.2730    0.7130  -35.2130 O.3   380  TYR380     -0.2866
     91  N         -5.0360    0.5570  -27.2790 N.3   396  TRP396     -0.1241
     92  CA        -5.5280    0.2760  -28.6380 C.3   396  TRP396      0.1605
     93  C         -6.8860    0.9050  -28.9840 C.2   396  TRP396      0.2264
     94  O         -7.3140    0.8500  -30.1310 O.2   396  TRP396     -0.2867
     95  CB        -5.5750   -1.2290  -28.8720 C.3   396  TRP396      0.0550
     96  CG        -4.2220   -1.9070  -28.8130 C.ar  396  TRP396      0.0003
     97  CD1       -2.9880   -1.3140  -28.9210 C.ar  396  TRP396      0.0946
     98  CD2       -3.9790   -3.3030  -28.6260 C.ar  396  TRP396      0.0152
     99  NE1       -1.9990   -2.2640  -28.8180 N.ar  396  TRP396     -0.2442
    100  CE2       -2.5810   -3.4910  -28.6300 C.ar  396  TRP396      0.0810
    101  CE3       -4.8100   -4.4140  -28.4420 C.ar  396  TRP396      0.0012
    102  CZ2       -2.0000   -4.7420  -28.4680 C.ar  396  TRP396      0.0191
    103  CZ3       -4.2310   -5.6580  -28.2910 C.ar  396  TRP396      0.0001
    104  CH2       -2.8400   -5.8130  -28.3090 C.ar  396  TRP396      0.0015
    105  N        -10.9160   -2.6900  -28.2630 N.3   400  TYR400     -0.1241
    106  CA        -9.8300   -3.4770  -27.6740 C.3   400  TYR400      0.1605
    107  C         -9.5820   -3.2000  -26.1840 C.2   400  TYR400      0.2264
    108  O         -9.1560   -4.0870  -25.4340 O.2   400  TYR400     -0.2867
    109  CB        -8.5270   -3.1790  -28.4110 C.3   400  TYR400      0.0534
    110  CG        -8.5310   -3.4360  -29.8940 C.ar  400  TYR400     -0.0201
    111  CD1       -8.8810   -2.4310  -30.7970 C.ar  400  TYR400     -0.0009
    112  CD2       -8.1390   -4.6720  -30.4030 C.ar  400  TYR400     -0.0009
    113  CE1       -8.8650   -2.6580  -32.1830 C.ar  400  TYR400      0.0417
    114  CE2       -8.1170   -4.9100  -31.7850 C.ar  400  TYR400      0.0417
    115  CZ        -8.4820   -3.8950  -32.6650 C.ar  400  TYR400      0.1957
    116  OH        -8.4590   -4.1290  -34.0240 O.3   400  TYR400     -0.2866
    117  N          5.4920   -9.5120  -26.9330 N.3   414  HIS414     -0.1241
    118  CA         4.9570   -8.1640  -26.9350 C.3   414  HIS414      0.1621
    119  C          5.5130   -7.3320  -25.7830 C.2   414  HIS414      0.2264
    120  O          5.9240   -7.8740  -24.7500 O.2   414  HIS414     -0.2867
    121  CB         3.4320   -8.2030  -26.7900 C.3   414  HIS414      0.0745
    122  CG         2.7210   -8.8400  -27.9430 C.ar  414  HIS414      0.0817
    123  ND1        1.3620   -8.7150  -28.1360 N.ar  414  HIS414     -0.2268
    124  CD2        3.1780   -9.6030  -28.9650 C.ar  414  HIS414      0.1154
    125  CE1        1.0120   -9.3740  -29.2260 C.ar  414  HIS414      0.1986
    126  NE2        2.0950   -9.9210  -29.7490 N.ar  414  HIS414     -0.2212
    127  N         -9.7190    2.6900  -35.1410 N.3   488  THR488     -0.1218
    128  CA        -8.9150    2.5540  -36.3590 C.3   488  THR488      0.1862
    129  C         -9.7200    2.6850  -37.6450 C.2   488  THR488      0.2287
    130  O         -9.1660    2.6140  -38.7430 O.2   488  THR488     -0.2866
    131  CB        -8.1980    1.2010  -36.4000 C.3   488  THR488      0.1770
    132  OG1       -9.1560    0.1570  -36.1740 O.3   488  THR488     -0.2211
    133  CG2       -7.1350    1.1370  -35.3160 C.3   488  THR488      0.0375
@<TRIPOS>BOND
     1    26    25    2
     2    25    27   am
     3    25    24    1
     4    21    20    1
     5    21    24    1
     6    21    22    1
     7    33    32    1
     8    33    34    1
     9    28    22   am
    10    28    29    1
    11    32    29    1
    12    22    23    2
    13    16    15    2
    14    15    14    1
    15    31    30    2
    16    34    36   am
    17    34    35    2
    18    29    30    1
    19     4     3    2
    20    30    37   am
    21    19    17    1
    22    14    17    1
    23    14    13    1
    24     3    13   am
    25     3     2    1
    26    17    18    1
    27     1     2    1
    28    40    39    2
    29    37    38    1
    30    39    38    1
    31     2     5    1
    32    38    41    1
    33    68    67    1
    34     5     6    1
    35    65    66    1
    36    65    64    1
    37    63    60    1
    38    63    64    1
    39    41    42    1
    40    67    66    2
    41    67    69    1
    42     7     6   ar
    43     7     9   ar
    44    42    43    1
    45     6     8   ar
    46    60    59    1
    47    60    61    1
    48   130   129    2
    49     9    11   ar
    50     8    10   ar
    51   129   128    1
    52    61    62    2
    53    11    10   ar
    54    11    12    1
    55    43    44    1
    56   131   128    1
    57   131   132    1
    58   131   133    1
    59   128   127    1
    60    87    85   ar
    61    87    89   ar
    62    85    84   ar
    63    90    89    1
    64    89    88   ar
    65    84    83    1
    66    84    86   ar
    67   116   115    1
    68    53    54   ar
    69    53    51   ar
    70    83    80    1
    71    56    54   ar
    72    56    58   ar
    73    88    86   ar
    74    54    52   ar
    75    51    50   ar
    76    79    80    1
    77    58    57   ar
    78   115   113   ar
    79   115   114   ar
    80    80    81    1
    81   113   111   ar
    82    81    82    2
    83    52    50   ar
    84    52    55   ar
    85    50    49    1
    86   114   112   ar
    87    57    55   ar
    88   111   110   ar
    89    45    46    1
    90    49    46    1
    91   112   110   ar
    92    77    76   ar
    93    94    93    2
    94    46    47    1
    95   110   109    1
    96    78    76   ar
    97   126   125   ar
    98   126   124   ar
    99    47    48    2
   100    76    75    1
   101   125   123   ar
   102    93    92    1
   103   124   122   ar
   104    97    99   ar
   105    97    96   ar
   106    95    96    1
   107    95    92    1
   108    99   100   ar
   109    96    98   ar
   110    92    91    1
   111   100    98   ar
   112   100   102   ar
   113    98   101   ar
   114   102   104   ar
   115   101   103   ar
   116   109   106    1
   117   104   103   ar
   118   105   106    1
   119   123   122   ar
   120    75    74    1
   121   122   121    1
   122   106   107    1
   123    74    71    1
   124   118   117    1
   125   118   121    1
   126   118   119    1
   127    70    71    1
   128   107   108    2
   129    71    72    1
   130   119   120    2
   131    73    72    2
