@<TRIPOS>MOLECULE
tmp/4dd8D00.pdb
 145 142 0 0 0
SMALL
GASTEIGER

@<TRIPOS>ATOM
      1  N         40.2060   -6.8490   22.1590 N.3    69  PRO69      -0.2116
      2  CA        41.3990   -6.5960   21.3430 C.3    69  PRO69       0.1372
      3  C         41.9190   -5.1670   21.4870 C.2    69  PRO69       0.2244
      4  O         43.1250   -4.9420   21.3890 O.2    69  PRO69      -0.2868
      5  CB        40.8950   -6.8180   19.9130 C.3    69  PRO69       0.0268
      6  CG        39.6950   -7.6850   20.0580 C.3    69  PRO69       0.0207
      7  CD        39.0570   -7.2750   21.3440 C.3    69  PRO69       0.0892
      8  N         35.1500  -13.0310   16.7670 N.3   104  THR104     -0.1203
      9  CA        36.0310  -13.8790   15.9780 C.3   104  THR104      0.1994
     10  C         37.3580  -13.1850   15.6820 C.2   104  THR104      0.2619
     11  O         38.1740  -13.6800   14.9040 O.2   104  THR104     -0.2717
     12  CB        35.3510  -14.3320   14.6780 C.3   104  THR104      0.1784
     13  OG1       34.9210  -13.1860   13.9350 O.3   104  THR104     -0.2211
     14  CG2       34.1450  -15.1970   14.9970 C.3   104  THR104      0.0376
     15  N         37.5670  -12.0400   16.3220 N.am  105  THR105     -0.1938
     16  CA        38.8000  -11.2770   16.1800 C.3   105  THR105      0.2028
     17  C         39.9920  -12.0550   16.7340 C.2   105  THR105      0.2642
     18  O         39.9280  -12.5950   17.8390 O.2   105  THR105     -0.2714
     19  CB        38.6940   -9.9300   16.9150 C.3   105  THR105      0.1808
     20  OG1       37.5770   -9.1930   16.4010 O.3   105  THR105     -0.2208
     21  CG2       39.9640   -9.1150   16.7340 C.3   105  THR105      0.0379
     22  N         41.0790  -12.1030   15.9660 N.am  106  VAL106     -0.1963
     23  CA        42.2650  -12.8620   16.3560 C.3   106  VAL106      0.1727
     24  C         43.5430  -12.0220   16.3500 C.2   106  VAL106      0.2617
     25  O         44.6140  -12.5040   16.7230 O.2   106  VAL106     -0.2715
     26  CB        42.4660  -14.0880   15.4450 C.3   106  VAL106      0.0290
     27  CG1       41.3050  -15.0470   15.5960 C.3   106  VAL106      0.0023
     28  CG2       42.6120  -13.6570   13.9950 C.3   106  VAL106      0.0023
     29  N         43.4270  -10.7670   15.9290 N.am  107  GLY107     -0.1940
     30  CA        44.5780   -9.8880   15.8490 C.3   107  GLY107      0.2014
     31  C         44.1900   -8.4270   15.7440 C.2   107  GLY107      0.2639
     32  O         43.1750   -8.0850   15.1390 O.2   107  GLY107     -0.2714
     33  N         45.0120   -7.5670   16.3330 N.am  108  PHE108     -0.1959
     34  CA        44.7550   -6.1340   16.3580 C.3   108  PHE108      0.1771
     35  C         46.0840   -5.4030   16.2300 C.2   108  PHE108      0.2619
     36  O         47.0930   -5.8620   16.7570 O.2   108  PHE108     -0.2715
     37  CB        44.0710   -5.7590   17.6710 C.3   108  PHE108      0.0574
     38  CG        42.9390   -4.7960   17.5080 C.ar  108  PHE108     -0.0200
     39  CD1       41.7950   -5.1640   16.8160 C.ar  108  PHE108     -0.0042
     40  CD2       43.0090   -3.5270   18.0530 C.ar  108  PHE108     -0.0042
     41  CE1       40.7430   -4.2800   16.6620 C.ar  108  PHE108     -0.0003
     42  CE2       41.9600   -2.6370   17.9050 C.ar  108  PHE108     -0.0003
     43  CZ        40.8250   -3.0150   17.2080 C.ar  108  PHE108     -0.0000
     44  N         46.0960   -4.2690   15.5380 N.am  109  ALA109     -0.1977
     45  CA        47.3580   -3.5790   15.2780 C.3   109  ALA109      0.1597
     46  C         47.2540   -2.0540   15.2310 C.2   109  ALA109      0.2287
     47  O         46.1920   -1.4940   14.9560 O.2   109  ALA109     -0.2864
     48  CB        47.9950   -4.1080   13.9930 C.3   109  ALA109      0.0319
     49  N         45.1470  -18.9570   17.5840 N.3   126  HIS126     -0.1241
     50  CA        43.8060  -19.5010   17.4200 C.3   126  HIS126      0.1621
     51  C         43.8080  -20.8620   16.7390 C.2   126  HIS126      0.2264
     52  O         42.7830  -21.5400   16.6890 O.2   126  HIS126     -0.2867
     53  CB        42.9550  -18.5250   16.6080 C.3   126  HIS126      0.0745
     54  CG        43.5310  -18.2010   15.2650 C.ar  126  HIS126      0.0817
     55  ND1       44.6410  -17.4000   15.1050 N.ar  126  HIS126     -0.2268
     56  CD2       43.1590  -18.5810   14.0200 C.ar  126  HIS126      0.1154
     57  CE1       44.9270  -17.2970   13.8200 C.ar  126  HIS126      0.1986
     58  NE2       44.0420  -18.0030   13.1390 N.ar  126  HIS126     -0.2212
     59  N         50.1300  -16.2240   10.0660 N.3   135  CYS135     -0.1221
     60  CA        49.4090  -15.4280    9.0780 C.3   135  CYS135      0.1808
     61  C         48.7940  -14.1840    9.7070 C.2   135  CYS135      0.2601
     62  O         48.8390  -13.1020    9.1280 O.2   135  CYS135     -0.2717
     63  CB        48.3270  -16.2620    8.3860 C.3   135  CYS135      0.0970
     64  SG        48.9630  -17.4460    7.1780 S.3   135  CYS135     -0.0800
     65  N         48.2090  -14.3470   10.8890 N.am  136  THR136     -0.1953
     66  CA        47.6710  -13.2150   11.6390 C.3   136  THR136      0.1897
     67  C         48.7470  -12.1660   11.9100 C.2   136  THR136      0.2313
     68  O         48.5340  -10.9710   11.7080 O.2   136  THR136     -0.2863
     69  CB        47.0770  -13.6650   12.9850 C.3   136  THR136      0.1794
     70  OG1       45.8590  -14.3800   12.7530 O.3   136  THR136     -0.2208
     71  CG2       46.7940  -12.4620   13.8780 C.3   136  THR136      0.0378
     72  N         49.7200  -10.3000    8.8860 N.3   139  HIS139     -0.1226
     73  CA        48.6510   -9.3470    8.6080 C.3   139  HIS139      0.1752
     74  C         48.7910   -8.1030    9.4780 C.2   139  HIS139      0.2595
     75  O         48.8280   -6.9840    8.9680 O.2   139  HIS139     -0.2718
     76  CB        47.2730   -9.9810    8.8240 C.3   139  HIS139      0.0759
     77  CG        46.1320   -9.0440    8.5710 C.ar  139  HIS139      0.0818
     78  ND1       45.2020   -9.2530    7.5750 N.ar  139  HIS139     -0.2268
     79  CD2       45.7770   -7.8860    9.1780 C.ar  139  HIS139      0.1154
     80  CE1       44.3200   -8.2680    7.5830 C.ar  139  HIS139      0.1986
     81  NE2       44.6470   -7.4240    8.5440 N.ar  139  HIS139     -0.2212
     82  N         48.8670   -8.3060   10.7910 N.am  140  GLU140     -0.1979
     83  CA        48.9980   -7.2000   11.7360 C.3   140  GLU140      0.1602
     84  C         50.3040   -6.4220   11.5440 C.2   140  GLU140      0.2287
     85  O         50.3320   -5.1970   11.6850 O.2   140  GLU140     -0.2864
     86  CB        48.8760   -7.6940   13.1810 C.3   140  GLU140      0.0415
     87  CG        47.6430   -8.5480   13.4540 C.3   140  GLU140      0.1163
     88  CD        46.3360   -7.8760   13.0620 C.2   140  GLU140      0.3649
     89  OE1       46.2930   -6.6330   12.9430 O.co2 140  GLU140     -0.2457
     90  OE2       45.3380   -8.6010   12.8760 O.co2 140  GLU140     -0.2457
     91  N         49.6780   -3.9530    8.7450 N.3   143  HIS143     -0.1241
     92  CA        49.0860   -2.7080    9.2140 C.3   143  HIS143      0.1621
     93  C         50.1520   -1.7720    9.7830 C.2   143  HIS143      0.2264
     94  O         50.1870   -0.5870    9.4530 O.2   143  HIS143     -0.2867
     95  CB        48.0320   -2.9980   10.2810 C.3   143  HIS143      0.0745
     96  CG        46.7510   -3.5300    9.7290 C.ar  143  HIS143      0.0817
     97  ND1       46.2530   -3.1400    8.5050 N.ar  143  HIS143     -0.2268
     98  CD2       45.8650   -4.4220   10.2290 C.ar  143  HIS143      0.1154
     99  CE1       45.1130   -3.7670    8.2760 C.ar  143  HIS143      0.1986
    100  NE2       44.8550   -4.5520    9.3070 N.ar  143  HIS143     -0.2212
    101  N         43.2060   -3.0440    4.4830 N.3   149  HIS149     -0.1241
    102  CA        42.5570   -4.2670    4.0280 C.3   149  HIS149      0.1621
    103  C         42.2920   -4.1940    2.5300 C.2   149  HIS149      0.2264
    104  O         42.0980   -3.1100    1.9800 O.2   149  HIS149     -0.2867
    105  CB        41.2560   -4.5050    4.7900 C.3   149  HIS149      0.0745
    106  CG        41.4580   -4.9950    6.1900 C.ar  149  HIS149      0.0817
    107  ND1       40.4440   -5.0230    7.1240 N.ar  149  HIS149     -0.2268
    108  CD2       42.5550   -5.4850    6.8130 C.ar  149  HIS149      0.1154
    109  CE1       40.9100   -5.5050    8.2630 C.ar  149  HIS149      0.1986
    110  NE2       42.1880   -5.7940    8.1000 N.ar  149  HIS149     -0.2212
    111  N         46.7240  -11.9500    2.0560 N.3   168  ILE168     -0.1245
    112  CA        47.0400  -11.7540    3.4680 C.3   168  ILE168      0.1561
    113  C         46.2820  -10.6000    4.1240 C.2   168  ILE168      0.2260
    114  O         45.8330  -10.7180    5.2680 O.2   168  ILE168     -0.2867
    115  CB        48.5540  -11.5590    3.6810 C.3   168  ILE168      0.0252
    116  CG1       49.3090  -12.8060    3.2240 C.3   168  ILE168      0.0019
    117  CG2       48.8570  -11.2550    5.1420 C.3   168  ILE168      0.0019
    118  CD1       50.8020  -12.7020    3.3510 C.3   168  ILE168      0.0001
    119  N         43.4040   -9.4750    3.6490 N.3   170  ALA170     -0.1231
    120  CA        41.9560   -9.5880    3.6950 C.3   170  ALA170      0.1694
    121  C         41.5180   -9.3810    5.1390 C.2   170  ALA170      0.2593
    122  O         42.2240   -9.7660    6.0670 O.2   170  ALA170     -0.2718
    123  CB        41.5100  -10.9450    3.1810 C.3   170  ALA170      0.0304
    124  N         40.3630   -8.7590    5.3330 N.am  171  GLY171     -0.1942
    125  CA        39.8810   -8.4660    6.6700 C.3   171  GLY171      0.2014
    126  C         39.3600   -9.6980    7.3740 C.2   171  GLY171      0.2640
    127  O         38.9730   -9.6420    8.5400 O.2   171  GLY171     -0.2714
    128  N         39.3420  -10.8110    6.6470 N.am  172  SER172     -0.1935
    129  CA        38.8880  -12.0950    7.1660 C.3   172  SER172      0.2055
    130  C         39.8120  -13.1960    6.6660 C.2   172  SER172      0.2643
    131  O         40.2390  -13.1800    5.5130 O.2   172  SER172     -0.2714
    132  CB        37.4590  -12.3950    6.7010 C.3   172  SER172      0.2130
    133  OG        36.5060  -11.5940    7.3760 O.3   172  SER172     -0.2179
    134  N         40.1170  -14.1560    7.5280 N.am  173  ILE173     -0.1963
    135  CA        40.9060  -15.3070    7.1130 C.3   173  ILE173      0.1727
    136  C         40.0540  -16.2500    6.2660 C.2   173  ILE173      0.2616
    137  O         40.4550  -16.6670    5.1790 O.2   173  ILE173     -0.2715
    138  CB        41.4800  -16.0710    8.3210 C.3   173  ILE173      0.0290
    139  CG1       42.4030  -15.1600    9.1350 C.3   173  ILE173      0.0022
    140  CG2       42.2270  -17.3160    7.8600 C.3   173  ILE173      0.0023
    141  CD1       42.9910  -15.8210   10.3680 C.3   173  ILE173      0.0001
    142  N         38.8660  -16.5690    6.7610 N.am  174  GLY174     -0.1955
    143  CA        38.0120  -17.5210    6.0840 C.3   174  GLY174      0.1869
    144  C         38.5060  -18.9360    6.3090 C.2   174  GLY174      0.2309
    145  O         39.1810  -19.2200    7.3000 O.2   174  GLY174     -0.2863
@<TRIPOS>BOND
     1   104   103    2
     2   111   112    1
     3   103   102    1
     4   123   120    1
     5   116   118    1
     6   116   115    1
     7   112   115    1
     8   112   113    1
     9   119   120    1
    10   115   117    1
    11   120   121    1
    12   102   101    1
    13   102   105    1
    14   113   114    2
    15   105   106    1
    16   121   124   am
    17   121   122    2
    18   137   136    2
    19   124   125    1
    20   131   130    2
    21   143   144    1
    22   143   142    1
    23   106   108   ar
    24   106   107   ar
    25   136   142   am
    26   136   135    1
    27   144   145    2
    28   128   129    1
    29   128   126   am
    30   130   129    1
    31   130   134   am
    32   125   126    1
    33   132   129    1
    34   132   133    1
    35   108   110   ar
    36   135   134    1
    37   135   138    1
    38   107   109   ar
    39    64    63    1
    40   126   127    2
    41    78    80   ar
    42    78    77   ar
    43    80    81   ar
    44   140   138    1
    45   110   109   ar
    46    99    97   ar
    47    99   100   ar
    48   138   139    1
    49    63    60    1
    50    97    96   ar
    51    81    79   ar
    52    77    76    1
    53    77    79   ar
    54    73    76    1
    55    73    72    1
    56    73    74    1
    57    91    92    1
    58    75    74    2
    59    60    61    1
    60    60    59    1
    61    62    61    2
    62   139   141    1
    63    92    93    1
    64    92    95    1
    65   100    98   ar
    66    94    93    2
    67    74    82   am
    68    61    65   am
    69    96    98   ar
    70    96    95    1
    71    82    83    1
    72    65    66    1
    73    84    85    2
    74    84    83    1
    75    66    67    1
    76    66    69    1
    77    68    67    2
    78    83    86    1
    79    70    69    1
    80    90    88   ar
    81    89    88   ar
    82    69    71    1
    83    88    87    1
    84    58    57   ar
    85    58    56   ar
    86    86    87    1
    87    57    55   ar
    88    13    12    1
    89    48    45    1
    90    28    26    1
    91    56    54   ar
    92    12    14    1
    93    12     9    1
    94    11    10    2
    95    47    46    2
    96    55    54   ar
    97    32    31    2
    98    46    45    1
    99    54    53    1
   100    45    44    1
   101    26    27    1
   102    26    23    1
   103    44    35   am
   104    10     9    1
   105    10    15   am
   106    31    30    1
   107    31    33   am
   108    30    29    1
   109    29    24   am
   110    22    23    1
   111    22    17   am
   112     9     8    1
   113    16    15    1
   114    16    17    1
   115    16    19    1
   116    35    34    1
   117    35    36    2
   118    33    34    1
   119    24    23    1
   120    24    25    2
   121    34    37    1
   122    20    19    1
   123    53    50    1
   124    41    39   ar
   125    41    43   ar
   126    52    51    2
   127    21    19    1
   128    17    18    2
   129    51    50    1
   130    39    38   ar
   131    43    42   ar
   132    50    49    1
   133    38    37    1
   134    38    40   ar
   135    42    40   ar
   136     5     6    1
   137     5     2    1
   138     6     7    1
   139     2     3    1
   140     2     1    1
   141     7     1    1
   142     4     3    2
