@<TRIPOS>MOLECULE
tmp/4ddhB00.pdb
 120 116 0 0 0
SMALL
GASTEIGER

@<TRIPOS>ATOM
      1  N         -3.0000   -7.0400   30.0650 N.3    37  PRO37      -0.2102
      2  CA        -2.3080   -8.1820   29.4220 C.3    37  PRO37       0.1504
      3  C         -1.7960   -9.2220   30.4030 C.2    37  PRO37       0.2576
      4  O         -1.2230   -8.8710   31.4210 O.2    37  PRO37      -0.2718
      5  CB        -1.1780   -7.5280   28.6450 C.3    37  PRO37       0.0282
      6  CG        -1.2020   -5.9640   29.0440 C.3    37  PRO37       0.0208
      7  CD        -2.0880   -5.9190   30.2750 C.3    37  PRO37       0.0893
      8  N         -2.0650  -10.4960   30.1110 N.am   38  THR38      -0.1953
      9  CA        -1.7670  -11.5720   31.0490 C.3    38  THR38       0.1897
     10  C         -1.1050  -12.7510   30.3400 C.2    38  THR38       0.2313
     11  O         -1.0750  -12.8460   29.1030 O.2    38  THR38      -0.2863
     12  CB        -3.0410  -12.1350   31.8190 C.3    38  THR38       0.1794
     13  OG1       -3.7960  -12.9970   30.9690 O.3    38  THR38      -0.2208
     14  CG2       -3.9730  -11.0520   32.3600 C.3    38  THR38       0.0378
     15  N         -5.2760  -15.4640   38.7470 N.3    43  HIS43      -0.1241
     16  CA        -5.5650  -15.4260   40.1530 C.3    43  HIS43       0.1621
     17  C         -6.0610  -14.0310   40.5140 C.2    43  HIS43       0.2264
     18  O         -6.2930  -13.1990   39.6130 O.2    43  HIS43      -0.2867
     19  CB        -4.3230  -15.7720   40.9500 C.3    43  HIS43       0.0745
     20  CG        -3.1170  -14.9760   40.5540 C.ar   43  HIS43       0.0817
     21  ND1       -3.0270  -13.6110   40.7490 N.ar   43  HIS43      -0.2268
     22  CD2       -1.9350  -15.3570   40.0170 C.ar   43  HIS43       0.1154
     23  CE1       -1.8450  -13.1850   40.3550 C.ar   43  HIS43       0.1986
     24  NE2       -1.1690  -14.2180   39.8860 N.ar   43  HIS43      -0.2212
     25  N         -4.8780  -11.4720   41.7970 N.3    45  GLY45      -0.1210
     26  CA        -4.0690  -10.3760   41.2990 C.3    45  GLY45       0.1956
     27  C         -4.5860   -9.8900   39.9600 C.2    45  GLY45       0.2611
     28  O         -4.7100   -8.6970   39.7550 O.2    45  GLY45      -0.2717
     29  N         -4.9080  -10.8300   39.0700 N.am   46  HIS46      -0.1975
     30  CA        -5.3410  -10.5090   37.7230 C.3    46  HIS46       0.1656
     31  C         -6.7400   -9.9070   37.7870 C.2    46  HIS46       0.2291
     32  O         -7.0270   -8.9220   37.0730 O.2    46  HIS46      -0.2864
     33  CB        -5.3390  -11.7420   36.8450 C.3    46  HIS46       0.0771
     34  CG        -3.9790  -12.2830   36.5780 C.ar   46  HIS46       0.0820
     35  ND1       -3.4630  -13.3690   37.2590 N.ar   46  HIS46      -0.2267
     36  CD2       -3.0260  -11.9070   35.6880 C.ar   46  HIS46       0.1154
     37  CE1       -2.2520  -13.6420   36.7920 C.ar   46  HIS46       0.1986
     38  NE2       -1.9620  -12.7610   35.8470 N.ar   46  HIS46      -0.2212
     39  N         -7.9630   -8.1460   40.1340 N.3    48  ALA48      -0.1231
     40  CA        -7.8220   -6.7450   40.5260 C.3    48  ALA48       0.1694
     41  C         -7.3980   -5.8160   39.3830 C.2    48  ALA48       0.2591
     42  O         -7.8100   -4.6490   39.4070 O.2    48  ALA48      -0.2718
     43  CB        -6.9290   -6.5550   41.7830 C.3    48  ALA48       0.0304
     44  N         -6.5900   -6.3030   38.4010 N.am   49  LEU49      -0.1980
     45  CA        -6.2620   -5.5070   37.1750 C.3    49  LEU49       0.1596
     46  C         -7.5260   -5.2830   36.4020 C.2    49  LEU49       0.2287
     47  O         -7.8300   -4.1630   36.0310 O.2    49  LEU49      -0.2864
     48  CB        -5.2040   -6.1430   36.2730 C.3    49  LEU49       0.0297
     49  CG        -3.8790   -6.5930   36.9650 C.3    49  LEU49       0.0022
     50  CD1       -2.8840   -6.8530   35.9480 C.3    49  LEU49       0.0001
     51  CD2       -3.3740   -5.5640   37.9000 C.3    49  LEU49       0.0001
     52  N          0.2440   -4.9970   37.2490 N.3   148  GLY148     -0.1225
     53  CA         0.5540   -5.0610   38.6460 C.3   148  GLY148      0.1811
     54  C          1.8490   -4.3650   39.0160 C.2   148  GLY148      0.2280
     55  O          2.8900   -4.3780   38.2660 O.2   148  GLY148     -0.2866
     56  N          3.3180   -5.7490   41.4140 N.3   150  LYS150     -0.1231
     57  CA         4.1830   -6.8840   41.8950 C.3   150  LYS150      0.1693
     58  C          5.4320   -6.9140   41.0980 C.2   150  LYS150      0.2592
     59  O          6.4870   -6.9050   41.6710 O.2   150  LYS150     -0.2718
     60  CB         3.5540   -8.3110   41.9280 C.3   150  LYS150      0.0285
     61  CG         4.4120   -9.2250   42.9330 C.3   150  LYS150      0.0035
     62  CD         4.3620  -10.7670   42.8370 C.3   150  LYS150      0.0206
     63  CE         5.5220  -11.3070   41.9900 C.3   150  LYS150      0.1093
     64  NZ         5.2570  -11.2390   40.4740 N.3   150  LYS150     -0.1314
     65  N          5.3100   -6.8810   39.7670 N.am  151  ASP151     -0.1974
     66  CA         6.4270   -6.8090   38.8460 C.3   151  ASP151      0.1709
     67  C          6.7870   -5.3640   38.5900 C.2   151  ASP151      0.2293
     68  O          6.5230   -4.7920   37.5130 O.2   151  ASP151     -0.2864
     69  CB         6.0600   -7.5610   37.5630 C.3   151  ASP151      0.1436
     70  CG         5.7230   -9.0380   37.8620 C.2   151  ASP151      0.3671
     71  OD1        6.6600   -9.7170   38.2920 O.co2 151  ASP151     -0.2456
     72  OD2        4.5420   -9.4580   37.7730 O.co2 151  ASP151     -0.2456
     73  N         -1.2810   -1.2210   39.2690 N.3   174  VAL174     -0.1231
     74  CA        -2.2980   -1.5670   40.2620 C.3   174  VAL174      0.1678
     75  C         -1.6200   -2.2630   41.4980 C.2   174  VAL174      0.2434
     76  O         -0.8530   -3.2640   41.2890 O.2   174  VAL174     -0.2733
     77  CB        -3.3850   -2.4700   39.6540 C.3   174  VAL174      0.0265
     78  CG1       -4.4270   -2.9290   40.7710 C.3   174  VAL174      0.0020
     79  CG2       -4.1050   -1.7290   38.5500 C.3   174  VAL174      0.0020
     80  N         -1.8570   -1.7220   42.7440 N.am  175  PRO175     -0.2718
     81  CA        -1.1820   -2.2730   43.9460 C.3   175  PRO175      0.1535
     82  C         -1.3050   -3.7920   43.9980 C.2   175  PRO175      0.2599
     83  O         -2.2990   -4.3610   43.4920 O.2   175  PRO175     -0.2715
     84  CB        -1.8960   -1.6070   45.1450 C.3   175  PRO175      0.0310
     85  CG        -2.8290   -0.4450   44.5190 C.3   175  PRO175      0.0237
     86  CD        -2.4510   -0.3880   43.0250 C.3   175  PRO175      0.0939
     87  N         -0.2890   -4.4150   44.5890 N.am  176  THR176     -0.1937
     88  CA        -0.1610   -5.8520   44.6770 C.3   176  THR176      0.2028
     89  C         -1.2730   -6.4020   45.5120 C.2   176  THR176      0.2642
     90  O         -1.5630   -5.8870   46.5620 O.2   176  THR176     -0.2714
     91  CB         1.1590   -6.1750   45.3800 C.3   176  THR176      0.1808
     92  OG1        2.2360   -5.6970   44.5710 O.3   176  THR176     -0.2208
     93  CG2        1.3080   -7.6800   45.6860 C.3   176  THR176      0.0379
     94  N         -1.9110   -7.4580   45.0380 N.am  177  VAL177     -0.1977
     95  CA        -2.8190   -8.1890   45.8660 C.3   177  VAL177      0.1596
     96  C         -1.9720   -9.1830   46.6890 C.2   177  VAL177      0.2287
     97  O         -0.9400   -9.7060   46.2220 O.2   177  VAL177     -0.2864
     98  CB        -3.8740   -8.9640   45.0190 C.3   177  VAL177      0.0276
     99  CG1       -4.6800   -9.9220   45.8950 C.3   177  VAL177      0.0022
    100  CG2       -4.8110   -7.9860   44.2850 C.3   177  VAL177      0.0022
    101  N          0.5440  -12.1460   45.8770 N.3   185  MET185     -0.1230
    102  CA        -0.0650  -13.1090   44.9530 C.3   185  MET185      0.1702
    103  C          0.8770  -13.3770   43.7940 C.2   185  MET185      0.2593
    104  O          1.3270  -12.4490   43.1730 O.2   185  MET185     -0.2718
    105  CB        -1.3720  -12.5600   44.3450 C.3   185  MET185      0.0401
    106  CG        -2.5850  -12.5980   45.2210 C.3   185  MET185      0.0596
    107  SD        -2.8500  -14.2350   45.8000 S.3   185  MET185     -0.1393
    108  CE        -2.7870  -15.3110   44.3450 C.3   185  MET185      0.0692
    109  N          1.1510  -14.6510   43.5100 N.am  186  SER186     -0.1938
    110  CA         1.9060  -15.0340   42.3470 C.3   186  SER186      0.2055
    111  C          1.5150  -16.4230   41.8600 C.2   186  SER186      0.2643
    112  O          1.2790  -17.3310   42.6800 O.2   186  SER186     -0.2714
    113  CB         3.3980  -15.0930   42.6990 C.3   186  SER186      0.2130
    114  OG         4.1480  -15.3750   41.5200 O.3   186  SER186     -0.2179
    115  N          1.5360  -16.5900   40.5310 N.am  187  SER187     -0.1949
    116  CA         1.4000  -17.8970   39.9010 C.3   187  SER187      0.1924
    117  C          2.2890  -18.9290   40.5620 C.2   187  SER187      0.2314
    118  O          1.8840  -20.1120   40.7350 O.2   187  SER187     -0.2863
    119  CB         1.7030  -17.8350   38.3870 C.3   187  SER187      0.2116
    120  OG         0.8890  -16.8500   37.7460 O.3   187  SER187     -0.2180
@<TRIPOS>BOND
     1     5     6    1
     2     5     2    1
     3     6     7    1
     4    11    10    2
     5     2     1    1
     6     2     3    1
     7     1     7    1
     8     8     3   am
     9     8     9    1
    10    10     9    1
    11     3     4    2
    12    13    12    1
    13     9    12    1
    14    12    14    1
    15    36    38   ar
    16    36    34   ar
    17    38    37   ar
    18    50    49    1
    19    47    46    2
    20    48    49    1
    21    48    45    1
    22    46    45    1
    23    34    33    1
    24    34    35   ar
    25    37    35   ar
    26    33    30    1
    27    49    51    1
    28    32    31    2
    29    45    44    1
    30    52    53    1
    31    68    67    2
    32    69    70    1
    33    69    66    1
    34    30    31    1
    35    30    29    1
    36   120   119    1
    37    72    70   ar
    38    70    71   ar
    39    55    54    2
    40   119   116    1
    41    44    41   am
    42    79    77    1
    43    67    66    1
    44    53    54    1
    45    15    16    1
    46    66    65    1
    47    29    27   am
    48    73    74    1
    49    41    42    2
    50    41    40    1
    51    18    17    2
    52    77    74    1
    53    77    78    1
    54    28    27    2
    55    65    58   am
    56    24    22   ar
    57    24    23   ar
    58   116   115    1
    59   116   117    1
    60    27    26    1
    61    22    20   ar
    62    39    40    1
    63    16    17    1
    64    16    19    1
    65    74    75    1
    66    23    21   ar
    67    64    63    1
    68    40    43    1
    69   115   111   am
    70    20    21   ar
    71    20    19    1
    72   117   118    2
    73    58    59    2
    74    58    57    1
    75    76    75    2
    76    26    25    1
    77    56    57    1
    78    75    80   am
    79   114   113    1
    80   111   110    1
    81   111   112    2
    82    57    60    1
    83    60    61    1
    84    63    62    1
    85   110   113    1
    86   110   109    1
    87    80    86    1
    88    80    81    1
    89    62    61    1
    90    86    85    1
    91   104   103    2
    92    83    82    2
    93   109   103   am
    94   103   102    1
    95    81    82    1
    96    81    84    1
    97    82    87   am
    98   100    98    1
    99   108   107    1
   100   105   102    1
   101   105   106    1
   102    85    84    1
   103    92    91    1
   104    87    88    1
   105    88    91    1
   106    88    89    1
   107   102   101    1
   108    98    95    1
   109    98    99    1
   110    94    89   am
   111    94    95    1
   112   106   107    1
   113    91    93    1
   114    89    90    2
   115    95    96    1
   116    97    96    2
