@<TRIPOS>MOLECULE
tmp/4ddjA01.pdb
 77 71 0 0 0
SMALL
GASTEIGER

@<TRIPOS>ATOM
      1  N         20.7220    6.6170  -15.4050 N.3    17  MET17      -0.1230
      2  CA        19.6360    6.9640  -14.5030 C.3    17  MET17       0.1702
      3  C         20.1120    8.0290  -13.5220 C.2    17  MET17       0.2592
      4  O         19.3850    8.9990  -13.1800 O.2    17  MET17      -0.2718
      5  CB        19.2060    5.7060  -13.7460 C.3    17  MET17       0.0401
      6  CG        17.9210    5.9140  -13.0030 C.3    17  MET17       0.0596
      7  SD        17.6590    4.5410  -11.9060 S.3    17  MET17      -0.1393
      8  CE        19.1700    4.6750  -10.9490 C.3    17  MET17       0.0692
      9  N         21.3140    7.8340  -13.0140 N.am   18  LEU18      -0.1980
     10  CA        21.9100    8.7870  -12.0790 C.3    18  LEU18       0.1596
     11  C         22.2870   10.1230  -12.6910 C.2    18  LEU18       0.2287
     12  O         22.3070   11.1390  -11.9610 O.2    18  LEU18      -0.2864
     13  CB        23.1060    8.1810  -11.3450 C.3    18  LEU18       0.0297
     14  CG        22.8770    6.8970  -10.5600 C.3    18  LEU18       0.0022
     15  CD1       24.2590    6.5280   -9.9070 C.3    18  LEU18       0.0001
     16  CD2       21.7970    7.0300   -9.5070 C.3    18  LEU18       0.0001
     17  N         20.4200   11.6310  -14.8470 N.3    20  ASP20      -0.1239
     18  CA        19.1110   12.2880  -15.0400 C.3    20  ASP20       0.1674
     19  C         18.9600   13.4430  -14.1000 C.2    20  ASP20       0.2266
     20  O         19.1630   13.3340  -12.8910 O.2    20  ASP20      -0.2867
     21  CB        17.9780   11.3010  -14.7980 C.3    20  ASP20       0.1410
     22  CG        16.6310   11.8390  -15.1720 C.2    20  ASP20       0.3668
     23  OD1       16.3130   12.9990  -14.8420 O.co2  20  ASP20      -0.2456
     24  OD2       15.8530   11.0660  -15.7690 O.co2  20  ASP20      -0.2456
     25  N         16.5880   15.0250  -12.6850 N.3    22  ALA22      -0.1231
     26  CA        15.5820   14.8980  -11.6010 C.3    22  ALA22       0.1694
     27  C         15.9010   13.8340  -10.5430 C.2    22  ALA22       0.2592
     28  O         15.2380   13.7420   -9.5180 O.2    22  ALA22      -0.2718
     29  CB        14.2050   14.6110  -12.1840 C.3    22  ALA22       0.0304
     30  N         16.8820   12.9890  -10.7990 N.am   23  THR23      -0.1953
     31  CA        17.2150   11.9080   -9.8720 C.3    23  THR23       0.1897
     32  C         17.7680   12.3460   -8.5360 C.2    23  THR23       0.2313
     33  O         17.3730   11.7850   -7.4960 O.2    23  THR23      -0.2863
     34  CB        18.2700   10.9340  -10.5240 C.3    23  THR23       0.1794
     35  OG1       17.6060   10.2740  -11.5840 O.3    23  THR23      -0.2208
     36  CG2       18.7580    9.8860   -9.5170 C.3    23  THR23       0.0378
     37  N         15.0290   13.9890   -6.5530 N.3    26  GLU26      -0.1231
     38  CA        14.1560   12.9720   -5.9620 C.3    26  GLU26       0.1699
     39  C         14.7410   12.3130   -4.7270 C.2    26  GLU26       0.2592
     40  O         14.0700   12.0870   -3.6920 O.2    26  GLU26      -0.2718
     41  CB        13.9030   11.9100   -7.0170 C.3    26  GLU26       0.0402
     42  CG        12.6860   11.0720   -6.8430 C.3    26  GLU26       0.1161
     43  CD        12.2850   10.4130   -8.1680 C.2    26  GLU26       0.3649
     44  OE1       12.1230   11.1250   -9.1870 O.co2  26  GLU26      -0.2457
     45  OE2       12.1410    9.1770   -8.1950 O.co2  26  GLU26      -0.2457
     46  N         16.0200   11.9800   -4.8250 N.am   27  ILE27      -0.1980
     47  CA        16.7080   11.3860   -3.6810 C.3    27  ILE27       0.1595
     48  C         16.8250   12.3730   -2.5250 C.2    27  ILE27       0.2287
     49  O         16.6210   12.0200   -1.3920 O.2    27  ILE27      -0.2864
     50  CB        18.1570   10.9910   -4.0900 C.3    27  ILE27       0.0276
     51  CG1       18.0580    9.9580   -5.1880 C.3    27  ILE27       0.0022
     52  CG2       18.8960   10.3950   -2.8470 C.3    27  ILE27       0.0022
     53  CD1       19.4050    9.5560   -5.8050 C.3    27  ILE27       0.0001
     54  N         28.2350   11.7390   -2.2000 N.3    58  ILE58      -0.1231
     55  CA        28.1060   10.3050   -2.3260 C.3    58  ILE58       0.1692
     56  C         27.6380    9.9950   -3.7380 C.2    58  ILE58       0.2591
     57  O         28.1640    9.0640   -4.3850 O.2    58  ILE58      -0.2718
     58  CB        27.1250    9.7390   -1.2940 C.3    58  ILE58       0.0266
     59  CG1       27.6130   10.0170    0.1640 C.3    58  ILE58       0.0019
     60  CG2       26.8000    8.2410   -1.6250 C.3    58  ILE58       0.0020
     61  CD1       28.9280    9.4150    0.5250 C.3    58  ILE58       0.0001
     62  N         26.7060   10.8100   -4.2380 N.am   59  LEU59      -0.1980
     63  CA        26.2040   10.5640   -5.6240 C.3    59  LEU59       0.1596
     64  C         27.3350   10.6540   -6.6340 C.2    59  LEU59       0.2287
     65  O         27.4200    9.8290   -7.5630 O.2    59  LEU59      -0.2864
     66  CB        25.0560   11.5030   -6.0170 C.3    59  LEU59       0.0297
     67  CG        23.7030   10.9580   -5.5130 C.3    59  LEU59       0.0022
     68  CD1       22.5290   11.8650   -6.0110 C.3    59  LEU59       0.0001
     69  CD2       23.4690    9.5160   -5.9530 C.3    59  LEU59       0.0001
     70  N         29.4970    7.4740   -6.7180 N.3    62  ILE62      -0.1245
     71  CA        28.8000    6.3740   -7.4230 C.3    62  ILE62       0.1561
     72  C         28.7830    6.5800   -8.9270 C.2    62  ILE62       0.2260
     73  O         29.1420    5.6680   -9.6940 O.2    62  ILE62      -0.2867
     74  CB        27.3570    6.1610   -6.8830 C.3    62  ILE62       0.0252
     75  CG1       27.4540    5.7850   -5.3740 C.3    62  ILE62       0.0019
     76  CG2       26.6790    5.1160   -7.6950 C.3    62  ILE62       0.0019
     77  CD1       26.2180    6.0110   -4.5550 C.3    62  ILE62       0.0001
@<TRIPOS>BOND
     1    24    22   ar
     2     1     2    1
     3    22    23   ar
     4    22    21    1
     5    18    17    1
     6    18    21    1
     7    18    19    1
     8     2     5    1
     9     2     3    1
    10    19    20    2
    11     5     6    1
    12     3     4    2
    13     3     9   am
    14     9    10    1
    15     6     7    1
    16    11    10    1
    17    11    12    2
    18    25    26    1
    19    29    26    1
    20    10    13    1
    21     7     8    1
    22    26    27    1
    23    35    34    1
    24    13    14    1
    25    30    27   am
    26    30    31    1
    27    14    15    1
    28    14    16    1
    29    27    28    2
    30    34    31    1
    31    34    36    1
    32    31    32    1
    33    73    72    2
    34    44    43   ar
    35    72    71    1
    36    32    33    2
    37    45    43   ar
    38    43    42    1
    39    76    74    1
    40    65    64    2
    41    71    74    1
    42    71    70    1
    43    41    42    1
    44    41    38    1
    45    74    75    1
    46    64    63    1
    47    37    38    1
    48    66    63    1
    49    66    67    1
    50    68    67    1
    51    38    39    1
    52    69    67    1
    53    53    51    1
    54    63    62    1
    55    75    77    1
    56    51    50    1
    57    46    39   am
    58    46    47    1
    59    39    40    2
    60    57    56    2
    61    62    56   am
    62    50    47    1
    63    50    52    1
    64    56    55    1
    65    47    48    1
    66    48    49    2
    67    55    54    1
    68    55    58    1
    69    60    58    1
    70    58    59    1
    71    59    61    1
