@<TRIPOS>MOLECULE
tmp/4ddkA00.pdb
 101 97 0 0 0
SMALL
GASTEIGER

@<TRIPOS>ATOM
      1  N        -14.8740    6.8230    2.1740 N.3    42  HIS42      -0.1241
      2  CA       -14.9630    6.9950    3.6310 C.3    42  HIS42       0.1621
      3  C        -13.6770    6.4820    4.2970 C.2    42  HIS42       0.2264
      4  O        -12.7060    6.1070    3.6400 O.2    42  HIS42      -0.2867
      5  CB       -16.1630    6.2120    4.1330 C.3    42  HIS42       0.0745
      6  CG       -16.1710    4.7900    3.6670 C.ar   42  HIS42       0.0817
      7  ND1      -15.1810    3.8980    4.0050 N.ar   42  HIS42      -0.2268
      8  CD2      -16.9990    4.1300    2.8310 C.ar   42  HIS42       0.1154
      9  CE1      -15.4120    2.7340    3.4240 C.ar   42  HIS42       0.1986
     10  NE2      -16.5200    2.8430    2.7180 N.ar   42  HIS42      -0.2212
     11  N        -12.7820    3.6680    5.6980 N.3    44  GLY44      -0.1210
     12  CA       -12.3050    2.3540    5.2540 C.3    44  GLY44       0.1956
     13  C        -11.4570    2.4120    3.9790 C.2    44  GLY44       0.2611
     14  O        -10.4950    1.6470    3.8280 O.2    44  GLY44      -0.2717
     15  N        -11.8200    3.3050    3.0560 N.am   45  HIS45      -0.1975
     16  CA       -10.9830    3.5590    1.8750 C.3    45  HIS45       0.1656
     17  C         -9.6400    4.1240    2.3050 C.2    45  HIS45       0.2291
     18  O         -8.5910    3.7260    1.7870 O.2    45  HIS45      -0.2864
     19  CB       -11.6740    4.4860    0.8550 C.3    45  HIS45       0.0771
     20  CG       -12.9250    3.9150    0.2620 C.ar   45  HIS45       0.0820
     21  ND1      -14.1750    4.4090    0.5620 N.ar   45  HIS45      -0.2267
     22  CD2      -13.1250    2.8830   -0.5930 C.ar   45  HIS45       0.1154
     23  CE1      -15.0860    3.7290   -0.1000 C.ar   45  HIS45       0.1986
     24  NE2      -14.4770    2.7880   -0.8010 N.ar   45  HIS45      -0.2212
     25  N         -7.2730    1.4510    3.2800 N.3    48  LEU48      -0.1245
     26  CA        -6.6750    0.9080    2.0570 C.3    48  LEU48       0.1561
     27  C         -5.5150    1.7930    1.5890 C.2    48  LEU48       0.2260
     28  O         -4.4600    1.3100    1.2850 O.2    48  LEU48      -0.2867
     29  CB        -7.7320    0.8300    0.9230 C.3    48  LEU48       0.0270
     30  CG        -8.9220   -0.0910    1.1190 C.3    48  LEU48       0.0019
     31  CD1       -9.8930    0.0950   -0.0420 C.3    48  LEU48       0.0001
     32  CD2       -8.4480   -1.5460    1.2180 C.3    48  LEU48       0.0001
     33  N        -10.8140   -4.1890    0.2870 N.3   156  GLY156     -0.1225
     34  CA       -11.3650   -4.4170    1.6390 C.3   156  GLY156      0.1811
     35  C        -11.9710   -5.8230    1.7750 C.2   156  GLY156      0.2280
     36  O        -12.4640   -6.3790    0.8040 O.2   156  GLY156     -0.2866
     37  N        -14.5440   -6.2160    3.4220 N.3   158  LYS158     -0.1231
     38  CA       -15.9670   -5.8850    3.4850 C.3   158  LYS158      0.1693
     39  C        -16.8180   -6.5710    2.3880 C.2   158  LYS158      0.2592
     40  O        -17.8200   -7.2150    2.6480 O.2   158  LYS158     -0.2718
     41  CB       -16.0880   -4.3670    3.3310 C.3   158  LYS158      0.0285
     42  CG       -17.1110   -3.7110    4.1790 C.3   158  LYS158      0.0035
     43  CD       -18.4440   -3.9310    3.6140 C.3   158  LYS158      0.0206
     44  CE       -19.3730   -2.8740    4.0830 C.3   158  LYS158      0.1093
     45  NZ       -20.7110   -3.2620    3.5880 N.3   158  LYS158     -0.1314
     46  N        -16.4250   -6.3470    1.1460 N.am  159  ASP159     -0.1974
     47  CA       -16.9980   -6.9930    0.0080 C.3   159  ASP159      0.1709
     48  C        -16.1270   -8.2280   -0.1920 C.2   159  ASP159      0.2293
     49  O        -15.2730   -8.3070   -1.0790 O.2   159  ASP159     -0.2864
     50  CB       -16.9870   -6.0450   -1.1810 C.3   159  ASP159      0.1436
     51  CG       -18.0280   -4.9420   -1.0400 C.2   159  ASP159      0.3671
     52  OD1      -19.1710   -5.2390   -0.7060 O.co2 159  ASP159     -0.2456
     53  OD2      -17.7030   -3.7820   -1.2690 O.co2 159  ASP159     -0.2456
     54  N         -7.5950   -6.0650    3.0980 N.3   182  VAL182     -0.1231
     55  CA        -7.5020   -5.1870    4.2700 C.3   182  VAL182      0.1678
     56  C         -8.7560   -5.3240    5.1590 C.2   182  VAL182      0.2434
     57  O         -9.8980   -5.2180    4.6250 O.2   182  VAL182     -0.2733
     58  CB        -7.3260   -3.6920    3.8290 C.3   182  VAL182      0.0265
     59  CG1       -7.2380   -2.7230    5.0730 C.3   182  VAL182      0.0020
     60  CG2       -6.0910   -3.5440    2.9400 C.3   182  VAL182      0.0020
     61  N         -8.5660   -5.6410    6.4800 N.am  183  PRO183     -0.2718
     62  CA        -9.6570   -5.7880    7.4330 C.3   183  PRO183      0.1535
     63  C        -10.6030   -4.5930    7.4030 C.2   183  PRO183      0.2599
     64  O        -10.1750   -3.4530    7.3200 O.2   183  PRO183     -0.2715
     65  CB        -8.9350   -5.8870    8.7980 C.3   183  PRO183      0.0310
     66  CG        -7.5880   -6.4440    8.4840 C.3   183  PRO183      0.0237
     67  CD        -7.2460   -5.9330    7.1050 C.3   183  PRO183      0.0939
     68  N        -11.8910   -4.9030    7.4650 N.am  184  THR184     -0.1937
     69  CA       -12.9750   -3.9570    7.4060 C.3   184  THR184      0.2028
     70  C        -12.8990   -2.9490    8.5350 C.2   184  THR184      0.2642
     71  O        -12.7530   -3.3480    9.7130 O.2   184  THR184     -0.2714
     72  CB       -14.2720   -4.7620    7.5270 C.3   184  THR184      0.1808
     73  OG1      -14.2910   -5.7370    6.4720 O.3   184  THR184     -0.2208
     74  CG2      -15.4950   -3.8780    7.5050 C.3   184  THR184      0.0379
     75  N        -13.0130   -1.6700    8.1870 N.am  185  VAL185     -0.1977
     76  CA       -13.1100   -0.5730    9.1950 C.3   185  VAL185      0.1596
     77  C        -14.5430   -0.4610    9.6290 C.2   185  VAL185      0.2287
     78  O        -15.4700   -0.5750    8.8030 O.2   185  VAL185     -0.2864
     79  CB       -12.6570    0.7990    8.6320 C.3   185  VAL185      0.0276
     80  CG1      -12.6320    1.8790    9.7430 C.3   185  VAL185      0.0022
     81  CG2      -11.3060    0.6530    8.0130 C.3   185  VAL185      0.0022
     82  N        -18.2660    0.0690    7.8050 N.3   193  MET193     -0.1230
     83  CA       -18.3080    1.2350    6.9490 C.3   193  MET193      0.1702
     84  C        -18.6590    0.8920    5.4960 C.2   193  MET193      0.2593
     85  O        -18.2630   -0.1700    4.9640 O.2   193  MET193     -0.2718
     86  CB       -17.0070    1.9960    7.0350 C.3   193  MET193      0.0401
     87  CG       -17.0340    2.9260    8.2580 C.3   193  MET193      0.0596
     88  SD       -15.5080    3.7920    8.3040 S.3   193  MET193     -0.1393
     89  CE       -15.6500    4.5280    9.9270 C.3   193  MET193      0.0692
     90  N        -19.4210    1.7880    4.8790 N.am  194  SER194     -0.1938
     91  CA       -19.8840    1.6110    3.5040 C.3   194  SER194      0.2055
     92  C        -20.3610    2.9410    2.9840 C.2   194  SER194      0.2643
     93  O        -20.9030    3.7340    3.7500 O.2   194  SER194     -0.2714
     94  CB       -21.0840    0.6610    3.4970 C.3   194  SER194      0.2130
     95  OG       -21.7190    0.6370    2.2400 O.3   194  SER194     -0.2179
     96  N        -20.2210    3.1450    1.6640 N.am  195  SER195     -0.1949
     97  CA       -20.8160    4.3110    0.9940 C.3   195  SER195      0.1924
     98  C        -22.3760    4.2150    1.0230 C.2   195  SER195      0.2314
     99  O        -23.1080    5.1950    0.7390 O.2   195  SER195     -0.2863
    100  CB       -20.2800    4.4120   -0.4510 C.3   195  SER195      0.2116
    101  OG       -18.8410    4.5650   -0.4690 O.3   195  SER195     -0.2180
@<TRIPOS>BOND
     1    53    51   ar
     2    50    51    1
     3    50    47    1
     4    49    48    2
     5    51    52   ar
     6    24    22   ar
     7    24    23   ar
     8    22    20   ar
     9   101   100    1
    10   100    97    1
    11    48    47    1
    12    23    21   ar
    13    31    30    1
    14    47    46    1
    15    20    21   ar
    16    20    19    1
    17    33    34    1
    18    99    98    2
    19    36    35    2
    20    19    16    1
    21    29    30    1
    22    29    26    1
    23    97    98    1
    24    97    96    1
    25    30    32    1
    26    46    39   am
    27    28    27    2
    28    27    26    1
    29    34    35    1
    30    96    92   am
    31    18    17    2
    32    16    17    1
    33    16    15    1
    34    26    25    1
    35     1     2    1
    36    95    94    1
    37    39    40    2
    38    39    38    1
    39    10     8   ar
    40    10     9   ar
    41     8     6   ar
    42    60    58    1
    43    92    91    1
    44    92    93    2
    45    15    13   am
    46    54    55    1
    47    41    38    1
    48    41    42    1
    49    37    38    1
    50     9     7   ar
    51    94    91    1
    52    91    90    1
    53    45    44    1
    54    43    44    1
    55    43    42    1
    56     2     5    1
    57     2     3    1
    58     4     3    2
    59     6     7   ar
    60     6     5    1
    61    14    13    2
    62    58    55    1
    63    58    59    1
    64    13    12    1
    65    55    56    1
    66    57    56    2
    67    90    84   am
    68    85    84    2
    69    56    61   am
    70    12    11    1
    71    84    83    1
    72    73    72    1
    73    61    67    1
    74    61    62    1
    75    83    86    1
    76    83    82    1
    77    86    87    1
    78    67    66    1
    79    64    63    2
    80    63    62    1
    81    63    68   am
    82    69    68    1
    83    69    72    1
    84    69    70    1
    85    62    65    1
    86    74    72    1
    87    81    79    1
    88    75    70   am
    89    75    76    1
    90    87    88    1
    91    88    89    1
    92    66    65    1
    93    70    71    2
    94    79    76    1
    95    79    80    1
    96    78    77    2
    97    76    77    1
