@<TRIPOS>MOLECULE
tmp/4ddlA00.pdb
 192 183 0 0 0
SMALL
GASTEIGER

@<TRIPOS>ATOM
      1  N         15.6730   95.6620   30.2610 N.3    73  TYR73      -0.1227
      2  CA        14.5860   94.6730   30.2170 C.3    73  TYR73       0.1736
      3  C         13.1370   95.0710   29.9130 C.2    73  TYR73       0.2595
      4  O         12.4660   94.3770   29.1580 O.2    73  TYR73      -0.2718
      5  CB        14.6230   93.9440   31.5680 C.3    73  TYR73       0.0548
      6  CG        13.5470   92.8830   31.7110 C.ar   73  TYR73      -0.0200
      7  CD1       13.6100   91.6920   30.9840 C.ar   73  TYR73      -0.0009
      8  CD2       12.4610   93.0770   32.5630 C.ar   73  TYR73      -0.0009
      9  CE1       12.6210   90.7230   31.1080 C.ar   73  TYR73       0.0417
     10  CE2       11.4720   92.1160   32.6970 C.ar   73  TYR73       0.0417
     11  CZ        11.5540   90.9430   31.9730 C.ar   73  TYR73       0.1957
     12  OH        10.5660   89.9890   32.1120 O.3    73  TYR73      -0.2866
     13  N         12.6550   96.1590   30.5130 N.am   74  HIS74      -0.1975
     14  CA        11.2720   96.6070   30.2950 C.3    74  HIS74       0.1656
     15  C         11.1220   97.3750   29.0080 C.2    74  HIS74       0.2291
     16  O         10.6930   98.5310   28.9970 O.2    74  HIS74      -0.2864
     17  CB        10.7710   97.4190   31.4850 C.3    74  HIS74       0.0771
     18  CG        10.4890   96.5870   32.7110 C.ar   74  HIS74       0.0820
     19  ND1       11.3790   96.4440   33.7090 N.ar   74  HIS74      -0.2267
     20  CD2        9.3720   95.8410   33.0700 C.ar   74  HIS74       0.1154
     21  CE1       10.8610   95.6520   34.6650 C.ar   74  HIS74       0.1986
     22  NE2        9.6290   95.2840   34.2740 N.ar   74  HIS74      -0.2212
     23  N         11.0760  100.3520   39.7840 N.3   120  SER120     -0.1217
     24  CA         9.8750   99.8270   40.4350 C.3   120  SER120      0.1889
     25  C          9.0270  100.9400   41.0540 C.2   120  SER120      0.2288
     26  O          9.4950  102.0720   41.2110 O.2   120  SER120     -0.2866
     27  CB        10.2680   98.8270   41.5280 C.3   120  SER120      0.2089
     28  OG        10.8530   99.5000   42.6320 O.3   120  SER120     -0.2183
     29  N          8.2510  101.1930   44.1200 N.3   122  SER122     -0.1217
     30  CA         8.8990  101.5500   45.3760 C.3   122  SER122      0.1889
     31  C          9.8930  102.6980   45.1990 C.2   122  SER122      0.2288
     32  O          9.9020  103.6410   45.9950 O.2   122  SER122     -0.2866
     33  CB         9.5970  100.3300   45.9810 C.3   122  SER122      0.2089
     34  OG        10.1860  100.6540   47.2270 O.3   122  SER122     -0.2183
     35  N          2.9770   93.1900   40.4650 N.3   184  LEU184     -0.1245
     36  CA         3.2920   91.9580   41.1920 C.3   184  LEU184      0.1561
     37  C          2.8910   91.9930   42.6740 C.2   184  LEU184      0.2260
     38  O          2.7150   90.9450   43.2960 O.2   184  LEU184     -0.2867
     39  CB         4.7750   91.5930   41.0430 C.3   184  LEU184      0.0270
     40  CG         5.1650   90.1450   41.3840 C.3   184  LEU184      0.0019
     41  CD1        4.5860   89.1540   40.3790 C.3   184  LEU184      0.0001
     42  CD2        6.6780   89.9930   41.4690 C.3   184  LEU184      0.0001
     43  N          0.0730   88.3170   44.8530 N.3   188  PHE188     -0.1241
     44  CA         0.0940   87.4150   46.0080 C.3   188  PHE188      0.1605
     45  C         -1.3040   87.1760   46.5850 C.2   188  PHE188      0.2264
     46  O         -1.6790   86.0340   46.8530 O.2   188  PHE188     -0.2867
     47  CB         1.0770   87.9150   47.0770 C.3   188  PHE188      0.0534
     48  CG         2.5060   87.9810   46.5990 C.ar  188  PHE188     -0.0203
     49  CD1        3.3210   86.8490   46.6330 C.ar  188  PHE188     -0.0042
     50  CD2        3.0350   89.1710   46.1010 C.ar  188  PHE188     -0.0042
     51  CE1        4.6350   86.9050   46.1840 C.ar  188  PHE188     -0.0003
     52  CE2        4.3500   89.2330   45.6500 C.ar  188  PHE188     -0.0003
     53  CZ         5.1500   88.0980   45.6910 C.ar  188  PHE188     -0.0000
     54  N          3.7160   87.8180   32.1610 N.3   223  ASP223     -0.1225
     55  CA         4.6940   88.8350   32.5500 C.3   223  ASP223      0.1805
     56  C          6.0160   88.2150   33.0120 C.2   223  ASP223      0.2597
     57  O          7.0910   88.7490   32.7330 O.2   223  ASP223     -0.2718
     58  CB         4.1220   89.7290   33.6570 C.3   223  ASP223      0.1424
     59  CG         4.8570   91.0570   33.7870 C.2   223  ASP223      0.3668
     60  OD1        5.5810   91.4500   32.8510 O.co2 223  ASP223     -0.2456
     61  OD2        4.7030   91.7190   34.8320 O.co2 223  ASP223     -0.2456
     62  N          5.9220   87.0830   33.6910 N.am  224  LEU224     -0.1979
     63  CA         7.0520   86.3930   34.2720 C.3   224  LEU224      0.1596
     64  C          7.6380   85.3110   33.3870 C.2   224  LEU224      0.2287
     65  O          8.5070   84.6200   33.7830 O.2   224  LEU224     -0.2864
     66  CB         6.6860   85.8010   35.6260 C.3   224  LEU224      0.0297
     67  CG         6.2270   86.7150   36.7430 C.3   224  LEU224      0.0022
     68  CD1        5.8620   85.9500   37.9800 C.3   224  LEU224      0.0001
     69  CD2        7.1800   87.8400   37.0300 C.3   224  LEU224      0.0001
     70  N          9.8170   84.6910   31.3390 N.3   226  SER226     -0.1202
     71  CA        11.2540   84.4420   31.1520 C.3   226  SER226      0.2020
     72  C         11.6990   83.1510   31.8530 C.2   226  SER226      0.2618
     73  O         12.5990   82.4570   31.3790 O.2   226  SER226     -0.2717
     74  CB        12.0970   85.6240   31.6430 C.3   226  SER226      0.2103
     75  OG        12.4160   85.4970   33.0210 O.3   226  SER226     -0.2182
     76  N         11.0470   82.8330   32.9700 N.am  227  VAL227     -0.1979
     77  CA        11.3520   81.6220   33.7390 C.3   227  VAL227      0.1595
     78  C         10.7300   80.3520   33.1390 C.2   227  VAL227      0.2287
     79  O         10.9230   79.2470   33.6640 O.2   227  VAL227     -0.2864
     80  CB        10.9490   81.7640   35.2290 C.3   227  VAL227      0.0276
     81  CG1       11.5760   83.0100   35.8370 C.3   227  VAL227      0.0022
     82  CG2        9.4320   81.7830   35.3960 C.3   227  VAL227      0.0022
     83  N         16.3950   81.6460   29.4130 N.3   234  THR234     -0.1218
     84  CA        16.1030   82.0230   30.7980 C.3   234  THR234      0.1862
     85  C         17.3090   82.6700   31.4930 C.2   234  THR234      0.2287
     86  O         17.1640   83.6970   32.1630 O.2   234  THR234     -0.2866
     87  CB        15.5850   80.8090   31.6060 C.3   234  THR234      0.1770
     88  OG1       14.3370   80.3620   31.0530 O.3   234  THR234     -0.2211
     89  CG2       15.3810   81.1710   33.0760 C.3   234  THR234      0.0375
     90  N         17.7410   86.8040   32.4520 N.3   238  ALA238     -0.1245
     91  CA        18.0640   87.1630   33.8410 C.3   238  ALA238      0.1562
     92  C         19.1360   88.2590   33.9340 C.2   238  ALA238      0.2260
     93  O         19.0660   89.1230   34.8160 O.2   238  ALA238     -0.2867
     94  CB        18.4880   85.9320   34.6320 C.3   238  ALA238      0.0290
     95  N         17.2450   91.5510   33.3860 N.3   241  ILE241     -0.1231
     96  CA        16.4050   91.8400   34.5500 C.3   241  ILE241      0.1692
     97  C         17.2320   92.4410   35.6930 C.2   241  ILE241      0.2592
     98  O         16.8430   93.4520   36.2830 O.2   241  ILE241     -0.2718
     99  CB        15.6500   90.5760   35.0370 C.3   241  ILE241      0.0266
    100  CG1       14.7330   90.0390   33.9310 C.3   241  ILE241      0.0019
    101  CG2       14.8390   90.8750   36.2920 C.3   241  ILE241      0.0020
    102  CD1       14.1330   88.6730   34.2000 C.3   241  ILE241      0.0001
    103  N         18.3700   91.8150   35.9890 N.am  242  TYR242     -0.1976
    104  CA        19.2440   92.2650   37.0710 C.3   242  TYR242      0.1639
    105  C         19.9940   93.5490   36.7440 C.2   242  TYR242      0.2290
    106  O         20.2780   94.3370   37.6450 O.2   242  TYR242     -0.2864
    107  CB        20.2080   91.1550   37.5050 C.3   242  TYR242      0.0560
    108  CG        19.5890   90.1850   38.4920 C.ar  242  TYR242     -0.0198
    109  CD1       19.6170   90.4410   39.8650 C.ar  242  TYR242     -0.0009
    110  CD2       18.9590   89.0220   38.0520 C.ar  242  TYR242     -0.0009
    111  CE1       19.0410   89.5600   40.7690 C.ar  242  TYR242      0.0417
    112  CE2       18.3860   88.1340   38.9480 C.ar  242  TYR242      0.0417
    113  CZ        18.4280   88.4050   40.3050 C.ar  242  TYR242      0.1957
    114  OH        17.8560   87.5180   41.1920 O.3   242  TYR242     -0.2866
    115  N         17.6350   96.0250   37.9920 N.3   245  PHE245     -0.1241
    116  CA        17.6270   95.9910   39.4610 C.3   245  PHE245      0.1605
    117  C         18.8340   96.7120   40.0550 C.2   245  PHE245      0.2264
    118  O         18.6960   97.4890   41.0020 O.2   245  PHE245     -0.2867
    119  CB        17.5920   94.5520   39.9920 C.3   245  PHE245      0.0534
    120  CG        16.2950   93.8280   39.7460 C.ar  245  PHE245     -0.0203
    121  CD1       15.1110   94.5220   39.4900 C.ar  245  PHE245     -0.0042
    122  CD2       16.2520   92.4380   39.8090 C.ar  245  PHE245     -0.0042
    123  CE1       13.9220   93.8420   39.2710 C.ar  245  PHE245     -0.0003
    124  CE2       15.0640   91.7530   39.6030 C.ar  245  PHE245     -0.0003
    125  CZ        13.8990   92.4540   39.3340 C.ar  245  PHE245     -0.0000
    126  N         17.5710   96.5530   48.9150 N.3   260  ILE260     -0.1245
    127  CA        17.5150   95.1150   49.1940 C.3   260  ILE260      0.1561
    128  C         18.5740   94.3850   48.3550 C.2   260  ILE260      0.2260
    129  O         18.9260   94.8590   47.2700 O.2   260  ILE260     -0.2867
    130  CB        16.1000   94.5250   48.9670 C.3   260  ILE260      0.0252
    131  CG1       15.6320   94.7240   47.5190 C.3   260  ILE260      0.0019
    132  CG2       15.1070   95.1250   49.9610 C.3   260  ILE260      0.0019
    133  CD1       14.5440   93.7640   47.0850 C.3   260  ILE260      0.0001
    134  N         18.6660   92.0150   46.3250 N.3   262  MET262     -0.1230
    135  CA        18.2540   91.7870   44.9370 C.3   262  MET262      0.1702
    136  C         18.6990   92.9200   43.9970 C.2   262  MET262      0.2592
    137  O         18.9940   92.6840   42.8220 O.2   262  MET262     -0.2718
    138  CB        16.7290   91.6160   44.8770 C.3   262  MET262      0.0401
    139  CG        16.1760   91.1340   43.5440 C.3   262  MET262      0.0596
    140  SD        14.3930   91.3750   43.3860 S.3   262  MET262     -0.1393
    141  CE        14.3180   93.1200   42.9930 C.3   262  MET262      0.0692
    142  N         18.7490   94.1410   44.5280 N.am  263  MET263     -0.1979
    143  CA        19.0790   95.3320   43.7410 C.3   263  MET263      0.1605
    144  C         20.5030   95.8360   43.9760 C.2   263  MET263      0.2287
    145  O         20.9050   96.8500   43.4050 O.2   263  MET263     -0.2864
    146  CB        18.0700   96.4490   44.0310 C.3   263  MET263      0.0413
    147  CG        16.6590   96.1440   43.5550 C.3   263  MET263      0.0598
    148  SD        15.5110   97.4980   43.8600 S.3   263  MET263     -0.1393
    149  CE        13.9950   96.7800   43.2290 C.3   263  MET263      0.0692
    150  N         19.0350   84.0010   45.4680 N.3   274  GLY274     -0.1210
    151  CA        17.9120   84.9130   45.2390 C.3   274  GLY274      0.1956
    152  C         16.9500   84.3660   44.1980 C.2   274  GLY274      0.2611
    153  O         15.7400   84.5490   44.3060 O.2   274  GLY274     -0.2717
    154  N         17.4990   83.6920   43.1890 N.am  275  GLN275     -0.1979
    155  CA        16.7000   83.0400   42.1540 C.3   275  GLN275      0.1601
    156  C         15.9280   81.8480   42.7150 C.2   275  GLN275      0.2287
    157  O         14.7430   81.6840   42.4240 O.2   275  GLN275     -0.2864
    158  CB        17.5760   82.6190   40.9680 C.3   275  GLN275      0.0394
    159  CG        17.9520   83.7750   40.0520 C.3   275  GLN275      0.0908
    160  CD        16.7420   84.3960   39.3810 C.2   275  GLN275      0.2608
    161  OE1       16.1290   83.7930   38.5010 O.2   275  GLN275     -0.2717
    162  NE2       16.3880   85.6060   39.7970 N.am  275  GLN275     -0.0878
    163  N         13.0950   83.2780   44.5920 N.3   278  PHE278     -0.1227
    164  CA        12.0750   83.8130   43.6870 C.3   278  PHE278      0.1736
    165  C         11.1950   82.7170   43.0820 C.2   278  PHE278      0.2595
    166  O          9.9770   82.8670   43.0180 O.2   278  PHE278     -0.2718
    167  CB        12.7040   84.6630   42.5720 C.3   278  PHE278      0.0547
    168  CG        11.7040   85.1850   41.5700 C.ar  278  PHE278     -0.0202
    169  CD1       10.8420   86.2320   41.9010 C.ar  278  PHE278     -0.0042
    170  CD2       11.6150   84.6260   40.2960 C.ar  278  PHE278     -0.0042
    171  CE1        9.9160   86.7080   40.9830 C.ar  278  PHE278     -0.0003
    172  CE2       10.6930   85.1010   39.3750 C.ar  278  PHE278     -0.0003
    173  CZ         9.8440   86.1440   39.7190 C.ar  278  PHE278     -0.0000
    174  N         11.8160   81.6330   42.6250 N.am  279  TYR279     -0.1976
    175  CA        11.0750   80.5060   42.0620 C.3   279  TYR279      0.1639
    176  C         10.1610   79.8690   43.1170 C.2   279  TYR279      0.2290
    177  O          8.9800   79.6290   42.8570 O.2   279  TYR279     -0.2864
    178  CB        12.0330   79.4670   41.4620 C.3   279  TYR279      0.0560
    179  CG        12.5300   79.7790   40.0550 C.ar  279  TYR279     -0.0198
    180  CD1       13.4300   80.8250   39.8200 C.ar  279  TYR279     -0.0009
    181  CD2       12.1160   79.0140   38.9620 C.ar  279  TYR279     -0.0009
    182  CE1       13.8910   81.1060   38.5410 C.ar  279  TYR279      0.0417
    183  CE2       12.5710   79.2870   37.6780 C.ar  279  TYR279      0.0417
    184  CZ        13.4580   80.3340   37.4720 C.ar  279  TYR279      0.1957
    185  OH        13.9200   80.6120   36.2020 O.3   279  TYR279     -0.2866
    186  N          7.4920   82.8530   44.3390 N.3   282  VAL282     -0.1245
    187  CA         6.6820   83.5390   43.3210 C.3   282  VAL282      0.1561
    188  C          6.3480   82.6720   42.0960 C.2   282  VAL282      0.2260
    189  O          5.1790   82.3720   41.8570 O.2   282  VAL282     -0.2867
    190  CB         7.3250   84.8780   42.8700 C.3   282  VAL282      0.0252
    191  CG1        6.4170   85.6100   41.8910 C.3   282  VAL282      0.0019
    192  CG2        7.6290   85.7720   44.0670 C.3   282  VAL282      0.0019
@<TRIPOS>BOND
     1    16    15    2
     2    15    14    1
     3     4     3    2
     4    83    84    1
     5     3     2    1
     6     3    13   am
     7     2     1    1
     8     2     5    1
     9    14    13    1
    10    14    17    1
    11    84    85    1
    12    84    87    1
    13     7     9   ar
    14     7     6   ar
    15    88    87    1
    16     9    11   ar
    17    71    70    1
    18    71    74    1
    19    71    72    1
    20    73    72    2
    21    17    18    1
    22    85    86    2
    23     5     6    1
    24    87    89    1
    25    74    75    1
    26     6     8   ar
    27    72    76   am
    28    11    12    1
    29    11    10   ar
    30    54    55    1
    31    90    91    1
    32    55    56    1
    33    55    58    1
    34     8    10   ar
    35    18    20   ar
    36    18    19   ar
    37    57    56    2
    38    60    59   ar
    39    76    77    1
    40    56    62   am
    41    20    22   ar
    42    78    79    2
    43    78    77    1
    44    95    96    1
    45    64    65    2
    46    64    63    1
    47    58    59    1
    48    62    63    1
    49    19    21   ar
    50    77    80    1
    51    59    61   ar
    52    91    92    1
    53    91    94    1
    54   100   102    1
    55   100    99    1
    56    92    93    2
    57    63    66    1
    58    22    21   ar
    59    96    99    1
    60    96    97    1
    61    99   101    1
    62    80    82    1
    63    80    81    1
    64    66    67    1
    65    97   103   am
    66    97    98    2
    67   103   104    1
    68   185   184    1
    69    67    69    1
    70    67    68    1
    71   105   104    1
    72   105   106    2
    73   104   107    1
    74   184   183   ar
    75   184   182   ar
    76   107   108    1
    77   183   181   ar
    78   115   116    1
    79   110   108   ar
    80   110   112   ar
    81   108   109   ar
    82   161   160    2
    83   182   180   ar
    84   112   113   ar
    85   181   179   ar
    86   123   125   ar
    87   123   121   ar
    88   125   124   ar
    89   172   173   ar
    90   172   170   ar
    91   160   162   am
    92   160   159    1
    93   116   119    1
    94   116   117    1
    95   121   120   ar
    96   124   122   ar
    97   173   171   ar
    98   120   122   ar
    99   120   119    1
   100    23    24    1
   101   180   179   ar
   102   109   111   ar
   103   159   158    1
   104   117   118    2
   105   179   178    1
   106   170   168   ar
   107   113   111   ar
   108   113   114    1
   109    41    40    1
   110    24    25    1
   111    24    27    1
   112    35    36    1
   113   158   155    1
   114   171   169   ar
   115    39    36    1
   116    39    40    1
   117    25    26    2
   118    36    37    1
   119    40    42    1
   120   178   175    1
   121    27    28    1
   122   168   169   ar
   123   168   167    1
   124   189   188    2
   125   191   190    1
   126   175   174    1
   127   175   176    1
   128   188   187    1
   129   155   156    1
   130   155   154    1
   131   157   156    2
   132   167   164    1
   133   174   165   am
   134    37    38    2
   135   137   136    2
   136   177   176    2
   137   190   187    1
   138   190   192    1
   139   141   140    1
   140   166   165    2
   141   165   164    1
   142   154   152   am
   143   149   148    1
   144   187   186    1
   145   140   139    1
   146   145   144    2
   147   139   138    1
   148   147   148    1
   149   147   146    1
   150   164   163    1
   151   143   144    1
   152   143   146    1
   153   143   142    1
   154   136   142   am
   155   136   135    1
   156    29    30    1
   157   152   153    2
   158   152   151    1
   159    43    44    1
   160   138   135    1
   161   135   134    1
   162    31    30    1
   163    31    32    2
   164   151   150    1
   165    30    33    1
   166    52    53   ar
   167    52    50   ar
   168    53    51   ar
   169    33    34    1
   170    44    45    1
   171    44    47    1
   172    50    48   ar
   173    51    49   ar
   174    45    46    2
   175    48    49   ar
   176    48    47    1
   177   133   131    1
   178   129   128    2
   179   131   130    1
   180   128   127    1
   181   126   127    1
   182   130   127    1
   183   130   132    1
