@<TRIPOS>MOLECULE
tmp/4ddmA00.pdb
 147 140 0 0 0
SMALL
GASTEIGER

@<TRIPOS>ATOM
      1  N          8.3230   11.3360    5.9900 N.3    36  PRO36      -0.2102
      2  CA         9.4880   11.6450    6.8940 C.3    36  PRO36       0.1504
      3  C         10.6640   12.0420    6.0750 C.2    36  PRO36       0.2576
      4  O         11.0710   11.3420    5.1050 O.2    36  PRO36      -0.2718
      5  CB         9.7230   10.3280    7.6150 C.3    36  PRO36       0.0282
      6  CG         8.3730    9.5700    7.4380 C.3    36  PRO36       0.0208
      7  CD         8.0210    9.8890    6.0230 C.3    36  PRO36       0.0893
      8  N         11.2640   13.1750    6.4240 N.am   37  THR37      -0.1939
      9  CA        12.4800   13.5720    5.6880 C.3    37  THR37       0.2028
     10  C         13.6170   14.0730    6.6560 C.2    37  THR37       0.2642
     11  O         13.3780   14.3850    7.8190 O.2    37  THR37      -0.2714
     12  CB        12.2400   14.7300    4.6290 C.3    37  THR37       0.1808
     13  OG1       12.2370   15.9900    5.3140 O.3    37  THR37      -0.2208
     14  CG2       10.8410   14.5940    3.9410 C.3    37  THR37       0.0379
     15  N         14.8010   14.2200    6.0910 N.am   38  MET38      -0.1962
     16  CA        15.8980   14.8850    6.8120 C.3    38  MET38       0.1736
     17  C         16.1310   16.2740    6.2730 C.2    38  MET38       0.2617
     18  O         17.2590   16.8040    6.4020 O.2    38  MET38      -0.2715
     19  CB        17.1790   14.1010    6.5990 C.3    38  MET38       0.0427
     20  CG        17.0850   12.8360    7.3030 C.3    38  MET38       0.0599
     21  SD        18.6500   11.8660    7.2500 S.3    38  MET38      -0.1393
     22  CE        18.3170   11.8710    8.9300 C.3    38  MET38       0.0692
     23  N         15.1290   16.8370    5.6300 N.am   39  GLY39      -0.1955
     24  CA        15.2590   18.1610    5.0010 C.3    39  GLY39       0.1869
     25  C         16.1910   18.1200    3.7660 C.2    39  GLY39       0.2309
     26  O         16.4800   17.0420    3.2310 O.2    39  GLY39      -0.2863
     27  N         14.4480   18.0210   -2.3070 N.3    42  HIS42      -0.1241
     28  CA        14.6880   18.0850   -3.7550 C.3    42  HIS42       0.1621
     29  C         13.5000   17.4280   -4.4190 C.2    42  HIS42       0.2264
     30  O         12.5770   16.9830   -3.7490 O.2    42  HIS42      -0.2867
     31  CB        15.9810   17.3780   -4.1460 C.3    42  HIS42       0.0745
     32  CG        16.0860   15.9580   -3.6410 C.ar   42  HIS42       0.0817
     33  ND1       15.2950   14.9260   -4.1080 N.ar   42  HIS42      -0.2268
     34  CD2       16.8900   15.4120   -2.7070 C.ar   42  HIS42       0.1154
     35  CE1       15.5980   13.8030   -3.4710 C.ar   42  HIS42       0.1986
     36  NE2       16.5720   14.0740   -2.6170 N.ar   42  HIS42      -0.2212
     37  N         11.8640   14.1760   -3.0030 N.3    45  HIS45      -0.1241
     38  CA        10.9340   14.4660   -1.8940 C.3    45  HIS45       0.1621
     39  C          9.5930   15.0260   -2.3420 C.2    45  HIS45       0.2264
     40  O          8.5720   14.5950   -1.8030 O.2    45  HIS45      -0.2867
     41  CB        11.5830   15.4190   -0.8470 C.3    45  HIS45       0.0745
     42  CG        12.8460   14.8980   -0.2590 C.ar   45  HIS45       0.0817
     43  ND1       14.0770   15.4310   -0.5790 N.ar   45  HIS45      -0.2268
     44  CD2       13.0730   13.9870    0.7110 C.ar   45  HIS45       0.1154
     45  CE1       15.0150   14.8130    0.1100 C.ar   45  HIS45       0.1986
     46  NE2       14.4360   13.9180    0.8890 N.ar   45  HIS45      -0.2212
     47  N          7.2240   12.4230   -3.2910 N.3    48  LEU48      -0.1245
     48  CA         6.5430   11.8090   -2.1500 C.3    48  LEU48       0.1561
     49  C          5.3680   12.7060   -1.7420 C.2    48  LEU48       0.2260
     50  O          4.2770   12.2010   -1.4850 O.2    48  LEU48      -0.2867
     51  CB         7.4780   11.6350   -0.9720 C.3    48  LEU48       0.0270
     52  CG         8.8180   10.9930   -1.2560 C.3    48  LEU48       0.0019
     53  CD1        9.5460   10.7880    0.0620 C.3    48  LEU48       0.0001
     54  CD2        8.5310    9.6280   -1.9060 C.3    48  LEU48       0.0001
     55  N         13.8340   16.3820   10.2100 N.3    65  PHE65      -0.1241
     56  CA        14.5700   16.0680   11.4570 C.3    65  PHE65       0.1605
     57  C         15.7910   15.3090   11.0720 C.2    65  PHE65       0.2264
     58  O         15.7330   14.2740   10.4350 O.2    65  PHE65      -0.2867
     59  CB        13.7070   15.2390   12.4540 C.3    65  PHE65       0.0534
     60  CG        14.4460   14.8850   13.7170 C.ar   65  PHE65      -0.0203
     61  CD1       14.9030   15.8760   14.5650 C.ar   65  PHE65      -0.0042
     62  CD2       14.6310   13.5380   14.0800 C.ar   65  PHE65      -0.0042
     63  CE1       15.5960   15.5680   15.7370 C.ar   65  PHE65      -0.0003
     64  CE2       15.2870   13.2060   15.3170 C.ar   65  PHE65      -0.0003
     65  CZ        15.7620   14.2500   16.1290 C.ar   65  PHE65      -0.0000
     66  N         20.8880    7.7260   13.7860 N.3    70  GLN70      -0.1245
     67  CA        21.2610    6.9130   12.6140 C.3    70  GLN70       0.1566
     68  C         22.6390    7.3220   12.0310 C.2    70  GLN70       0.2260
     69  O         23.1320    6.7070   11.0410 O.2    70  GLN70      -0.2867
     70  CB        20.2000    7.0190   11.5330 C.3    70  GLN70       0.0367
     71  CG        20.0500    8.4380   10.9340 C.3    70  GLN70       0.0905
     72  CD        18.8280    8.5570   10.0420 C.2    70  GLN70       0.2608
     73  OE1       18.9700    8.6480    8.8060 O.2    70  GLN70      -0.2717
     74  NE2       17.6080    8.5160   10.6410 N.am   70  GLN70      -0.0878
     75  N         25.9280   16.8110    7.3150 N.3    80  TYR80      -0.1241
     76  CA        24.6510   16.6470    6.5880 C.3    80  TYR80       0.1605
     77  C         24.0690   18.0030    6.1640 C.2    80  TYR80       0.2264
     78  O         24.1110   18.9290    6.9730 O.2    80  TYR80      -0.2867
     79  CB        23.6160   15.8540    7.4240 C.3    80  TYR80       0.0534
     80  CG        22.5940   15.2670    6.4990 C.ar   80  TYR80      -0.0201
     81  CD1       22.8790   14.0840    5.7870 C.ar   80  TYR80      -0.0009
     82  CD2       21.3730   15.9150    6.2620 C.ar   80  TYR80      -0.0009
     83  CE1       21.9480   13.5520    4.8510 C.ar   80  TYR80       0.0417
     84  CE2       20.4430   15.3910    5.3550 C.ar   80  TYR80       0.0417
     85  CZ        20.7450   14.2040    4.6560 C.ar   80  TYR80       0.1957
     86  OH        19.8480   13.6890    3.7550 O.3    80  TYR80      -0.2866
     87  N         17.3850    4.6780   12.4490 N.3   137  VAL137     -0.1245
     88  CA        16.3400    4.9980   11.5060 C.3   137  VAL137      0.1561
     89  C         15.0330    4.3820   12.0120 C.2   137  VAL137      0.2260
     90  O         13.9990    5.0710   12.0430 O.2   137  VAL137     -0.2867
     91  CB        16.6130    4.3930   10.0830 C.3   137  VAL137      0.0252
     92  CG1       15.3800    4.5540    9.1940 C.3   137  VAL137      0.0019
     93  CG2       17.9360    4.9800    9.3910 C.3   137  VAL137      0.0019
     94  N         13.6220    6.2740   15.1210 N.3   140  VAL140     -0.1231
     95  CA        12.9890    7.5440   14.8130 C.3   140  VAL140      0.1692
     96  C         11.6930    7.3760   14.0040 C.2   140  VAL140      0.2591
     97  O         10.7060    8.0650   14.2230 O.2   140  VAL140     -0.2718
     98  CB        13.9860    8.5220   14.2220 C.3   140  VAL140      0.0266
     99  CG1       14.2250    8.1950   12.7470 C.3   140  VAL140      0.0020
    100  CG2       13.4580   10.0310   14.3770 C.3   140  VAL140      0.0020
    101  N         11.6590    6.4450   13.0680 N.am  141  VAL141     -0.1980
    102  CA        10.4380    6.3120   12.3000 C.3   141  VAL141      0.1595
    103  C          9.2840    5.7700   13.1860 C.2   141  VAL141      0.2287
    104  O          8.1220    6.2270   13.0620 O.2   141  VAL141     -0.2864
    105  CB        10.6920    5.3370   11.1240 C.3   141  VAL141      0.0276
    106  CG1        9.2790    4.8700   10.4680 C.3   141  VAL141      0.0022
    107  CG2       11.5630    6.0370   10.0710 C.3   141  VAL141      0.0022
    108  N          8.0020    8.7810   15.0980 N.3   144  LEU144     -0.1245
    109  CA         7.2900    9.7140   14.1760 C.3   144  LEU144      0.1561
    110  C          5.9050    9.1240   13.8820 C.2   144  LEU144      0.2260
    111  O          4.9460    9.9140   13.8470 O.2   144  LEU144     -0.2867
    112  CB         7.9840    9.8990   12.7890 C.3   144  LEU144      0.0270
    113  CG         9.3220   10.7090   12.9770 C.3   144  LEU144      0.0019
    114  CD1       10.0550   10.6810   11.6580 C.3   144  LEU144      0.0001
    115  CD2        9.0770   12.1890   13.4950 C.3   144  LEU144      0.0001
    116  N          7.8320    6.6660    1.4980 N.3   155  PHE155     -0.1227
    117  CA         9.3100    6.5960    1.4030 C.3   155  PHE155      0.1736
    118  C          9.7080    6.3670   -0.0460 C.2   155  PHE155      0.2596
    119  O          8.9840    5.6380   -0.7980 O.2   155  PHE155     -0.2718
    120  CB         9.7940    5.4230    2.2550 C.3   155  PHE155      0.0547
    121  CG         9.6970    5.6670    3.7400 C.ar  155  PHE155     -0.0202
    122  CD1       10.6880    6.4140    4.4120 C.ar  155  PHE155     -0.0042
    123  CD2        8.6360    5.1200    4.4780 C.ar  155  PHE155     -0.0042
    124  CE1       10.5770    6.6120    5.8040 C.ar  155  PHE155     -0.0003
    125  CE2        8.5360    5.3330    5.8260 C.ar  155  PHE155     -0.0003
    126  CZ         9.5170    6.0690    6.4910 C.ar  155  PHE155     -0.0000
    127  N         10.8670    6.9380   -0.4360 N.am  156  GLY156     -0.1957
    128  CA        11.3940    6.7670   -1.7890 C.3   156  GLY156      0.1869
    129  C         12.0280    5.3670   -1.9060 C.2   156  GLY156      0.2309
    130  O         12.5890    4.8500   -0.9690 O.2   156  GLY156     -0.2863
    131  N         16.3660    4.6410   -1.2170 N.3   159  ASP159     -0.1239
    132  CA        16.9140    3.9330   -0.0710 C.3   159  ASP159      0.1674
    133  C         16.1110    2.6380    0.1750 C.2   159  ASP159      0.2266
    134  O         15.3160    2.5660    1.0680 O.2   159  ASP159     -0.2867
    135  CB        16.8620    4.8440    1.1110 C.3   159  ASP159      0.1410
    136  CG        17.8750    6.0200    0.9390 C.2   159  ASP159      0.3668
    137  OD1       19.0810    5.7740    0.9890 O.co2 159  ASP159     -0.2456
    138  OD2       17.4150    7.1030    0.6210 O.co2 159  ASP159     -0.2456
    139  N         16.3950    0.5380    3.4350 N.3   162  GLN162     -0.1245
    140  CA        15.6310    1.2210    4.4520 C.3   162  GLN162      0.1566
    141  C         14.1100    1.0140    4.3370 C.2   162  GLN162      0.2260
    142  O         13.4660    0.7820    5.3170 O.2   162  GLN162     -0.2867
    143  CB        15.9680    2.7230    4.4110 C.3   162  GLN162      0.0367
    144  CG        15.1580    3.5620    5.4050 C.3   162  GLN162      0.0905
    145  CD        15.4350    5.0440    5.1980 C.2   162  GLN162      0.2608
    146  OE1       16.3810    5.5540    5.7720 O.2   162  GLN162     -0.2717
    147  NE2       14.6900    5.6950    4.3100 N.am  162  GLN162     -0.0878
@<TRIPOS>BOND
     1    29    28    1
     2    29    30    2
     3    31    28    1
     4    31    32    1
     5    33    32   ar
     6    33    35   ar
     7    28    27    1
     8    32    34   ar
     9    35    36   ar
    10    47    48    1
    11    37    38    1
    12    34    36   ar
    13    39    38    1
    14    39    40    2
    15    48    49    1
    16    48    51    1
    17   129   128    1
    18   129   130    2
    19    54    52    1
    20    38    41    1
    21   128   127    1
    22    49    50    2
    23    52    51    1
    24    52    53    1
    25   131   132    1
    26    41    42    1
    27   119   118    2
    28    43    42   ar
    29    43    45   ar
    30   127   118   am
    31    42    44   ar
    32   132   133    1
    33   132   135    1
    34   118   117    1
    35    45    46   ar
    36   133   134    2
    37   138   136   ar
    38    44    46   ar
    39   136   137   ar
    40   136   135    1
    41   117   116    1
    42   117   120    1
    43   120   121    1
    44    26    25    2
    45   139   140    1
    46   121   122   ar
    47   121   123   ar
    48    86    85    1
    49    25    24    1
    50    14    12    1
    51   147   145   am
    52   141   140    1
    53   141   142    2
    54   143   140    1
    55   143   144    1
    56   122   124   ar
    57   123   125   ar
    58    12    13    1
    59    12     9    1
    60    85    83   ar
    61    85    84   ar
    62    83    81   ar
    63    24    23    1
    64     4     3    2
    65   145   144    1
    66   145   146    2
    67    84    82   ar
    68    23    17   am
    69     9     8    1
    70     9    10    1
    71    81    80   ar
    72   124   126   ar
    73   125   126   ar
    74     1     7    1
    75     1     2    1
    76     7     6    1
    77     3     8   am
    78     3     2    1
    79    15    10   am
    80    15    16    1
    81    77    76    1
    82    77    78    2
    83    82    80   ar
    84    17    18    2
    85    17    16    1
    86    80    79    1
    87    76    75    1
    88    76    79    1
    89    19    16    1
    90    19    20    1
    91    10    11    2
    92     2     5    1
    93    21    20    1
    94    21    22    1
    95     6     5    1
    96    73    72    2
    97    92    91    1
    98    93    91    1
    99    72    74   am
   100    72    71    1
   101   107   105    1
   102    91    88    1
   103    55    56    1
   104    58    57    2
   105   106   105    1
   106    71    70    1
   107    69    68    2
   108    57    56    1
   109   105   102    1
   110    56    59    1
   111    88    89    1
   112    88    87    1
   113    70    67    1
   114   114   113    1
   115    89    90    2
   116    68    67    1
   117   102   101    1
   118   102   103    1
   119    59    60    1
   120    67    66    1
   121    99    98    1
   122   112   113    1
   123   112   109    1
   124   113   115    1
   125   104   103    2
   126   101    96   am
   127    60    62   ar
   128    60    61   ar
   129   111   110    2
   130   110   109    1
   131    96    97    2
   132    96    95    1
   133    62    64   ar
   134   109   108    1
   135    98   100    1
   136    98    95    1
   137    61    63   ar
   138    95    94    1
   139    64    65   ar
   140    63    65   ar
