@<TRIPOS>MOLECULE
tmp/4ddqF00.pdb
 88 83 0 0 0
SMALL
GASTEIGER

@<TRIPOS>ATOM
      1  N         16.2040  -70.0870  -55.2620 N.3    63  ASP63      -0.1225
      2  CA        17.0440  -68.9500  -54.9330 C.3    63  ASP63       0.1805
      3  C         18.4590  -69.0730  -55.4790 C.2    63  ASP63       0.2597
      4  O         19.2810  -68.1770  -55.2860 O.2    63  ASP63      -0.2718
      5  CB        17.1040  -68.7920  -53.4170 C.3    63  ASP63       0.1424
      6  CG        17.6040  -70.0380  -52.7240 C.2    63  ASP63       0.3668
      7  OD1       16.7500  -70.8260  -52.2560 O.co2  63  ASP63      -0.2456
      8  OD2       18.8430  -70.2250  -52.6470 O.co2  63  ASP63      -0.2456
      9  N         18.7350  -70.1900  -56.1490 N.am   64  PHE64      -0.1976
     10  CA        20.0600  -70.4820  -56.7060 C.3    64  PHE64       0.1639
     11  C         19.9840  -70.6890  -58.2170 C.2    64  PHE64       0.2290
     12  O         21.0090  -70.7810  -58.8920 O.2    64  PHE64      -0.2864
     13  CB        20.6710  -71.7170  -56.0420 C.3    64  PHE64       0.0560
     14  CG        19.7690  -72.9230  -56.0650 C.ar   64  PHE64      -0.0200
     15  CD1       19.8980  -73.8870  -57.0540 C.ar   64  PHE64      -0.0042
     16  CD2       18.7810  -73.0830  -55.0940 C.ar   64  PHE64      -0.0042
     17  CE1       19.0590  -74.9880  -57.0730 C.ar   64  PHE64      -0.0003
     18  CE2       17.9390  -74.1770  -55.1050 C.ar   64  PHE64      -0.0003
     19  CZ        18.0760  -75.1350  -56.0950 C.ar   64  PHE64      -0.0000
     20  N         20.7620  -76.3220  -53.7510 N.3    80  VAL80      -0.1245
     21  CA        21.9430  -76.0810  -54.5510 C.3    80  VAL80       0.1561
     22  C         22.7320  -77.3720  -54.7640 C.2    80  VAL80       0.2260
     23  O         23.2010  -77.6570  -55.8670 O.2    80  VAL80      -0.2867
     24  CB        22.8440  -75.0640  -53.8330 C.3    80  VAL80       0.0252
     25  CG1       23.8980  -74.5200  -54.7750 C.3    80  VAL80       0.0019
     26  CG2       22.0050  -73.9360  -53.2540 C.3    80  VAL80       0.0019
     27  N         23.0220  -65.7670  -59.4470 N.3   182  PRO182     -0.2102
     28  CA        22.3190  -66.0850  -58.2000 C.3   182  PRO182      0.1504
     29  C         23.2320  -66.7060  -57.1510 C.2   182  PRO182      0.2576
     30  O         22.9450  -66.6580  -55.9490 O.2   182  PRO182     -0.2718
     31  CB        21.2430  -67.0740  -58.6480 C.3   182  PRO182      0.0282
     32  CG        21.5800  -67.4410  -60.0640 C.3   182  PRO182      0.0208
     33  CD        22.3060  -66.2870  -60.6200 C.3   182  PRO182      0.0893
     34  N         24.3180  -67.3030  -57.6200 N.am  183  THR183     -0.1939
     35  CA        25.4300  -67.6650  -56.7630 C.3   183  THR183      0.2028
     36  C         26.4890  -66.5990  -57.0050 C.2   183  THR183      0.2642
     37  O         26.9310  -66.4020  -58.1340 O.2   183  THR183     -0.2714
     38  CB        26.0300  -69.0020  -57.1730 C.3   183  THR183      0.1808
     39  OG1       27.0780  -68.7780  -58.1290 O.3   183  THR183     -0.2208
     40  CG2       24.9550  -69.8890  -57.7970 C.3   183  THR183      0.0379
     41  N         26.8760  -65.8890  -55.9520 N.am  184  ALA184     -0.1977
     42  CA        27.9830  -64.9370  -56.0360 C.3   184  ALA184      0.1597
     43  C         29.1910  -65.6290  -56.6340 C.2   184  ALA184      0.2287
     44  O         29.6590  -66.6290  -56.1020 O.2   184  ALA184     -0.2864
     45  CB        28.3250  -64.3880  -54.6670 C.3   184  ALA184      0.0319
     46  N         32.2690  -69.2160  -52.2320 N.3   226  GLU226     -0.1245
     47  CA        31.2490  -69.1460  -53.2580 C.3   226  GLU226      0.1567
     48  C         31.8210  -69.8500  -54.4710 C.2   226  GLU226      0.2260
     49  O         33.0250  -69.7940  -54.7080 O.2   226  GLU226     -0.2867
     50  CB        30.9230  -67.6940  -53.5940 C.3   226  GLU226      0.0388
     51  CG        30.3020  -66.8950  -52.4530 C.3   226  GLU226      0.1160
     52  CD        31.1160  -65.6610  -52.0610 C.2   226  GLU226      0.3649
     53  OE1       32.3320  -65.7950  -51.8030 O.co2 226  GLU226     -0.2457
     54  OE2       30.5390  -64.5500  -52.0170 O.co2 226  GLU226     -0.2457
     55  N         24.4800  -73.0230  -42.5020 N.3   261  ARG261     -0.1245
     56  CA        23.4570  -72.0130  -42.7150 C.3   261  ARG261      0.1563
     57  C         24.1020  -70.6920  -43.0950 C.2   261  ARG261      0.2260
     58  O         23.6410  -70.0140  -44.0070 O.2   261  ARG261     -0.2867
     59  CB        22.6000  -71.8310  -41.4520 C.3   261  ARG261      0.0307
     60  CG        21.3510  -72.7000  -41.4000 C.3   261  ARG261      0.0489
     61  CD        20.4180  -72.3780  -42.5580 C.3   261  ARG261      0.2205
     62  NE        19.7380  -73.5700  -43.0600 N.pl3 261  ARG261     -0.0865
     63  CZ        19.1540  -73.6510  -44.2530 C.cat 261  ARG261      0.5346
     64  NH1       19.1700  -72.6070  -45.0710 N.pl3 261  ARG261      0.1354
     65  NH2       18.5620  -74.7770  -44.6320 N.pl3 261  ARG261      0.1354
     66  N         26.2340  -69.6710  -44.8850 N.3   263  GLY263     -0.1210
     67  CA        26.9000  -69.6590  -46.1730 C.3   263  GLY263      0.1956
     68  C         27.9720  -70.7320  -46.2800 C.2   263  GLY263      0.2611
     69  O         28.2910  -71.4200  -45.3050 O.2   263  GLY263     -0.2717
     70  N         28.5490  -70.8440  -47.4720 N.am  264  MET264     -0.1979
     71  CA        29.4680  -71.9290  -47.8200 C.3   264  MET264      0.1605
     72  C         30.9130  -71.7000  -47.3670 C.2   264  MET264      0.2287
     73  O         31.3960  -70.5720  -47.3330 O.2   264  MET264     -0.2864
     74  CB        29.4340  -72.1360  -49.3330 C.3   264  MET264      0.0413
     75  CG        30.3820  -73.1750  -49.8700 C.3   264  MET264      0.0598
     76  SD        30.4080  -73.0930  -51.6630 S.3   264  MET264     -0.1393
     77  CE        28.6540  -73.1380  -52.0070 C.3   264  MET264      0.0692
     78  N         25.7530  -59.7040  -56.5470 N.3   447  ARG447     -0.1245
     79  CA        26.4240  -60.8300  -55.9120 C.3   447  ARG447      0.1563
     80  C         27.7760  -61.1380  -56.5570 C.2   447  ARG447      0.2260
     81  O         28.7370  -61.4540  -55.8660 O.2   447  ARG447     -0.2867
     82  CB        25.5260  -62.0720  -55.9600 C.3   447  ARG447      0.0307
     83  CG        24.2610  -61.9490  -55.1210 C.3   447  ARG447      0.0489
     84  CD        23.2980  -63.1030  -55.3550 C.3   447  ARG447      0.2205
     85  NE        22.0980  -62.9430  -54.5360 N.pl3 447  ARG447     -0.0865
     86  CZ        21.0000  -63.6820  -54.6540 C.cat 447  ARG447      0.5346
     87  NH1       20.9310  -64.6460  -55.5640 N.pl3 447  ARG447      0.1354
     88  NH2       19.9640  -63.4540  -53.8620 N.pl3 447  ARG447      0.1354
@<TRIPOS>BOND
     1    33    32    1
     2    33    27    1
     3    32    31    1
     4    27    28    1
     5    12    11    2
     6    31    28    1
     7    11    10    1
     8    28    29    1
     9    37    36    2
    10    39    38    1
    11    40    38    1
    12    34    29   am
    13    34    35    1
    14    38    35    1
    15    29    30    2
    16    17    15   ar
    17    17    19   ar
    18    15    14   ar
    19    36    35    1
    20    36    41   am
    21    10     9    1
    22    10    13    1
    23    43    44    2
    24    43    42    1
    25    80    79    1
    26    80    81    2
    27    78    79    1
    28     9     3   am
    29    19    18   ar
    30    14    13    1
    31    14    16   ar
    32    42    41    1
    33    42    45    1
    34    82    79    1
    35    82    83    1
    36    23    22    2
    37    87    86    1
    38     3     4    2
    39     3     2    1
    40    84    83    1
    41    84    85    1
    42     1     2    1
    43    18    16   ar
    44     2     5    1
    45    25    24    1
    46    22    21    1
    47    49    48    2
    48    86    85    2
    49    86    88    1
    50    21    24    1
    51    21    20    1
    52    48    47    1
    53    24    26    1
    54    50    47    1
    55    50    51    1
    56     5     6    1
    57    47    46    1
    58     6     8   ar
    59     6     7   ar
    60    51    52    1
    61    52    54   ar
    62    52    53   ar
    63    77    76    1
    64    76    75    1
    65    75    74    1
    66    74    71    1
    67    71    70    1
    68    71    72    1
    69    70    68   am
    70    72    73    2
    71    68    67    1
    72    68    69    2
    73    67    66    1
    74    64    63    1
    75    65    63    1
    76    63    62    2
    77    58    57    2
    78    57    56    1
    79    62    61    1
    80    56    55    1
    81    56    59    1
    82    61    60    1
    83    59    60    1
