@<TRIPOS>MOLECULE
tmp/4ddrA01.pdb
 167 162 0 0 0
SMALL
GASTEIGER

@<TRIPOS>ATOM
      1  N         20.5450   11.5240   -2.6000 N.3     7  ILE7       -0.1231
      2  CA        21.5980   11.6970   -3.5810 C.3     7  ILE7        0.1692
      3  C         22.8090   10.9620   -3.0110 C.2     7  ILE7        0.2592
      4  O         23.1180   11.0800   -1.8270 O.2     7  ILE7       -0.2718
      5  CB        21.9120   13.2080   -3.8530 C.3     7  ILE7        0.0266
      6  CG1       22.9200   13.3200   -5.0030 C.3     7  ILE7        0.0019
      7  CG2       22.4290   13.8970   -2.5840 C.3     7  ILE7        0.0020
      8  CD1       22.9550   14.7050   -5.6590 C.3     7  ILE7        0.0001
      9  N         23.4700   10.1800   -3.8580 N.am    8  VAL8       -0.1966
     10  CA        24.6240    9.3910   -3.4500 C.3     8  VAL8        0.1727
     11  C         25.4870    9.0870   -4.6670 C.2     8  VAL8        0.2616
     12  O         25.0190    9.1880   -5.8010 O.2     8  VAL8       -0.2715
     13  CB        24.1640    8.0270   -2.8670 C.3     8  VAL8        0.0290
     14  CG1       23.4890    7.2100   -3.9650 C.3     8  VAL8        0.0023
     15  CG2       25.3410    7.2520   -2.2950 C.3     8  VAL8        0.0023
     16  N         26.7420    8.7260   -4.4090 N.am    9  ALA9       -0.1977
     17  CA        27.6950    8.3090   -5.4350 C.3     9  ALA9        0.1597
     18  C         28.0890    6.9180   -4.9360 C.2     9  ALA9        0.2287
     19  O         28.4670    6.7570   -3.7660 O.2     9  ALA9       -0.2864
     20  CB        28.9030    9.2190   -5.4580 C.3     9  ALA9        0.0319
     21  N         36.0850    8.3230    4.4620 N.3    21  ASP21      -0.1225
     22  CA        36.3850    9.0230    3.2260 C.3    21  ASP21       0.1805
     23  C         35.6540    8.3140    2.0880 C.2    21  ASP21       0.2597
     24  O         34.9880    7.3040    2.3130 O.2    21  ASP21      -0.2718
     25  CB        37.8950    8.9860    2.9790 C.3    21  ASP21       0.1424
     26  CG        38.4340   10.2990    2.4610 C.2    21  ASP21       0.3668
     27  OD1       38.0240   10.7330    1.3610 O.co2  21  ASP21      -0.2456
     28  OD2       39.2700   10.9020    3.1670 O.co2  21  ASP21      -0.2456
     29  N         35.7660    8.8410    0.8730 N.am   22  LEU22      -0.1979
     30  CA        35.1390    8.2050   -0.2860 C.3    22  LEU22       0.1596
     31  C         36.0700    7.0550   -0.6860 C.2    22  LEU22       0.2287
     32  O         37.2830    7.1570   -0.5200 O.2    22  LEU22      -0.2864
     33  CB        35.0060    9.2020   -1.4450 C.3    22  LEU22       0.0297
     34  CG        34.2000   10.4760   -1.1520 C.3    22  LEU22       0.0022
     35  CD1       34.0970   11.3270   -2.4160 C.3    22  LEU22       0.0001
     36  CD2       32.8070   10.1000   -0.6390 C.3    22  LEU22       0.0001
     37  N         39.3690   11.8450   -4.7330 N.3    26  PRO26      -0.2102
     38  CA        38.4010   12.9280   -4.9200 C.3    26  PRO26       0.1504
     39  C         38.1170   13.2090   -6.3930 C.2    26  PRO26       0.2576
     40  O         39.0290   13.2140   -7.2220 O.2    26  PRO26      -0.2718
     41  CB        39.0730   14.1130   -4.2290 C.3    26  PRO26       0.0282
     42  CG        39.8920   13.4550   -3.1530 C.3    26  PRO26       0.0208
     43  CD        40.4920   12.2790   -3.8840 C.3    26  PRO26       0.0893
     44  N         36.8440   13.4300   -6.7120 N.am   27  LEU27      -0.1966
     45  CA        36.4270   13.7440   -8.0720 C.3    27  LEU27       0.1728
     46  C         35.7730   15.1200   -8.0130 C.2    27  LEU27       0.2616
     47  O         34.6170   15.2520   -7.6040 O.2    27  LEU27      -0.2715
     48  CB        35.4220   12.7130   -8.5880 C.3    27  LEU27       0.0311
     49  CG        35.8810   11.2560   -8.6480 C.3    27  LEU27       0.0022
     50  CD1       34.7060   10.3700   -9.0300 C.3    27  LEU27       0.0001
     51  CD2       37.0120   11.1090   -9.6500 C.3    27  LEU27       0.0001
     52  N         36.5330   16.1380   -8.4110 N.am   28  ARG28      -0.1977
     53  CA        36.0790   17.5280   -8.4020 C.3    28  ARG28       0.1597
     54  C         34.6990   17.7610   -9.0060 C.2    28  ARG28       0.2287
     55  O         33.8340   18.3650   -8.3750 O.2    28  ARG28      -0.2864
     56  CB        37.0820   18.4190   -9.1450 C.3    28  ARG28       0.0334
     57  CG        36.6170   19.8620   -9.2790 C.3    28  ARG28       0.0492
     58  CD        37.2720   20.5710  -10.4640 C.3    28  ARG28       0.2205
     59  NE        36.6650   21.8800  -10.7210 N.pl3  28  ARG28      -0.0865
     60  CZ        36.7270   22.9150   -9.8880 C.cat  28  ARG28       0.5346
     61  NH1       37.3760   22.8070   -8.7360 N.pl3  28  ARG28       0.1354
     62  NH2       36.1310   24.0580  -10.2020 N.pl3  28  ARG28       0.1354
     63  N         32.3310   15.5540   -9.7440 N.3    30  GLU30      -0.1231
     64  CA        31.2570   14.7820   -9.1350 C.3    30  GLU30       0.1699
     65  C         30.7640   15.5910   -7.9320 C.2    30  GLU30       0.2592
     66  O         29.5620   15.7040   -7.6920 O.2    30  GLU30      -0.2718
     67  CB        31.7760   13.4100   -8.6990 C.3    30  GLU30       0.0402
     68  CG        30.7180   12.3150   -8.6560 C.3    30  GLU30       0.1161
     69  CD        29.7030   12.5050   -7.5430 C.2    30  GLU30       0.3649
     70  OE1       30.1060   12.5820   -6.3590 O.co2  30  GLU30      -0.2457
     71  OE2       28.4960   12.5660   -7.8530 O.co2  30  GLU30      -0.2457
     72  N         31.7000   16.1770   -7.1910 N.am   31  PHE31      -0.1976
     73  CA        31.3470   16.9890   -6.0330 C.3    31  PHE31       0.1639
     74  C         30.5630   18.2350   -6.4590 C.2    31  PHE31       0.2290
     75  O         29.6060   18.6350   -5.7930 O.2    31  PHE31      -0.2864
     76  CB        32.6070   17.4040   -5.2610 C.3    31  PHE31       0.0560
     77  CG        32.3200   18.2240   -4.0300 C.ar   31  PHE31      -0.0200
     78  CD1       31.4220   17.7670   -3.0660 C.ar   31  PHE31      -0.0042
     79  CD2       32.9430   19.4510   -3.8330 C.ar   31  PHE31      -0.0042
     80  CE1       31.1490   18.5150   -1.9320 C.ar   31  PHE31      -0.0003
     81  CE2       32.6780   20.2090   -2.7030 C.ar   31  PHE31      -0.0003
     82  CZ        31.7770   19.7400   -1.7450 C.ar   31  PHE31      -0.0000
     83  N         28.6860   18.4770   -9.0100 N.3    33  TYR33      -0.1227
     84  CA        27.3610   18.0120   -9.4000 C.3    33  TYR33       0.1736
     85  C         26.5210   17.9260   -8.1190 C.2    33  TYR33       0.2595
     86  O         25.4080   18.4470   -8.0520 O.2    33  TYR33      -0.2718
     87  CB        27.4590   16.6310  -10.0550 C.3    33  TYR33       0.0548
     88  CG        26.1190   15.9820  -10.3130 C.ar   33  TYR33      -0.0200
     89  CD1       25.2420   16.5000  -11.2650 C.ar   33  TYR33      -0.0009
     90  CD2       25.7180   14.8600   -9.5880 C.ar   33  TYR33      -0.0009
     91  CE1       23.9940   15.9160  -11.4880 C.ar   33  TYR33       0.0417
     92  CE2       24.4770   14.2710   -9.8020 C.ar   33  TYR33       0.0417
     93  CZ        23.6200   14.8030  -10.7520 C.ar   33  TYR33       0.1957
     94  OH        22.3900   14.2230  -10.9670 O.3    33  TYR33      -0.2866
     95  N         27.0730   17.2760   -7.0960 N.am   34  PHE34      -0.1976
     96  CA        26.3780   17.1320   -5.8250 C.3    34  PHE34       0.1639
     97  C         26.0110   18.4770   -5.2130 C.2    34  PHE34       0.2290
     98  O         24.9190   18.6340   -4.6530 O.2    34  PHE34      -0.2864
     99  CB        27.2390   16.3410   -4.8330 C.3    34  PHE34       0.0560
    100  CG        26.8020   16.4940   -3.4030 C.ar   34  PHE34      -0.0200
    101  CD1       27.3910   17.4510   -2.5800 C.ar   34  PHE34      -0.0042
    102  CD2       25.7710   15.7160   -2.8910 C.ar   34  PHE34      -0.0042
    103  CE1       26.9570   17.6320   -1.2720 C.ar   34  PHE34      -0.0003
    104  CE2       25.3260   15.8880   -1.5810 C.ar   34  PHE34      -0.0003
    105  CZ        25.9210   16.8490   -0.7680 C.ar   34  PHE34      -0.0000
    106  N         28.6080   11.2730    8.3580 N.3    56  THR56      -0.1218
    107  CA        28.6980   11.9370    7.0660 C.3    56  THR56       0.1862
    108  C         29.0860   13.4020    7.2670 C.2    56  THR56       0.2287
    109  O         29.9160   13.9390    6.5280 O.2    56  THR56      -0.2866
    110  CB        27.3570   11.8510    6.2810 C.3    56  THR56       0.1770
    111  OG1       27.1240   10.4980    5.8710 O.3    56  THR56      -0.2211
    112  CG2       27.4000   12.7350    5.0590 C.3    56  THR56       0.0375
    113  N         32.6970   13.7260    7.7750 N.3    59  SER59      -0.1202
    114  CA        33.5070   13.2430    6.6590 C.3    59  SER59       0.2020
    115  C         33.6950   14.3600    5.6220 C.2    59  SER59       0.2619
    116  O         34.6340   14.3400    4.8240 O.2    59  SER59      -0.2717
    117  CB        32.8620   11.9970    6.0210 C.3    59  SER59       0.2103
    118  OG        31.5910   12.2870    5.4630 O.3    59  SER59      -0.2182
    119  N         32.8070   15.3440    5.6520 N.am   60  ILE60      -0.1966
    120  CA        32.8810   16.4760    4.7340 C.3    60  ILE60       0.1712
    121  C         34.0200   17.3900    5.1810 C.2    60  ILE60       0.2458
    122  O         34.1370   17.7040    6.3660 O.2    60  ILE60      -0.2730
    123  CB        31.5660   17.2870    4.7580 C.3    60  ILE60       0.0289
    124  CG1       30.4090   16.4250    4.2450 C.3    60  ILE60       0.0022
    125  CG2       31.7070   18.5490    3.9160 C.3    60  ILE60       0.0023
    126  CD1       29.0280   17.0250    4.5280 C.3    60  ILE60       0.0001
    127  N         34.8820   17.8190    4.2440 N.am   61  PRO61      -0.2727
    128  CA        35.9910   18.7040    4.6170 C.3    61  PRO61       0.1402
    129  C         35.4600   19.9600    5.3120 C.2    61  PRO61       0.2269
    130  O         34.5050   20.5770    4.8400 O.2    61  PRO61      -0.2865
    131  CB        36.6430   19.0180    3.2690 C.3    61  PRO61       0.0296
    132  CG        36.4410   17.7490    2.5090 C.3    61  PRO61       0.0237
    133  CD        34.9950   17.4090    2.8320 C.3    61  PRO61       0.0939
    134  N         34.2800   22.8040    3.5330 N.3    64  ASN64      -0.1240
    135  CA        32.9960   22.7230    2.8430 C.3    64  ASN64       0.1653
    136  C         31.8410   22.5420    3.8170 C.2    64  ASN64       0.2266
    137  O         30.7420   22.1580    3.4170 O.2    64  ASN64      -0.2867
    138  CB        33.0030   21.5550    1.8460 C.3    64  ASN64       0.1155
    139  CG        34.0680   21.7040    0.7720 C.2    64  ASN64       0.2627
    140  OD1       34.0980   22.6970    0.0410 O.2    64  ASN64      -0.2716
    141  ND2       34.9430   20.7100    0.6660 N.am   64  ASN64      -0.0877
    142  N         21.5960   13.1310    2.1280 N.3   115  VAL115     -0.1245
    143  CA        22.9030   12.9480    1.5320 C.3   115  VAL115      0.1561
    144  C         23.7930   11.8930    2.1770 C.2   115  VAL115      0.2260
    145  O         24.9860   11.8680    1.9060 O.2   115  VAL115     -0.2867
    146  CB        23.6550   14.2940    1.5000 C.3   115  VAL115      0.0252
    147  CG1       22.7900   15.3430    0.8290 C.3   115  VAL115      0.0019
    148  CG2       24.0150   14.7370    2.9240 C.3   115  VAL115      0.0019
    149  N         19.6840    6.4960    4.2300 N.3   121  TYR121     -0.1241
    150  CA        19.2720    6.1170    2.8840 C.3   121  TYR121      0.1605
    151  C         18.2400    4.9990    2.9600 C.2   121  TYR121      0.2264
    152  O         17.1410    5.1080    2.4180 O.2   121  TYR121     -0.2867
    153  CB        20.4610    5.6040    2.0670 C.3   121  TYR121      0.0534
    154  CG        21.4310    6.6490    1.5900 C.ar  121  TYR121     -0.0201
    155  CD1       20.9840    7.8460    1.0200 C.ar  121  TYR121     -0.0009
    156  CD2       22.8010    6.4070    1.6260 C.ar  121  TYR121     -0.0009
    157  CE1       21.8890    8.7740    0.4950 C.ar  121  TYR121      0.0417
    158  CE2       23.7050    7.3100    1.1050 C.ar  121  TYR121      0.0417
    159  CZ        23.2470    8.4910    0.5400 C.ar  121  TYR121      0.1957
    160  OH        24.1630    9.3650    0.0110 O.3   121  TYR121     -0.2866
    161  N         24.9430    8.4340   -8.6800 N.3   136  THR136     -0.1218
    162  CA        26.1050    8.5480   -9.5510 C.3   136  THR136      0.1862
    163  C         26.7620    7.1710   -9.5180 C.2   136  THR136      0.2287
    164  O         27.1390    6.6770   -8.4420 O.2   136  THR136     -0.2866
    165  CB        27.1220    9.5800   -9.0290 C.3   136  THR136      0.1770
    166  OG1       26.5380   10.8910   -9.0360 O.3   136  THR136     -0.2211
    167  CG2       28.3700    9.5710   -9.9040 C.3   136  THR136      0.0375
@<TRIPOS>BOND
     1    91    89   ar
     2    91    93   ar
     3    89    88   ar
     4    94    93    1
     5    93    92   ar
     6    59    58    1
     7    59    60    2
     8    58    57    1
     9    88    87    1
    10    88    90   ar
    11    62    60    1
    12    87    84    1
    13   167   165    1
    14    60    61    1
    15    92    90   ar
    16    63    64    1
    17    51    49    1
    18   162   163    1
    19   162   165    1
    20   162   161    1
    21   163   164    2
    22    84    83    1
    23    84    85    1
    24    57    56    1
    25    56    53    1
    26    64    67    1
    27    64    65    1
    28   166   165    1
    29    50    49    1
    30    54    53    1
    31    54    55    2
    32    67    68    1
    33    68    69    1
    34    49    48    1
    35    48    45    1
    36    52    53    1
    37    52    46   am
    38    85    86    2
    39    85    95   am
    40    45    46    1
    41    45    44    1
    42    46    47    2
    43    65    66    2
    44    65    72   am
    45    71    69   ar
    46    69    70   ar
    47    40    39    2
    48    72    73    1
    49    95    96    1
    50    44    39   am
    51    74    73    1
    52    74    75    2
    53    39    38    1
    54    73    76    1
    55    96    97    1
    56    96    99    1
    57    12    11    2
    58     8     6    1
    59    20    17    1
    60    17    18    1
    61    17    16    1
    62    76    77    1
    63    97    98    2
    64     6     5    1
    65    18    19    2
    66    38    37    1
    67    38    41    1
    68    99   100    1
    69    37    43    1
    70    11    16   am
    71    11    10    1
    72    41    42    1
    73    77    79   ar
    74    77    78   ar
    75    14    13    1
    76    43    42    1
    77     9    10    1
    78     9     3   am
    79     5     2    1
    80     5     7    1
    81    79    81   ar
    82     2     3    1
    83     2     1    1
    84    10    13    1
    85   100   102   ar
    86   100   101   ar
    87    78    80   ar
    88     3     4    2
    89   102   104   ar
    90    13    15    1
    91    81    82   ar
    92   101   103   ar
    93    35    34    1
    94    80    82   ar
    95   104   105   ar
    96    33    34    1
    97    33    30    1
    98   103   105   ar
    99    34    36    1
   100    31    32    2
   101    31    30    1
   102    30    29    1
   103   160   159    1
   104   140   139    2
   105   157   159   ar
   106   157   155   ar
   107   159   158   ar
   108   141   139   am
   109   139   138    1
   110   147   146    1
   111    29    23   am
   112   155   154   ar
   113   158   156   ar
   114    27    26   ar
   115   146   143    1
   116   146   148    1
   117   143   142    1
   118   143   144    1
   119   154   156   ar
   120   154   153    1
   121   138   135    1
   122   145   144    2
   123   153   150    1
   124    23    24    2
   125    23    22    1
   126   152   151    2
   127    26    25    1
   128    26    28   ar
   129   132   133    1
   130   132   131    1
   131   133   127    1
   132   135   134    1
   133   135   136    1
   134   150   151    1
   135   150   149    1
   136    25    22    1
   137    22    21    1
   138   131   128    1
   139   137   136    2
   140   125   123    1
   141   127   128    1
   142   127   121   am
   143   124   126    1
   144   124   123    1
   145   128   129    1
   146   120   123    1
   147   120   121    1
   148   120   119    1
   149   116   115    2
   150   130   129    2
   151   112   110    1
   152   121   122    2
   153   118   117    1
   154   115   119   am
   155   115   114    1
   156   111   110    1
   157   117   114    1
   158   110   107    1
   159   109   108    2
   160   114   113    1
   161   107   108    1
   162   107   106    1
