@<TRIPOS>MOLECULE
tmp/4ddsA02.pdb
 84 78 0 0 0
SMALL
GASTEIGER

@<TRIPOS>ATOM
      1  N        -13.5300   51.9180   16.9060 N.3    76  ASN76      -0.1225
      2  CA       -13.4720   51.3830   15.5450 C.3    76  ASN76       0.1785
      3  C        -12.2650   50.4980   15.2780 C.2    76  ASN76       0.2597
      4  O        -12.1370   49.9630   14.1790 O.2    76  ASN76      -0.2718
      5  CB       -13.4280   52.5460   14.5530 C.3    76  ASN76       0.1169
      6  CG       -12.2040   53.4240   14.7480 C.2    76  ASN76       0.2627
      7  OD1      -11.6520   53.4850   15.8400 O.2    76  ASN76      -0.2716
      8  ND2      -11.8110   54.1370   13.7130 N.am   76  ASN76      -0.0877
      9  N        -11.3480   50.3900   16.2250 N.am   77  TYR77      -0.1976
     10  CA       -10.1860   49.5280   16.0440 C.3    77  TYR77       0.1639
     11  C         -9.6800   49.1780   17.4130 C.2    77  TYR77       0.2290
     12  O         -8.9930   49.9640   18.0620 O.2    77  TYR77      -0.2864
     13  CB        -9.0990   50.2040   15.1850 C.3    77  TYR77       0.0560
     14  CG        -8.0050   49.2250   14.8860 C.ar   77  TYR77      -0.0198
     15  CD1       -6.7680   49.3000   15.5300 C.ar   77  TYR77      -0.0009
     16  CD2       -8.2450   48.1350   14.0410 C.ar   77  TYR77      -0.0009
     17  CE1       -5.7540   48.3390   15.2590 C.ar   77  TYR77       0.0417
     18  CE2       -7.2690   47.1680   13.7840 C.ar   77  TYR77       0.0417
     19  CZ        -6.0240   47.2730   14.3970 C.ar   77  TYR77       0.1957
     20  OH        -5.0720   46.3300   14.1130 O.3    77  TYR77      -0.2866
     21  N         -1.7270   49.8670   18.2650 N.3   102  SER102     -0.1217
     22  CA        -2.4750   51.0490   17.8380 C.3   102  SER102      0.1889
     23  C         -3.9620   50.9510   18.2160 C.2   102  SER102      0.2288
     24  O         -4.8380   51.4740   17.5370 O.2   102  SER102     -0.2866
     25  CB        -2.3140   51.3440   16.3340 C.3   102  SER102      0.2089
     26  OG        -2.1960   52.7600   16.1740 O.3   102  SER102     -0.2183
     27  N         -7.3760   51.7900   19.5640 N.3   104  ASN104     -0.1240
     28  CA        -8.0480   53.0720   19.8200 C.3   104  ASN104      0.1653
     29  C         -8.8080   53.1480   21.1370 C.2   104  ASN104      0.2266
     30  O         -8.8940   54.2360   21.7190 O.2   104  ASN104     -0.2867
     31  CB        -8.9930   53.4530   18.6700 C.3   104  ASN104      0.1155
     32  CG        -8.3150   54.2720   17.6060 C.2   104  ASN104      0.2627
     33  OD1       -7.1490   54.6380   17.7260 O.2   104  ASN104     -0.2716
     34  ND2       -9.0600   54.5390   16.5180 N.am  104  ASN104     -0.0877
     35  N        -12.3810   58.1000   17.6940 N.3   139  PRO139     -0.2116
     36  CA       -11.5630   58.0810   16.4800 C.3   139  PRO139      0.1372
     37  C        -11.4710   59.4200   15.7710 C.2   139  PRO139      0.2244
     38  O        -10.7730   59.5170   14.7690 O.2   139  PRO139     -0.2868
     39  CB       -12.3330   57.1130   15.5810 C.3   139  PRO139      0.0268
     40  CG       -13.7490   57.3700   15.9470 C.3   139  PRO139      0.0207
     41  CD       -13.7270   57.5580   17.4350 C.3   139  PRO139      0.0892
     42  N          3.4090   47.3510   14.1060 N.3   188  THR188     -0.1218
     43  CA         2.7820   47.9850   12.9280 C.3   188  THR188      0.1862
     44  C          3.7630   48.6950   11.9960 C.2   188  THR188      0.2287
     45  O          3.3060   49.2980   11.0260 O.2   188  THR188     -0.2866
     46  CB         1.7190   49.0300   13.3210 C.3   188  THR188      0.1770
     47  OG1        2.3850   50.1470   13.9370 O.3   188  THR188     -0.2211
     48  CG2        0.6970   48.4370   14.2690 C.3   188  THR188      0.0375
     49  N          3.4300   54.2650   14.4010 N.3   207  THR207     -0.1218
     50  CA         2.8010   54.6800   13.1610 C.3   207  THR207      0.1862
     51  C          1.5190   55.4550   13.4390 C.2   207  THR207      0.2287
     52  O          0.9630   55.4530   14.5590 O.2   207  THR207     -0.2866
     53  CB         2.4320   53.4410   12.3250 C.3   207  THR207      0.1770
     54  OG1        1.6510   52.5460   13.1400 O.3   207  THR207     -0.2211
     55  CG2        3.6880   52.7070   11.8420 C.3   207  THR207      0.0375
     56  N         -2.2190   56.7990   10.9450 N.3   209  SER209     -0.1202
     57  CA        -2.8890   57.0730    9.6710 C.3   209  SER209      0.2020
     58  C         -4.2420   57.6980    9.9310 C.2   209  SER209      0.2619
     59  O         -4.8250   57.5630   11.0150 O.2   209  SER209     -0.2717
     60  CB        -2.9970   55.8190    8.7620 C.3   209  SER209      0.2103
     61  OG        -3.8680   54.8490    9.3090 O.3   209  SER209     -0.2182
     62  N         -4.8110   58.2680    8.8860 N.am  210  GLY210     -0.1942
     63  CA        -6.1060   58.9310    9.0370 C.3   210  GLY210      0.2014
     64  C         -6.6980   59.2410    7.6710 C.2   210  GLY210      0.2638
     65  O         -6.2210   58.7770    6.6140 O.2   210  GLY210     -0.2714
     66  N         -7.7140   60.0200    7.6700 N.am  211  ASP211     -0.1971
     67  CA        -8.2930   60.5340    6.4440 C.3   211  ASP211      0.1709
     68  C         -7.3040   61.4100    5.6720 C.2   211  ASP211      0.2293
     69  O         -6.2430   61.7340    6.1660 O.2   211  ASP211     -0.2864
     70  CB        -9.5310   61.3460    6.8130 C.3   211  ASP211      0.1436
     71  CG       -10.7230   60.9780    5.9950 C.2   211  ASP211      0.3671
     72  OD1      -10.5410   60.6920    4.7750 O.co2 211  ASP211     -0.2456
     73  OD2      -11.8430   60.9960    6.5760 O.co2 211  ASP211     -0.2456
     74  N          2.5820   54.2820    2.9810 N.3   246  ARG246     -0.1245
     75  CA         3.6950   53.9480    3.8590 C.3   246  ARG246      0.1563
     76  C          5.0150   53.9010    3.0730 C.2   246  ARG246      0.2260
     77  O          6.0600   54.2890    3.5880 O.2   246  ARG246     -0.2867
     78  CB         3.4300   52.6500    4.6290 C.3   246  ARG246      0.0307
     79  CG         2.2710   52.7930    5.5920 C.3   246  ARG246      0.0489
     80  CD         1.9650   51.5020    6.3410 C.3   246  ARG246      0.2205
     81  NE         1.5730   50.4300    5.4370 N.pl3 246  ARG246     -0.0865
     82  CZ         1.1530   49.2460    5.8560 C.cat 246  ARG246      0.5346
     83  NH1        1.1300   48.9720    7.1570 N.pl3 246  ARG246      0.1354
     84  NH2        0.8700   48.2950    4.9780 N.pl3 246  ARG246      0.1354
@<TRIPOS>BOND
     1    74    75    1
     2    76    77    2
     3    76    75    1
     4    75    78    1
     5    78    79    1
     6    72    71   ar
     7    84    82    1
     8    81    82    2
     9    81    80    1
    10    79    80    1
    11    68    69    2
    12    68    67    1
    13    82    83    1
    14    71    73   ar
    15    71    70    1
    16    67    70    1
    17    67    66    1
    18    65    64    2
    19    66    64   am
    20    64    63    1
    21    60    61    1
    22    60    57    1
    23    62    63    1
    24    62    58   am
    25    57    58    1
    26    57    56    1
    27    58    59    2
    28    45    44    2
    29    55    53    1
    30    44    43    1
    31    53    54    1
    32    53    50    1
    33    43    46    1
    34    43    42    1
    35    50    51    1
    36    50    49    1
    37    46    47    1
    38    46    48    1
    39    51    52    2
    40     8     6   am
    41    18    16   ar
    42    18    19   ar
    43    16    14   ar
    44    20    19    1
    45     4     3    2
    46    19    17   ar
    47     5     6    1
    48     5     2    1
    49     6     7    2
    50    38    37    2
    51    14    13    1
    52    14    15   ar
    53    13    10    1
    54    17    15   ar
    55     3     2    1
    56     3     9   am
    57     2     1    1
    58    39    40    1
    59    39    36    1
    60    37    36    1
    61    40    41    1
    62    10     9    1
    63    10    11    1
    64    26    25    1
    65    25    22    1
    66    36    35    1
    67    34    32   am
    68    11    12    2
    69    41    35    1
    70    24    23    2
    71    32    33    2
    72    32    31    1
    73    22    23    1
    74    22    21    1
    75    31    28    1
    76    27    28    1
    77    28    29    1
    78    29    30    2
