@<TRIPOS>MOLECULE
tmp/4ddsA00.pdb
 114 107 0 0 0
SMALL
GASTEIGER

@<TRIPOS>ATOM
      1  N         -2.3210   58.4950   15.0740 N.3    42  SER42      -0.1217
      2  CA        -1.9410   57.6480   16.1840 C.3    42  SER42       0.1889
      3  C         -0.5370   57.8680   16.6750 C.2    42  SER42       0.2288
      4  O         -0.1740   57.3110   17.6980 O.2    42  SER42      -0.2866
      5  CB        -2.1120   56.1630   15.8480 C.3    42  SER42       0.2089
      6  OG        -3.4590   55.8110   15.6910 O.3    42  SER42      -0.2183
      7  N         -0.3460   58.7100   20.2810 N.3    45  LYS45      -0.1245
      8  CA        -0.4270   57.7050   21.3360 C.3    45  LYS45       0.1561
      9  C          0.8390   57.6480   22.1530 C.2    45  LYS45       0.2260
     10  O          0.8150   57.3010   23.3310 O.2    45  LYS45      -0.2867
     11  CB        -0.7720   56.3250   20.7380 C.3    45  LYS45       0.0271
     12  CG        -2.2020   56.2830   20.2380 C.3    45  LYS45       0.0035
     13  CD        -2.5440   55.0230   19.4000 C.3    45  LYS45       0.0206
     14  CE        -4.0360   55.0130   19.0470 C.3    45  LYS45       0.1093
     15  NZ        -4.3640   54.4050   17.7490 N.3    45  LYS45      -0.1314
     16  N        -13.5300   51.9180   16.9060 N.3    76  ASN76      -0.1225
     17  CA       -13.4720   51.3830   15.5450 C.3    76  ASN76       0.1785
     18  C        -12.2650   50.4980   15.2780 C.2    76  ASN76       0.2597
     19  O        -12.1370   49.9630   14.1790 O.2    76  ASN76      -0.2718
     20  CB       -13.4280   52.5460   14.5530 C.3    76  ASN76       0.1169
     21  CG       -12.2040   53.4240   14.7480 C.2    76  ASN76       0.2627
     22  OD1      -11.6520   53.4850   15.8400 O.2    76  ASN76      -0.2716
     23  ND2      -11.8110   54.1370   13.7130 N.am   76  ASN76      -0.0877
     24  N        -11.3480   50.3900   16.2250 N.am   77  TYR77      -0.1976
     25  CA       -10.1860   49.5280   16.0440 C.3    77  TYR77       0.1639
     26  C         -9.6800   49.1780   17.4130 C.2    77  TYR77       0.2290
     27  O         -8.9930   49.9640   18.0620 O.2    77  TYR77      -0.2864
     28  CB        -9.0990   50.2040   15.1850 C.3    77  TYR77       0.0560
     29  CG        -8.0050   49.2250   14.8860 C.ar   77  TYR77      -0.0198
     30  CD1       -6.7680   49.3000   15.5300 C.ar   77  TYR77      -0.0009
     31  CD2       -8.2450   48.1350   14.0410 C.ar   77  TYR77      -0.0009
     32  CE1       -5.7540   48.3390   15.2590 C.ar   77  TYR77       0.0417
     33  CE2       -7.2690   47.1680   13.7840 C.ar   77  TYR77       0.0417
     34  CZ        -6.0240   47.2730   14.3970 C.ar   77  TYR77       0.1957
     35  OH        -5.0720   46.3300   14.1130 O.3    77  TYR77      -0.2866
     36  N         -1.7270   49.8670   18.2650 N.3   102  SER102     -0.1217
     37  CA        -2.4750   51.0490   17.8380 C.3   102  SER102      0.1889
     38  C         -3.9620   50.9510   18.2160 C.2   102  SER102      0.2288
     39  O         -4.8380   51.4740   17.5370 O.2   102  SER102     -0.2866
     40  CB        -2.3140   51.3440   16.3340 C.3   102  SER102      0.2089
     41  OG        -2.1960   52.7600   16.1740 O.3   102  SER102     -0.2183
     42  N         -7.3760   51.7900   19.5640 N.3   104  ASN104     -0.1240
     43  CA        -8.0480   53.0720   19.8200 C.3   104  ASN104      0.1653
     44  C         -8.8080   53.1480   21.1370 C.2   104  ASN104      0.2266
     45  O         -8.8940   54.2360   21.7190 O.2   104  ASN104     -0.2867
     46  CB        -8.9930   53.4530   18.6700 C.3   104  ASN104      0.1155
     47  CG        -8.3150   54.2720   17.6060 C.2   104  ASN104      0.2627
     48  OD1       -7.1490   54.6380   17.7260 O.2   104  ASN104     -0.2716
     49  ND2       -9.0600   54.5390   16.5180 N.am  104  ASN104     -0.0877
     50  N        -12.3810   58.1000   17.6940 N.3   139  PRO139     -0.2102
     51  CA       -11.5630   58.0810   16.4800 C.3   139  PRO139      0.1504
     52  C        -11.4710   59.4200   15.7710 C.2   139  PRO139      0.2576
     53  O        -10.7730   59.5170   14.7690 O.2   139  PRO139     -0.2718
     54  CB       -12.3330   57.1130   15.5810 C.3   139  PRO139      0.0282
     55  CG       -13.7490   57.3700   15.9470 C.3   139  PRO139      0.0208
     56  CD       -13.7270   57.5580   17.4350 C.3   139  PRO139      0.0893
     57  N        -12.2020   60.4430   16.2320 N.am  140  THR140     -0.1953
     58  CA       -12.2830   61.6770   15.4360 C.3   140  THR140      0.1897
     59  C        -11.0000   62.4810   15.4220 C.2   140  THR140      0.2313
     60  O        -10.8500   63.3390   14.5730 O.2   140  THR140     -0.2863
     61  CB       -13.4470   62.6040   15.8760 C.3   140  THR140      0.1794
     62  OG1      -13.2720   63.0280   17.2310 O.3   140  THR140     -0.2208
     63  CG2      -14.7870   61.8740   15.7570 C.3   140  THR140      0.0378
     64  N         -8.4970   61.6060   14.1150 N.3   142  ASN142     -0.1225
     65  CA        -7.8580   61.2430   12.8290 C.3   142  ASN142      0.1785
     66  C         -8.5140   61.8420   11.5890 C.2   142  ASN142      0.2597
     67  O         -8.1930   61.4590   10.4630 O.2   142  ASN142     -0.2718
     68  CB        -7.7950   59.7110   12.6710 C.3   142  ASN142      0.1169
     69  CG        -7.1600   59.0620   13.8430 C.2   142  ASN142      0.2627
     70  OD1       -5.9630   59.1880   14.0570 O.2   142  ASN142     -0.2716
     71  ND2       -7.9840   58.3820   14.6630 N.am  142  ASN142     -0.0877
     72  N         -9.4000   62.8180   11.7580 N.am  143  THR143     -0.1953
     73  CA       -10.0700   63.3600   10.5850 C.3   143  THR143      0.1897
     74  C         -9.1010   64.0310    9.6110 C.2   143  THR143      0.2313
     75  O         -9.3560   64.0640    8.4060 O.2   143  THR143     -0.2863
     76  CB       -11.2120   64.3320   10.9550 C.3   143  THR143      0.1794
     77  OG1      -10.7410   65.3190   11.8670 O.3   143  THR143     -0.2208
     78  CG2      -12.3690   63.6080   11.5950 C.3   143  THR143      0.0378
     79  N          3.4090   47.3510   14.1060 N.3   188  THR188     -0.1218
     80  CA         2.7820   47.9850   12.9280 C.3   188  THR188      0.1862
     81  C          3.7630   48.6950   11.9960 C.2   188  THR188      0.2287
     82  O          3.3060   49.2980   11.0260 O.2   188  THR188     -0.2866
     83  CB         1.7190   49.0300   13.3210 C.3   188  THR188      0.1770
     84  OG1        2.3850   50.1470   13.9370 O.3   188  THR188     -0.2211
     85  CG2        0.6970   48.4370   14.2690 C.3   188  THR188      0.0375
     86  N          3.4300   54.2650   14.4010 N.3   207  THR207     -0.1203
     87  CA         2.8010   54.6800   13.1610 C.3   207  THR207      0.1994
     88  C          1.5190   55.4550   13.4390 C.2   207  THR207      0.2618
     89  O          0.9630   55.4530   14.5590 O.2   207  THR207     -0.2717
     90  CB         2.4320   53.4410   12.3250 C.3   207  THR207      0.1784
     91  OG1        1.6510   52.5460   13.1400 O.3   207  THR207     -0.2211
     92  CG2        3.6880   52.7070   11.8420 C.3   207  THR207      0.0376
     93  N          0.9790   56.0510   12.3940 N.am  208  GLY208     -0.1942
     94  CA        -0.3450   56.6540   12.4620 C.3   208  GLY208      0.2014
     95  C         -0.9090   56.7810   11.0560 C.2   208  GLY208      0.2640
     96  O         -0.1490   56.8590   10.0750 O.2   208  GLY208     -0.2714
     97  N         -2.2190   56.7990   10.9450 N.am  209  SER209     -0.1935
     98  CA        -2.8890   57.0730    9.6710 C.3   209  SER209      0.2055
     99  C         -4.2420   57.6980    9.9310 C.2   209  SER209      0.2644
    100  O         -4.8250   57.5630   11.0150 O.2   209  SER209     -0.2714
    101  CB        -2.9970   55.8190    8.7620 C.3   209  SER209      0.2130
    102  OG        -3.8680   54.8490    9.3090 O.3   209  SER209     -0.2179
    103  N         -4.8110   58.2680    8.8860 N.am  210  GLY210     -0.1939
    104  CA        -6.1060   58.9310    9.0370 C.3   210  GLY210      0.2014
    105  C         -6.6980   59.2410    7.6710 C.2   210  GLY210      0.2638
    106  O         -6.2210   58.7770    6.6140 O.2   210  GLY210     -0.2714
    107  N         -7.7140   60.0200    7.6700 N.am  211  ASP211     -0.1971
    108  CA        -8.2930   60.5340    6.4440 C.3   211  ASP211      0.1709
    109  C         -7.3040   61.4100    5.6720 C.2   211  ASP211      0.2293
    110  O         -6.2430   61.7340    6.1660 O.2   211  ASP211     -0.2864
    111  CB        -9.5310   61.3460    6.8130 C.3   211  ASP211      0.1436
    112  CG       -10.7230   60.9780    5.9950 C.2   211  ASP211      0.3671
    113  OD1      -10.5410   60.6920    4.7750 O.co2 211  ASP211     -0.2456
    114  OD2      -11.8430   60.9960    6.5760 O.co2 211  ASP211     -0.2456
@<TRIPOS>BOND
     1   113   112   ar
     2   109   110    2
     3   109   108    1
     4   112   114   ar
     5   112   111    1
     6   108   111    1
     7   108   107    1
     8   106   105    2
     9   107   105   am
    10   105   104    1
    11    75    74    2
    12   101   102    1
    13   101    98    1
    14   103   104    1
    15   103    99   am
    16    74    73    1
    17    98    99    1
    18    98    97    1
    19    99   100    2
    20    96    95    2
    21    67    66    2
    22    73    76    1
    23    73    72    1
    24    97    95   am
    25    76    78    1
    26    76    77    1
    27    82    81    2
    28    95    94    1
    29    66    72   am
    30    66    65    1
    31    92    90    1
    32    81    80    1
    33    90    91    1
    34    90    87    1
    35    93    94    1
    36    93    88   am
    37    68    65    1
    38    68    69    1
    39    65    64    1
    40    80    83    1
    41    80    79    1
    42    87    88    1
    43    87    86    1
    44    83    84    1
    45    83    85    1
    46    88    89    2
    47    23    21   am
    48    33    31   ar
    49    33    34   ar
    50    69    70    2
    51    69    71   am
    52    31    29   ar
    53    35    34    1
    54    19    18    2
    55    34    32   ar
    56    20    21    1
    57    20    17    1
    58    60    59    2
    59    21    22    2
    60    53    52    2
    61    29    28    1
    62    29    30   ar
    63     1     2    1
    64    28    25    1
    65    32    30   ar
    66    18    17    1
    67    18    24   am
    68    59    58    1
    69    58    61    1
    70    58    57    1
    71    17    16    1
    72    54    55    1
    73    54    51    1
    74     6     5    1
    75    63    61    1
    76    52    57   am
    77    52    51    1
    78     5     2    1
    79    61    62    1
    80    55    56    1
    81    25    24    1
    82    25    26    1
    83    41    40    1
    84     2     3    1
    85    40    37    1
    86    51    50    1
    87    49    47   am
    88     3     4    2
    89    26    27    2
    90    56    50    1
    91    39    38    2
    92    47    48    2
    93    47    46    1
    94    15    14    1
    95    37    38    1
    96    37    36    1
    97    46    43    1
    98    14    13    1
    99    13    12    1
   100    42    43    1
   101    43    44    1
   102    12    11    1
   103     7     8    1
   104    11     8    1
   105    44    45    2
   106     8     9    1
   107     9    10    2
