@<TRIPOS>MOLECULE
tmp/4ddyB01.pdb
 89 84 0 0 0
SMALL
GASTEIGER

@<TRIPOS>ATOM
      1  N         20.1020   90.6480  -13.0040 N.3    77  ASN77      -0.1225
      2  CA        20.2000   91.8350  -12.1370 C.3    77  ASN77       0.1785
      3  C         21.3680   92.7840  -12.4040 C.2    77  ASN77       0.2597
      4  O         21.5220   93.7920  -11.6850 O.2    77  ASN77      -0.2718
      5  CB        20.2210   91.4260  -10.6450 C.3    77  ASN77       0.1169
      6  CG        21.3790   90.5410  -10.3020 C.2    77  ASN77       0.2627
      7  OD1       22.0240   89.9840  -11.1740 O.2    77  ASN77      -0.2716
      8  ND2       21.6810   90.4400   -9.0050 N.am   77  ASN77      -0.0877
      9  N         22.3000   92.3210  -13.2940 N.am   78  TYR78      -0.1976
     10  CA        23.4690   93.1760  -13.5480 C.3    78  TYR78       0.1639
     11  C         24.0150   92.7620  -14.9110 C.2    78  TYR78       0.2290
     12  O         24.6690   91.7350  -15.0790 O.2    78  TYR78      -0.2864
     13  CB        24.5190   93.0360  -12.4770 C.3    78  TYR78       0.0560
     14  CG        25.6410   93.9720  -12.6240 C.ar   78  TYR78      -0.0198
     15  CD1       26.9140   93.5710  -13.0910 C.ar   78  TYR78      -0.0009
     16  CD2       25.4650   95.3040  -12.2590 C.ar   78  TYR78      -0.0009
     17  CE1       27.9700   94.5300  -13.2060 C.ar   78  TYR78       0.0417
     18  CE2       26.5290   96.2440  -12.2830 C.ar   78  TYR78       0.0417
     19  CZ        27.7430   95.8530  -12.8140 C.ar   78  TYR78       0.1957
     20  OH        28.7470   96.7320  -12.8250 O.3    78  TYR78      -0.2866
     21  N         33.6600   92.8450  -16.9650 N.3   102  TYR102     -0.1227
     22  CA        32.5960   93.7290  -16.4840 C.3   102  TYR102      0.1736
     23  C         31.7380   93.0790  -15.3860 C.2   102  TYR102      0.2596
     24  O         30.8950   93.7480  -14.7720 O.2   102  TYR102     -0.2718
     25  CB        31.7200   94.1510  -17.6940 C.3   102  TYR102      0.0548
     26  CG        32.5610   94.9790  -18.6140 C.ar  102  TYR102     -0.0200
     27  CD1       33.3690   94.3750  -19.5780 C.ar  102  TYR102     -0.0009
     28  CD2       32.5920   96.3690  -18.4920 C.ar  102  TYR102     -0.0009
     29  CE1       34.1680   95.1410  -20.4050 C.ar  102  TYR102      0.0417
     30  CE2       33.3750   97.1380  -19.3230 C.ar  102  TYR102      0.0417
     31  CZ        34.1860   96.5210  -20.2650 C.ar  102  TYR102      0.1957
     32  OH        34.9970   97.2770  -21.0950 O.3   102  TYR102     -0.2866
     33  N         31.9560   91.7860  -15.1540 N.am  103  SER103     -0.1952
     34  CA        31.2020   91.0350  -14.1450 C.3   103  SER103      0.1924
     35  C         29.6990   90.9680  -14.4850 C.2   103  SER103      0.2314
     36  O         28.8310   90.9260  -13.6270 O.2   103  SER103     -0.2863
     37  CB        31.4690   91.5410  -12.7050 C.3   103  SER103      0.2116
     38  OG        31.4260   90.3960  -11.8870 O.3   103  SER103     -0.2180
     39  N         26.2670   89.4700  -15.2490 N.3   105  ASN105     -0.1240
     40  CA        25.5910   88.2480  -14.8050 C.3   105  ASN105      0.1653
     41  C         24.8320   87.4970  -15.8950 C.2   105  ASN105      0.2266
     42  O         24.7030   86.2810  -15.8580 O.2   105  ASN105     -0.2867
     43  CB        24.6600   88.5500  -13.6220 C.3   105  ASN105      0.1155
     44  CG        25.3610   88.4290  -12.2660 C.2   105  ASN105      0.2627
     45  OD1       26.5350   87.9940  -12.1740 O.2   105  ASN105     -0.2716
     46  ND2       24.6320   88.7930  -11.1920 N.am  105  ASN105     -0.0877
     47  N         37.1290   95.9410  -12.7890 N.3   189  THR189     -0.1218
     48  CA        36.4990   96.0390  -11.4630 C.3   189  THR189      0.1862
     49  C         37.4170   95.9380  -10.2780 C.2   189  THR189      0.2287
     50  O         36.9170   95.9560   -9.1790 O.2   189  THR189     -0.2866
     51  CB        35.4260   94.9500  -11.2610 C.3   189  THR189      0.1770
     52  OG1       36.0410   93.6600  -11.1310 O.3   189  THR189     -0.2211
     53  CG2       34.4180   94.9360  -12.4330 C.3   189  THR189      0.0375
     54  N         36.8900   89.9400   -9.4060 N.3   208  THR208     -0.1218
     55  CA        36.2380   90.2270   -8.1110 C.3   208  THR208      0.1862
     56  C         34.9490   89.4050   -7.9590 C.2   208  THR208      0.2287
     57  O         34.4260   88.8350   -8.9460 O.2   208  THR208     -0.2866
     58  CB        35.8870   91.7030   -7.9870 C.3   208  THR208      0.1770
     59  OG1       35.1250   92.0340   -9.1530 O.3   208  THR208     -0.2211
     60  CG2       37.1100   92.5750   -8.0510 C.3   208  THR208      0.0375
     61  N         31.1160   89.5170   -5.2440 N.3   210  SER210     -0.1202
     62  CA        30.4700   89.9740   -4.0330 C.3   210  SER210      0.2020
     63  C         29.0710   89.4200   -3.9340 C.2   210  SER210      0.2619
     64  O         28.4890   89.0070   -4.9650 O.2   210  SER210     -0.2717
     65  CB        30.4750   91.4950   -3.9010 C.3   210  SER210      0.2103
     66  OG        29.6060   92.0840   -4.8560 O.3   210  SER210     -0.2182
     67  N         28.4650   89.4900   -2.7660 N.am  211  GLY211     -0.1942
     68  CA        27.1260   88.9500   -2.5870 C.3   211  GLY211      0.2014
     69  C         26.4920   89.4700   -1.3120 C.2   211  GLY211      0.2638
     70  O         26.9970   90.4330   -0.7140 O.2   211  GLY211     -0.2714
     71  N         25.4860   88.7480   -0.8700 N.am  212  ASP212     -0.1971
     72  CA        24.9300   89.0070    0.4700 C.3   212  ASP212      0.1709
     73  C         25.9430   88.6790    1.5820 C.2   212  ASP212      0.2293
     74  O         27.0130   88.0980    1.3200 O.2   212  ASP212     -0.2864
     75  CB        23.6040   88.2440    0.6650 C.3   212  ASP212      0.1436
     76  CG        22.3850   88.9500    0.0330 C.2   212  ASP212      0.3671
     77  OD1       22.4210   90.1690   -0.2550 O.co2 212  ASP212     -0.2456
     78  OD2       21.3690   88.2520   -0.2020 O.co2 212  ASP212     -0.2456
     79  N         36.0380   95.9410    0.3930 N.3   247  ARG247     -0.1245
     80  CA        37.1580   95.7230   -0.4930 C.3   247  ARG247      0.1563
     81  C         38.4640   96.1200    0.1470 C.2   247  ARG247      0.2260
     82  O         39.5320   95.5680   -0.1740 O.2   247  ARG247     -0.2867
     83  CB        36.9680   96.4540   -1.8360 C.3   247  ARG247      0.0307
     84  CG        35.7390   95.9080   -2.6660 C.3   247  ARG247      0.0489
     85  CD        35.5350   96.5790   -4.0410 C.3   247  ARG247      0.2205
     86  NE        35.2470   97.9830   -3.8900 N.pl3 247  ARG247     -0.0865
     87  CZ        34.9360   98.7720   -4.9120 C.cat 247  ARG247      0.5346
     88  NH1       34.8480   98.2740   -6.1460 N.pl3 247  ARG247      0.1354
     89  NH2       34.6900  100.0530   -4.6900 N.pl3 247  ARG247      0.1354
@<TRIPOS>BOND
     1    32    31    1
     2    29    31   ar
     3    29    27   ar
     4    31    30   ar
     5    27    26   ar
     6    30    28   ar
     7    26    28   ar
     8    26    25    1
     9    25    22    1
    10    21    22    1
    11    22    23    1
    12    41    42    2
    13    41    40    1
    14    23    33   am
    15    23    24    2
    16    39    40    1
    17    33    34    1
    18    12    11    2
    19    11    10    1
    20    40    43    1
    21    35    34    1
    22    35    36    2
    23    34    37    1
    24    43    44    1
    25    10     9    1
    26    10    13    1
    27     9     3   am
    28    17    15   ar
    29    17    19   ar
    30    15    14   ar
    31     1     2    1
    32    20    19    1
    33    19    18   ar
    34    47    48    1
    35    37    38    1
    36    14    13    1
    37    14    16   ar
    38    53    51    1
    39     3     2    1
    40     3     4    2
    41    18    16   ar
    42    44    45    2
    43    44    46   am
    44     2     5    1
    45    48    51    1
    46    48    49    1
    47    51    52    1
    48     7     6    2
    49     5     6    1
    50     6     8   am
    51    49    50    2
    52    54    55    1
    53    59    58    1
    54    57    56    2
    55    55    58    1
    56    55    56    1
    57    60    58    1
    58    88    87    1
    59    61    62    1
    60    64    63    2
    61    87    89    1
    62    87    86    2
    63    66    65    1
    64    85    86    1
    65    85    84    1
    66    62    63    1
    67    62    65    1
    68    63    67   am
    69    67    68    1
    70    84    83    1
    71    68    69    1
    72    83    80    1
    73    69    71   am
    74    69    70    2
    75    71    72    1
    76    80    81    1
    77    80    79    1
    78    77    76   ar
    79    78    76   ar
    80    82    81    2
    81    76    75    1
    82    72    75    1
    83    72    73    1
    84    74    73    2
