@<TRIPOS>MOLECULE
tmp/4ddyB05.pdb
 101 98 0 0 0
SMALL
GASTEIGER

@<TRIPOS>ATOM
      1  N         52.9890   82.8810   11.9640 N.3     1  SER1       -0.1217
      2  CA        54.1480   83.7940   11.6710 C.3     1  SER1        0.1889
      3  C         53.8560   85.2830   11.9480 C.2     1  SER1        0.2288
      4  O         52.8380   85.6330   12.5610 O.2     1  SER1       -0.2866
      5  CB        54.5860   83.6100   10.2150 C.3     1  SER1        0.2089
      6  OG        53.6160   84.1280    9.3250 O.3     1  SER1       -0.2183
      7  N         50.9470   85.6880    9.7840 N.3     4  GLN4       -0.1245
      8  CA        49.8010   85.0500   10.3990 C.3     4  GLN4        0.1566
      9  C         49.1620   85.9330   11.4630 C.2     4  GLN4        0.2260
     10  O         47.9380   86.1320   11.4440 O.2     4  GLN4       -0.2867
     11  CB        50.2210   83.7000   10.9720 C.3     4  GLN4        0.0367
     12  CG        50.5520   82.6720    9.8790 C.3     4  GLN4        0.0905
     13  CD        49.3340   82.1880    9.1060 C.2     4  GLN4        0.2608
     14  OE1       49.4220   81.9250    7.9100 O.2     4  GLN4       -0.2717
     15  NE2       48.1970   82.0600    9.7890 N.am    4  GLN4       -0.0878
     16  N         56.2620   78.4160   -2.3810 N.3    29  THR29      -0.1203
     17  CA        55.8410   78.6680   -1.0160 C.3    29  THR29       0.1994
     18  C         54.3880   79.2020   -0.9970 C.2    29  THR29       0.2618
     19  O         53.8530   79.7570   -1.9920 O.2    29  THR29      -0.2717
     20  CB        56.7870   79.6160   -0.2710 C.3    29  THR29       0.1784
     21  OG1       56.8740   80.8650   -0.9580 O.3    29  THR29      -0.2211
     22  CG2       58.1790   78.9880   -0.1200 C.3    29  THR29       0.0376
     23  N         53.7450   78.9820    0.1470 N.am   30  GLN30      -0.1965
     24  CA        52.3410   79.2970    0.3380 C.3    30  GLN30       0.1733
     25  C         52.0790   80.0320    1.6060 C.2    30  GLN30       0.2616
     26  O         52.8070   79.8380    2.5760 O.2    30  GLN30      -0.2715
     27  CB        51.5110   78.0210    0.3510 C.3    30  GLN30       0.0408
     28  CG        51.5540   77.2170   -0.9270 C.3    30  GLN30       0.0908
     29  CD        50.8620   75.8650   -0.7370 C.2    30  GLN30       0.2608
     30  OE1       51.5130   74.8810   -0.5070 O.2    30  GLN30      -0.2717
     31  NE2       49.5380   75.8370   -0.8070 N.am   30  GLN30      -0.0878
     32  N         51.0980   80.8950    1.6350 N.am   31  VAL31      -0.1963
     33  CA        50.5530   81.4850    2.8510 C.3    31  VAL31       0.1727
     34  C         49.0640   81.1960    2.8470 C.2    31  VAL31       0.2616
     35  O         48.3680   81.5040    1.8570 O.2    31  VAL31      -0.2715
     36  CB        50.7590   83.0150    2.9480 C.3    31  VAL31       0.0290
     37  CG1       50.0310   83.5830    4.2240 C.3    31  VAL31       0.0023
     38  CG2       52.2320   83.3470    3.0570 C.3    31  VAL31       0.0023
     39  N         48.6410   80.5170    3.9800 N.am   32  LEU32      -0.1963
     40  CA        47.2380   80.1220    4.0630 C.3    32  LEU32       0.1728
     41  C         46.6270   80.6830    5.3210 C.2    32  LEU32       0.2616
     42  O         47.2650   80.6680    6.3810 O.2    32  LEU32      -0.2715
     43  CB        47.1610   78.6020    4.0850 C.3    32  LEU32       0.0311
     44  CG        47.6520   77.9790    2.7710 C.3    32  LEU32       0.0022
     45  CD1       48.5310   76.7500    3.0170 C.3    32  LEU32       0.0001
     46  CD2       46.5010   77.7270    1.7980 C.3    32  LEU32       0.0001
     47  N         45.3950   81.1400    5.2490 N.am   33  TYR33      -0.1960
     48  CA        44.6330   81.6080    6.3910 C.3    33  TYR33       0.1771
     49  C         43.1990   81.1740    6.1390 C.2    33  TYR33       0.2619
     50  O         42.5930   81.6290    5.1610 O.2    33  TYR33      -0.2715
     51  CB        44.7730   83.1250    6.5980 C.3    33  TYR33       0.0574
     52  CG        44.1170   83.5450    7.8980 C.ar   33  TYR33      -0.0198
     53  CD1       44.8540   83.5730    9.0800 C.ar   33  TYR33      -0.0009
     54  CD2       42.7820   83.9160    7.9490 C.ar   33  TYR33      -0.0009
     55  CE1       44.2550   83.9430   10.2760 C.ar   33  TYR33       0.0417
     56  CE2       42.1620   84.2800    9.1250 C.ar   33  TYR33       0.0417
     57  CZ        42.9180   84.3010   10.3030 C.ar   33  TYR33       0.1957
     58  OH        42.3870   84.6370   11.5420 O.3    33  TYR33      -0.2866
     59  N         42.6890   80.2460    6.9420 N.am   34  ARG34      -0.1963
     60  CA        41.4080   79.5670    6.6690 C.3    34  ARG34       0.1729
     61  C         41.4260   78.9730    5.2580 C.2    34  ARG34       0.2617
     62  O         40.4140   78.9670    4.5240 O.2    34  ARG34      -0.2715
     63  CB        40.2080   80.4980    6.9120 C.3    34  ARG34       0.0348
     64  CG        40.1910   81.0200    8.3800 C.3    34  ARG34       0.0492
     65  CD        38.8270   81.6900    8.7110 C.3    34  ARG34       0.2205
     66  NE        38.9390   82.3950    9.9860 N.pl3  34  ARG34      -0.0865
     67  CZ        38.7680   81.7940   11.1540 C.cat  34  ARG34       0.5346
     68  NH1       38.5070   80.4880   11.2220 N.pl3  34  ARG34       0.1354
     69  NH2       38.9270   82.4930   12.2560 N.pl3  34  ARG34       0.1354
     70  N         42.5830   78.4780    4.8620 N.am   35  GLY35      -0.1940
     71  CA        42.8030   78.0770    3.4800 C.3    35  GLY35       0.2014
     72  C         41.9900   76.8620    3.1040 C.2    35  GLY35       0.2639
     73  O         41.7760   76.6160    1.8990 O.2    35  GLY35      -0.2714
     74  N         41.4970   76.0920    4.0600 N.am   36  ASP36      -0.1957
     75  CA        40.6610   74.8870    3.7970 C.3    36  ASP36       0.1840
     76  C         39.1950   75.0370    4.1940 C.2    36  ASP36       0.2621
     77  O         38.4450   74.0510    4.1590 O.2    36  ASP36      -0.2715
     78  CB        41.2600   73.6630    4.5180 C.3    36  ASP36       0.1450
     79  CG        42.5810   73.2980    3.9470 C.2    36  ASP36       0.3671
     80  OD1       42.7390   73.0660    2.7640 O.co2  36  ASP36      -0.2456
     81  OD2       43.5800   73.3210    4.6730 O.co2  36  ASP36      -0.2456
     82  N         38.7890   76.2520    4.5500 N.am   37  GLU37      -0.1977
     83  CA        37.3900   76.5180    4.8510 C.3    37  GLU37       0.1602
     84  C         36.6940   76.8760    3.5300 C.2    37  GLU37       0.2287
     85  O         37.2860   77.5740    2.7050 O.2    37  GLU37      -0.2864
     86  CB        37.2290   77.6720    5.8330 C.3    37  GLU37       0.0415
     87  CG        37.7740   77.3420    7.2310 C.3    37  GLU37       0.1163
     88  CD        37.4500   78.4260    8.2330 C.2    37  GLU37       0.3649
     89  OE1       36.4240   79.1440    8.0730 O.co2  37  GLU37      -0.2457
     90  OE2       38.2300   78.5350    9.2190 O.co2  37  GLU37      -0.2457
     91  N         42.5670   77.5090   -0.6760 N.3   157  ARG157     -0.1245
     92  CA        43.6490   76.6520   -1.1720 C.3   157  ARG157      0.1563
     93  C         43.3340   76.0510   -2.5430 C.2   157  ARG157      0.2260
     94  O         44.1800   76.0530   -3.4330 O.2   157  ARG157     -0.2867
     95  CB        43.9870   75.5390   -0.1580 C.3   157  ARG157      0.0307
     96  CG        45.1450   74.6530   -0.5740 C.3   157  ARG157      0.0489
     97  CD        45.2050   73.3730    0.2480 C.3   157  ARG157      0.2205
     98  NE        45.2440   73.5840    1.6990 N.pl3 157  ARG157     -0.0865
     99  CZ        46.3470   73.6800    2.4300 C.cat 157  ARG157      0.5346
    100  NH1       47.5760   73.6010    1.9130 N.pl3 157  ARG157      0.1354
    101  NH2       46.2020   73.8320    3.7290 N.pl3 157  ARG157      0.1354
@<TRIPOS>BOND
     1    94    93    2
     2    93    92    1
     3    16    17    1
     4    19    18    2
     5    92    91    1
     6    92    95    1
     7    17    18    1
     8    17    20    1
     9    18    23   am
    10    21    20    1
    11    28    29    1
    12    28    27    1
    13    31    29   am
    14    29    30    2
    15    96    95    1
    16    96    97    1
    17    20    22    1
    18    23    24    1
    19    97    98    1
    20    24    27    1
    21    24    25    1
    22    25    32   am
    23    25    26    2
    24    32    33    1
    25    98    99    2
    26    46    44    1
    27    35    34    2
    28    73    72    2
    29   100    99    1
    30    99   101    1
    31    85    84    2
    32    80    79   ar
    33    44    45    1
    34    44    43    1
    35    34    33    1
    36    34    39   am
    37    33    36    1
    38    36    38    1
    39    36    37    1
    40    72    71    1
    41    72    74   am
    42    71    70    1
    43    84    83    1
    44    75    74    1
    45    75    76    1
    46    75    78    1
    47    79    78    1
    48    79    81   ar
    49    39    40    1
    50    40    43    1
    51    40    41    1
    52    77    76    2
    53    76    82   am
    54    62    61    2
    55    82    83    1
    56    83    86    1
    57    70    61   am
    58    50    49    2
    59    47    41   am
    60    47    48    1
    61    61    60    1
    62    41    42    2
    63    86    87    1
    64    49    48    1
    65    49    59   am
    66    48    51    1
    67    51    52    1
    68    60    63    1
    69    60    59    1
    70    63    64    1
    71    87    88    1
    72    52    54   ar
    73    52    53   ar
    74    14    13    2
    75    54    56   ar
    76    89    88   ar
    77    88    90   ar
    78    64    65    1
    79    65    66    1
    80    53    55   ar
    81    13    15   am
    82    13    12    1
    83    56    57   ar
    84     6     5    1
    85     7     8    1
    86    12    11    1
    87    66    67    2
    88     5     2    1
    89    55    57   ar
    90    57    58    1
    91     8    11    1
    92     8     9    1
    93    67    68    1
    94    67    69    1
    95    10     9    2
    96     2     3    1
    97     2     1    1
    98     3     4    2
