@<TRIPOS>MOLECULE
tmp/4ddyA02.pdb
 79 76 0 0 0
SMALL
GASTEIGER

@<TRIPOS>ATOM
      1  N         21.4810   62.6400   17.3770 N.3    24  THR24      -0.1203
      2  CA        21.9790   62.9460   18.7290 C.3    24  THR24       0.1994
      3  C         23.4840   62.9010   18.8350 C.2    24  THR24       0.2618
      4  O         24.0260   63.2760   19.8710 O.2    24  THR24      -0.2717
      5  CB        21.3440   62.0630   19.8370 C.3    24  THR24       0.1784
      6  OG1       21.8140   60.7050   19.7390 O.3    24  THR24      -0.2211
      7  CG2       19.8150   62.1320   19.7250 C.3    24  THR24       0.0376
      8  N         24.1700   62.4500   17.7800 N.am   25  ALA25      -0.1965
      9  CA        25.6490   62.4740   17.8100 C.3    25  ALA25       0.1728
     10  C         26.1240   63.9090   17.9030 C.2    25  ALA25       0.2616
     11  O         27.1590   64.1810   18.5020 O.2    25  ALA25      -0.2715
     12  CB        26.1760   61.8470   16.5410 C.3    25  ALA25       0.0334
     13  N         25.3740   64.8440   17.3190 N.am   26  ASP26      -0.1957
     14  CA        25.8350   66.2290   17.2310 C.3    26  ASP26       0.1840
     15  C         24.7310   67.2790   17.4480 C.2    26  ASP26       0.2622
     16  O         24.9960   68.4820   17.3600 O.2    26  ASP26      -0.2715
     17  CB        26.5990   66.4550   15.9160 C.3    26  ASP26       0.1450
     18  CG        25.7440   66.1730   14.6790 C.2    26  ASP26       0.3671
     19  OD1       24.4980   66.1420   14.7890 O.co2  26  ASP26      -0.2456
     20  OD2       26.3390   65.9930   13.5860 O.co2  26  ASP26      -0.2456
     21  N         23.5100   66.8080   17.7360 N.am   27  ASN27      -0.1972
     22  CA        22.3140   67.6710   17.9180 C.3    27  ASN27       0.1688
     23  C         21.7940   68.3230   16.6680 C.2    27  ASN27       0.2292
     24  O         20.8250   69.0940   16.7300 O.2    27  ASN27      -0.2864
     25  CB        22.5330   68.8300   18.9000 C.3    27  ASN27       0.1181
     26  CG        22.8240   68.3650   20.3100 C.2    27  ASN27       0.2629
     27  OD1       22.2430   67.3760   20.7740 O.2    27  ASN27      -0.2716
     28  ND2       23.7430   69.0620   21.0160 N.am   27  ASN27      -0.0877
     29  N         11.6710   66.9030   18.7380 N.3   160  GLN160     -0.1245
     30  CA        12.3070   67.3540   19.9630 C.3   160  GLN160      0.1566
     31  C         11.6740   66.6190   21.1440 C.2   160  GLN160      0.2260
     32  O         12.3730   66.1090   22.0400 O.2   160  GLN160     -0.2867
     33  CB        12.1490   68.8620   20.0890 C.3   160  GLN160      0.0367
     34  CG        12.5840   69.3950   21.4280 C.3   160  GLN160      0.0905
     35  CD        14.0710   69.2250   21.6640 C.2   160  GLN160      0.2608
     36  OE1       14.5410   69.1910   22.8140 O.2   160  GLN160     -0.2717
     37  NE2       14.8290   69.1050   20.5690 N.am  160  GLN160     -0.0878
     38  N         12.6580   62.9740   21.3780 N.3   163  ARG163     -0.1231
     39  CA        14.0120   62.9030   21.9380 C.3   163  ARG163      0.1694
     40  C         13.9840   63.0580   23.4510 C.2   163  ARG163      0.2591
     41  O         14.6070   62.2320   24.1520 O.2   163  ARG163     -0.2718
     42  CB        14.9090   63.9460   21.2570 C.3   163  ARG163      0.0321
     43  CG        16.3680   63.7350   21.6850 C.3   163  ARG163      0.0489
     44  CD        17.2670   64.9370   21.4480 C.3   163  ARG163      0.2205
     45  NE        18.6410   64.6230   21.8770 N.pl3 163  ARG163     -0.0865
     46  CZ        19.6830   65.3220   21.4740 C.cat 163  ARG163      0.5346
     47  NH1       19.5230   66.4000   20.7250 N.pl3 163  ARG163      0.1354
     48  NH2       20.8850   64.9620   21.8740 N.pl3 163  ARG163      0.1354
     49  N         13.2920   64.0660   23.9610 N.am  164  GLN164     -0.1979
     50  CA        13.2530   64.2760   25.4110 C.3   164  GLN164      0.1601
     51  C         12.6310   63.0640   26.1070 C.2   164  GLN164      0.2287
     52  O         13.0950   62.6820   27.1820 O.2   164  GLN164     -0.2864
     53  CB        12.4540   65.5210   25.7210 C.3   164  GLN164      0.0394
     54  CG        13.1360   66.8080   25.4100 C.3   164  GLN164      0.0908
     55  CD        14.1180   67.2120   26.4960 C.2   164  GLN164      0.2608
     56  OE1       14.2190   66.5890   27.5840 O.2   164  GLN164     -0.2717
     57  NE2       14.8500   68.2840   26.2220 N.am  164  GLN164     -0.0878
     58  N         15.1500   59.5970   25.1460 N.3   167  LEU167     -0.1231
     59  CA        16.6040   59.6790   25.2980 C.3   167  LEU167      0.1693
     60  C         17.0120   60.6960   26.3420 C.2   167  LEU167      0.2593
     61  O         18.1370   60.6220   26.8490 O.2   167  LEU167     -0.2718
     62  CB        17.2610   60.0060   23.9450 C.3   167  LEU167      0.0284
     63  CG        17.0120   58.9970   22.8150 C.3   167  LEU167      0.0019
     64  CD1       17.4620   59.5520   21.4840 C.3   167  LEU167      0.0001
     65  CD2       17.7930   57.7410   23.1840 C.3   167  LEU167      0.0001
     66  N         16.1540   61.6570   26.6520 N.am  168  GLY168     -0.1942
     67  CA        16.4750   62.6820   27.6530 C.3   168  GLY168      0.2014
     68  C         15.7960   62.3640   28.9590 C.2   168  GLY168      0.2638
     69  O         15.5400   61.1890   29.2660 O.2   168  GLY168     -0.2714
     70  N         15.4960   63.4160   29.7160 N.am  169  HIS169     -0.1973
     71  CA        15.0650   63.2850   31.1230 C.3   169  HIS169      0.1656
     72  C         13.6400   63.7930   31.3680 C.2   169  HIS169      0.2291
     73  O         13.2820   64.1510   32.4870 O.2   169  HIS169     -0.2864
     74  CB        16.0470   63.9700   32.0970 C.3   169  HIS169      0.0771
     75  CG        17.3770   63.3100   32.1510 C.ar  169  HIS169      0.0820
     76  ND1       17.5980   62.1390   32.8480 N.ar  169  HIS169     -0.2267
     77  CD2       18.5720   63.6660   31.6240 C.ar  169  HIS169      0.1154
     78  CE1       18.8640   61.7900   32.7250 C.ar  169  HIS169      0.1986
     79  NE2       19.4810   62.7070   32.0000 N.ar  169  HIS169     -0.2212
@<TRIPOS>BOND
     1    20    18   ar
     2    18    19   ar
     3    18    17    1
     4    17    14    1
     5    12     9    1
     6    23    24    2
     7    23    22    1
     8    14    13    1
     9    14    15    1
    10    13    10   am
    11    16    15    2
    12     1     2    1
    13    15    21   am
    14    21    22    1
    15     8     9    1
    16     8     3   am
    17     9    10    1
    18    10    11    2
    19    22    25    1
    20     2     3    1
    21     2     5    1
    22    29    30    1
    23     3     4    2
    24    25    26    1
    25     7     5    1
    26     6     5    1
    27    30    33    1
    28    30    31    1
    29    33    34    1
    30    26    27    2
    31    26    28   am
    32    37    35   am
    33    47    46    1
    34    31    32    2
    35    42    43    1
    36    42    39    1
    37    38    39    1
    38    34    35    1
    39    44    43    1
    40    44    45    1
    41    46    48    1
    42    46    45    2
    43    64    63    1
    44    35    36    2
    45    39    40    1
    46    63    65    1
    47    63    62    1
    48    40    49   am
    49    40    41    2
    50    62    59    1
    51    49    50    1
    52    58    59    1
    53    59    60    1
    54    54    53    1
    55    54    55    1
    56    50    53    1
    57    50    51    1
    58    51    52    2
    59    57    55   am
    60    60    66   am
    61    60    61    2
    62    55    56    2
    63    66    67    1
    64    67    68    1
    65    68    69    2
    66    68    70   am
    67    70    71    1
    68    71    72    1
    69    71    74    1
    70    72    73    2
    71    77    79   ar
    72    77    75   ar
    73    79    78   ar
    74    74    75    1
    75    75    76   ar
    76    78    76   ar
