@<TRIPOS>MOLECULE
tmp/4de0A00.pdb
 114 107 0 0 0
SMALL
GASTEIGER

@<TRIPOS>ATOM
      1  N         -2.4040   58.3110   15.1820 N.3    44  SER44      -0.1217
      2  CA        -2.0000   57.4440   16.3040 C.3    44  SER44       0.1889
      3  C         -0.5670   57.6750   16.7940 C.2    44  SER44       0.2288
      4  O         -0.2090   57.1150   17.8390 O.2    44  SER44      -0.2866
      5  CB        -2.2020   55.9540   16.0270 C.3    44  SER44       0.2089
      6  OG        -3.5700   55.6650   15.9330 O.3    44  SER44      -0.2183
      7  N         -0.4220   58.5340   20.4310 N.3    47  LYS47      -0.1245
      8  CA        -0.4860   57.5260   21.4990 C.3    47  LYS47       0.1561
      9  C          0.7790   57.5120   22.3040 C.2    47  LYS47       0.2260
     10  O          0.7470   57.1990   23.5010 O.2    47  LYS47      -0.2867
     11  CB        -0.8380   56.1510   20.9020 C.3    47  LYS47       0.0271
     12  CG        -2.2640   56.0930   20.3420 C.3    47  LYS47       0.0035
     13  CD        -2.5580   54.8390   19.5420 C.3    47  LYS47       0.0206
     14  CE        -4.0690   54.7520   19.1890 C.3    47  LYS47       0.1093
     15  NZ        -4.3100   54.1650   17.8380 N.3    47  LYS47      -0.1314
     16  N        -13.6120   51.8480   16.8430 N.3    78  ASN78      -0.1225
     17  CA       -13.4790   51.3280   15.4930 C.3    78  ASN78       0.1785
     18  C        -12.3250   50.3490   15.2810 C.2    78  ASN78       0.2597
     19  O        -12.2570   49.7430   14.2460 O.2    78  ASN78      -0.2718
     20  CB       -13.3430   52.4640   14.4920 C.3    78  ASN78       0.1169
     21  CG       -12.1300   53.3410   14.7540 C.2    78  ASN78       0.2627
     22  OD1      -11.6730   53.4710   15.8810 O.2    78  ASN78      -0.2716
     23  ND2      -11.6360   53.9930   13.7180 N.am   78  ASN78      -0.0877
     24  N        -11.3790   50.2720   16.2100 N.am   79  TYR79      -0.1976
     25  CA       -10.2100   49.4150   16.0450 C.3    79  TYR79       0.1639
     26  C         -9.6990   49.0410   17.4220 C.2    79  TYR79       0.2290
     27  O         -9.0910   49.8650   18.1020 O.2    79  TYR79      -0.2864
     28  CB        -9.1150   50.1100   15.2280 C.3    79  TYR79       0.0560
     29  CG        -7.9930   49.1670   14.8970 C.ar   79  TYR79      -0.0198
     30  CD1       -6.7910   49.1960   15.6060 C.ar   79  TYR79      -0.0009
     31  CD2       -8.1370   48.2370   13.8850 C.ar   79  TYR79      -0.0009
     32  CE1       -5.7510   48.3290   15.2660 C.ar   79  TYR79       0.0417
     33  CE2       -7.1230   47.3650   13.5780 C.ar   79  TYR79       0.0417
     34  CZ        -5.9340   47.4140   14.2590 C.ar   79  TYR79       0.1957
     35  OH        -4.9080   46.5640   13.9400 O.3    79  TYR79      -0.2866
     36  N         -1.7990   49.6040   18.4760 N.3   104  SER104     -0.1217
     37  CA        -2.5330   50.7870   17.9920 C.3   104  SER104      0.1889
     38  C         -4.0350   50.6830   18.3100 C.2   104  SER104      0.2288
     39  O         -4.8780   51.1700   17.5550 O.2   104  SER104     -0.2866
     40  CB        -2.2220   51.0940   16.5490 C.3   104  SER104      0.2089
     41  OG        -2.2000   52.5090   16.3550 O.3   104  SER104     -0.2183
     42  N         -7.4530   51.6230   19.6500 N.3   106  ASN106     -0.1240
     43  CA        -8.0840   52.9290   19.9000 C.3   106  ASN106      0.1653
     44  C         -8.8900   52.9950   21.1860 C.2   106  ASN106      0.2266
     45  O         -8.9690   54.0550   21.8010 O.2   106  ASN106     -0.2867
     46  CB        -8.9730   53.2870   18.7260 C.3   106  ASN106      0.1155
     47  CG        -8.2730   54.0390   17.6370 C.2   106  ASN106      0.2627
     48  OD1       -7.1140   54.3870   17.7710 O.2   106  ASN106     -0.2716
     49  ND2       -9.0110   54.3320   16.5550 N.am  106  ASN106     -0.0877
     50  N        -12.4550   57.8570   17.7440 N.3   141  PRO141     -0.2102
     51  CA       -11.6460   57.8490   16.5460 C.3   141  PRO141      0.1504
     52  C        -11.5640   59.2100   15.8500 C.2   141  PRO141      0.2576
     53  O        -10.8740   59.3210   14.8290 O.2   141  PRO141     -0.2718
     54  CB       -12.4250   56.8880   15.6310 C.3   141  PRO141      0.0282
     55  CG       -13.8450   57.1550   16.0040 C.3   141  PRO141      0.0208
     56  CD       -13.8250   57.3900   17.4800 C.3   141  PRO141      0.0893
     57  N        -12.2820   60.2330   16.3320 N.am  142  THR142     -0.1953
     58  CA       -12.3690   61.4590   15.5450 C.3   142  THR142      0.1897
     59  C        -11.0850   62.2620   15.4870 C.2   142  THR142      0.2313
     60  O        -10.9280   63.1030   14.6020 O.2   142  THR142     -0.2863
     61  CB       -13.5140   62.3680   16.0080 C.3   142  THR142      0.1794
     62  OG1      -13.2960   62.8460   17.3420 O.3   142  THR142     -0.2208
     63  CG2      -14.8760   61.6960   15.8890 C.3   142  THR142      0.0378
     64  N         -8.5320   61.4080   14.1720 N.3   144  ASN144     -0.1225
     65  CA        -7.9110   61.0490   12.9030 C.3   144  ASN144      0.1785
     66  C         -8.5800   61.6420   11.6640 C.2   144  ASN144      0.2597
     67  O         -8.2680   61.2090   10.5610 O.2   144  ASN144     -0.2718
     68  CB        -7.8400   59.5290   12.7440 C.3   144  ASN144      0.1169
     69  CG        -7.2260   58.8670   13.9520 C.2   144  ASN144      0.2627
     70  OD1       -6.0240   58.9930   14.1900 O.2   144  ASN144     -0.2716
     71  ND2       -8.0450   58.1830   14.7470 N.am  144  ASN144     -0.0877
     72  N         -9.4770   62.6160   11.8220 N.am  145  THR145     -0.1953
     73  CA       -10.1260   63.1740   10.6480 C.3   145  THR145      0.1897
     74  C         -9.1590   63.8430    9.6880 C.2   145  THR145      0.2313
     75  O         -9.3900   63.8310    8.4720 O.2   145  THR145     -0.2863
     76  CB       -11.2790   64.1230   10.9960 C.3   145  THR145      0.1794
     77  OG1      -10.8180   65.1270   11.9210 O.3   145  THR145     -0.2208
     78  CG2      -12.4500   63.4050   11.6260 C.3   145  THR145      0.0378
     79  N          3.3740   47.2040   14.2520 N.3   190  THR190     -0.1218
     80  CA         2.7710   47.7970   13.0600 C.3   190  THR190      0.1862
     81  C          3.7410   48.5480   12.1430 C.2   190  THR190      0.2287
     82  O          3.2880   49.1490   11.1780 O.2   190  THR190     -0.2866
     83  CB         1.6740   48.8080   13.4470 C.3   190  THR190      0.1770
     84  OG1        2.3000   49.9220   14.0990 O.3   190  THR190     -0.2211
     85  CG2        0.6190   48.2430   14.3460 C.3   190  THR190      0.0375
     86  N          3.3530   54.1260   14.5700 N.3   209  THR209     -0.1203
     87  CA         2.7240   54.5440   13.3310 C.3   209  THR209      0.1994
     88  C          1.4450   55.3360   13.6230 C.2   209  THR209      0.2618
     89  O          0.8730   55.2650   14.7340 O.2   209  THR209     -0.2717
     90  CB         2.3580   53.3010   12.4800 C.3   209  THR209      0.1784
     91  OG1        1.6130   52.3970   13.3240 O.3   209  THR209     -0.2211
     92  CG2        3.6270   52.5630   11.9970 C.3   209  THR209      0.0376
     93  N          0.9120   55.9520   12.5730 N.am  210  GLY210     -0.1942
     94  CA        -0.4370   56.4950   12.6120 C.3   210  GLY210      0.2014
     95  C         -0.9760   56.6260   11.2070 C.2   210  GLY210      0.2640
     96  O         -0.2220   56.7220   10.2360 O.2   210  GLY210     -0.2714
     97  N         -2.2930   56.6220   11.0920 N.am  211  SER211     -0.1935
     98  CA        -2.9530   56.8620    9.8140 C.3   211  SER211      0.2055
     99  C         -4.3440   57.4300   10.0530 C.2   211  SER211      0.2644
    100  O         -4.9180   57.2850   11.1320 O.2   211  SER211     -0.2714
    101  CB        -2.9990   55.6150    8.9230 C.3   211  SER211      0.2130
    102  OG        -3.8480   54.6350    9.4740 O.3   211  SER211     -0.2179
    103  N         -4.8970   58.0640    9.0290 N.am  212  GLY212     -0.1939
    104  CA        -6.1980   58.6970    9.1540 C.3   212  GLY212      0.2014
    105  C         -6.7460   59.0370    7.7820 C.2   212  GLY212      0.2638
    106  O         -6.2980   58.5230    6.7730 O.2   212  GLY212     -0.2714
    107  N         -7.7990   59.8790    7.7920 N.am  213  ASP213     -0.1971
    108  CA        -8.3330   60.2930    6.5190 C.3   213  ASP213      0.1709
    109  C         -7.2970   61.1600    5.7850 C.2   213  ASP213      0.2293
    110  O         -6.2090   61.4400    6.3050 O.2   213  ASP213     -0.2864
    111  CB        -9.6440   61.0450    6.7270 C.3   213  ASP213      0.1436
    112  CG       -10.8650   60.1500    6.8730 C.2   213  ASP213      0.3671
    113  OD1      -10.8170   58.9520    6.5970 O.co2 213  ASP213     -0.2456
    114  OD2      -11.9190   60.6920    7.2160 O.co2 213  ASP213     -0.2456
@<TRIPOS>BOND
     1   109   110    2
     2   109   108    1
     3   108   111    1
     4   108   107    1
     5   113   112   ar
     6   111   112    1
     7   106   105    2
     8   112   114   ar
     9   105   107   am
    10   105   104    1
    11    75    74    2
    12   101   102    1
    13   101    98    1
    14   103   104    1
    15   103    99   am
    16    74    73    1
    17    98    99    1
    18    98    97    1
    19    99   100    2
    20    96    95    2
    21    67    66    2
    22    73    76    1
    23    73    72    1
    24    76    78    1
    25    76    77    1
    26    97    95   am
    27    82    81    2
    28    95    94    1
    29    66    72   am
    30    66    65    1
    31    92    90    1
    32    81    80    1
    33    90    91    1
    34    90    87    1
    35    93    94    1
    36    93    88   am
    37    68    65    1
    38    68    69    1
    39    65    64    1
    40    80    83    1
    41    80    79    1
    42    87    88    1
    43    87    86    1
    44    83    84    1
    45    83    85    1
    46    33    31   ar
    47    33    34   ar
    48    88    89    2
    49    23    21   am
    50    31    29   ar
    51    35    34    1
    52    69    70    2
    53    69    71   am
    54    19    18    2
    55    34    32   ar
    56    20    21    1
    57    20    17    1
    58    60    59    2
    59    21    22    2
    60    53    52    2
    61    29    28    1
    62    29    30   ar
    63     1     2    1
    64    28    25    1
    65    32    30   ar
    66    18    17    1
    67    18    24   am
    68    59    58    1
    69    17    16    1
    70    58    61    1
    71    58    57    1
    72    54    55    1
    73    54    51    1
    74    52    57   am
    75    52    51    1
    76    63    61    1
    77     6     5    1
    78    55    56    1
    79    61    62    1
    80     5     2    1
    81    25    24    1
    82    25    26    1
    83     2     3    1
    84    41    40    1
    85    51    50    1
    86    40    37    1
    87    49    47   am
    88     3     4    2
    89    26    27    2
    90    56    50    1
    91    39    38    2
    92    47    48    2
    93    47    46    1
    94    15    14    1
    95    37    38    1
    96    37    36    1
    97    46    43    1
    98    14    13    1
    99    13    12    1
   100    42    43    1
   101    43    44    1
   102    12    11    1
   103     7     8    1
   104    11     8    1
   105    44    45    2
   106     8     9    1
   107     9    10    2
