@<TRIPOS>MOLECULE
tmp/4de1B01.pdb
 90 84 0 0 0
SMALL
GASTEIGER

@<TRIPOS>ATOM
      1  N         20.2340   90.2930  -12.9220 N.3    77  ASN77      -0.1225
      2  CA        20.2970   91.4430  -12.0350 C.3    77  ASN77       0.1785
      3  C         21.4780   92.3720  -12.3000 C.2    77  ASN77       0.2597
      4  O         21.5830   93.3990  -11.6270 O.2    77  ASN77      -0.2718
      5  CB        20.3610   91.0020  -10.5600 C.3    77  ASN77       0.1169
      6  CG        21.5910   90.1450  -10.2720 C.2    77  ASN77       0.2627
      7  OD1       22.0520   89.3850  -11.1400 O.2    77  ASN77      -0.2716
      8  ND2       22.1260   90.2520   -9.0680 N.am   77  ASN77      -0.0877
      9  N         22.4310   91.9900  -13.1460 N.am   78  TYR78      -0.1976
     10  CA        23.6010   92.8370  -13.4130 C.3    78  TYR78       0.1639
     11  C         24.1310   92.4350  -14.7920 C.2    78  TYR78       0.2290
     12  O         24.7890   91.4160  -14.9520 O.2    78  TYR78      -0.2864
     13  CB        24.6900   92.6470  -12.3550 C.3    78  TYR78       0.0560
     14  CG        25.8240   93.6180  -12.5140 C.ar   78  TYR78      -0.0198
     15  CD1       27.0600   93.2010  -12.9850 C.ar   78  TYR78      -0.0009
     16  CD2       25.6340   94.9630  -12.2420 C.ar   78  TYR78      -0.0009
     17  CE1       28.0890   94.0800  -13.1690 C.ar   78  TYR78       0.0417
     18  CE2       26.6520   95.8640  -12.4330 C.ar   78  TYR78       0.0417
     19  CZ        27.8890   95.4200  -12.8630 C.ar   78  TYR78       0.1957
     20  OH        28.8940   96.3320  -13.0030 O.3    78  TYR78      -0.2866
     21  N         33.7730   92.4080  -16.9280 N.3   102  TYR102     -0.1227
     22  CA        32.7080   93.2840  -16.4320 C.3   102  TYR102      0.1736
     23  C         31.8540   92.5880  -15.3730 C.2   102  TYR102      0.2596
     24  O         30.9900   93.2260  -14.7650 O.2   102  TYR102     -0.2718
     25  CB        31.8340   93.7480  -17.6090 C.3   102  TYR102      0.0548
     26  CG        32.5890   94.6550  -18.5460 C.ar  102  TYR102     -0.0200
     27  CD1       33.3500   94.1310  -19.5770 C.ar  102  TYR102     -0.0009
     28  CD2       32.6130   96.0330  -18.3400 C.ar  102  TYR102     -0.0009
     29  CE1       34.0940   94.9540  -20.4100 C.ar  102  TYR102      0.0417
     30  CE2       33.3540   96.8590  -19.1670 C.ar  102  TYR102      0.0417
     31  CZ        34.0720   96.3130  -20.2040 C.ar  102  TYR102      0.1957
     32  OH        34.8000   97.1250  -21.0260 O.3   102  TYR102     -0.2866
     33  N         32.0900   91.3040  -15.1180 N.am  103  SER103     -0.1952
     34  CA        31.3140   90.5950  -14.1240 C.3   103  SER103      0.1924
     35  C         29.8160   90.5170  -14.4780 C.2   103  SER103      0.2314
     36  O         28.9360   90.4940  -13.6230 O.2   103  SER103     -0.2863
     37  CB        31.5650   91.1100  -12.6980 C.3   103  SER103      0.2116
     38  OG        31.5570   89.9490  -11.8560 O.3   103  SER103     -0.2180
     39  N         21.1190   84.7490  -10.4910 N.3   140  PRO140     -0.2116
     40  CA        21.8860   85.3950   -9.4240 C.3   140  PRO140      0.1372
     41  C         22.0030   84.5680   -8.1410 C.2   140  PRO140      0.2244
     42  O         22.6600   85.0310   -7.2120 O.2   140  PRO140     -0.2868
     43  CB        21.0490   86.6500   -9.1280 C.3   140  PRO140      0.0268
     44  CG        19.6170   86.2050   -9.3970 C.3   140  PRO140      0.0207
     45  CD        19.7200   85.2220  -10.5480 C.3   140  PRO140      0.0892
     46  N         37.2040   95.4570  -12.8350 N.3   189  THR189     -0.1218
     47  CA        36.5650   95.5730  -11.5150 C.3   189  THR189      0.1862
     48  C         37.5160   95.4820  -10.3000 C.2   189  THR189      0.2287
     49  O         37.0370   95.4450   -9.1580 O.2   189  THR189     -0.2866
     50  CB        35.4730   94.5140  -11.3200 C.3   189  THR189      0.1770
     51  OG1       36.0960   93.2250  -11.2230 O.3   189  THR189     -0.2211
     52  CG2       34.4870   94.5040  -12.4630 C.3   189  THR189      0.0375
     53  N         37.0890   89.4500   -9.3840 N.3   208  THR208     -0.1218
     54  CA        36.4110   89.7670   -8.1340 C.3   208  THR208      0.1862
     55  C         35.1320   88.9560   -7.9790 C.2   208  THR208      0.2287
     56  O         34.5850   88.3880   -8.9310 O.2   208  THR208     -0.2866
     57  CB        36.0630   91.2650   -8.0810 C.3   208  THR208      0.1770
     58  OG1       35.2940   91.6090   -9.2390 O.3   208  THR208     -0.2211
     59  CG2       37.3510   92.1200   -8.0460 C.3   208  THR208      0.0375
     60  N         31.3440   89.1640   -5.1590 N.3   210  SER210     -0.1217
     61  CA        30.6860   89.6160   -3.9600 C.3   210  SER210      0.1889
     62  C         29.3020   89.0500   -3.8600 C.2   210  SER210      0.2288
     63  O         28.7210   88.6190   -4.8610 O.2   210  SER210     -0.2866
     64  CB        30.6900   91.1370   -3.8670 C.3   210  SER210      0.2089
     65  OG        29.8340   91.7520   -4.7980 O.3   210  SER210     -0.2183
     66  N         25.7640   88.2630   -0.7200 N.3   212  ASP212     -0.1239
     67  CA        25.2200   88.5980    0.5950 C.3   212  ASP212      0.1674
     68  C         26.2130   88.2310    1.7010 C.2   212  ASP212      0.2266
     69  O         27.2750   87.6790    1.4440 O.2   212  ASP212     -0.2867
     70  CB        23.8920   87.8660    0.8060 C.3   212  ASP212      0.1410
     71  CG        22.7300   88.5210    0.0920 C.2   212  ASP212      0.3668
     72  OD1       22.8500   89.6970   -0.3210 O.co2 212  ASP212     -0.2456
     73  OD2       21.6920   87.8370   -0.0580 O.co2 212  ASP212     -0.2456
     74  N         30.1840   95.6140    1.5850 N.3   245  SER245     -0.1217
     75  CA        31.3910   95.0750    0.9780 C.3   245  SER245      0.1889
     76  C         32.6490   95.6280    1.6560 C.2   245  SER245      0.2288
     77  O         32.6690   96.7660    2.1160 O.2   245  SER245     -0.2866
     78  CB        31.4160   95.3860   -0.5240 C.3   245  SER245      0.2089
     79  OG        30.4470   94.6110   -1.2010 O.3   245  SER245     -0.2183
     80  N         36.2250   95.5020    0.3120 N.3   247  ARG247     -0.1245
     81  CA        37.3600   95.2860   -0.5580 C.3   247  ARG247      0.1563
     82  C         38.6730   95.6860    0.0620 C.2   247  ARG247      0.2260
     83  O         39.7190   95.0980   -0.2280 O.2   247  ARG247     -0.2867
     84  CB        37.1490   96.0010   -1.8950 C.3   247  ARG247      0.0307
     85  CG        35.9900   95.3610   -2.7040 C.3   247  ARG247      0.0489
     86  CD        35.7040   96.0530   -4.0250 C.3   247  ARG247      0.2205
     87  NE        35.2720   97.4270   -3.8120 N.pl3 247  ARG247     -0.0865
     88  CZ        34.8960   98.2110   -4.8150 C.cat 247  ARG247      0.5346
     89  NH1       34.9150   97.7660   -6.0630 N.pl3 247  ARG247      0.1354
     90  NH2       34.5620   99.4590   -4.5790 N.pl3 247  ARG247      0.1354
@<TRIPOS>BOND
     1    32    31    1
     2    29    31   ar
     3    29    27   ar
     4    31    30   ar
     5    27    26   ar
     6    30    28   ar
     7    26    28   ar
     8    26    25    1
     9    25    22    1
    10    21    22    1
    11    22    23    1
    12    23    33   am
    13    23    24    2
    14    33    34    1
    15    12    11    2
    16    11    10    1
    17    35    34    1
    18    35    36    2
    19    34    37    1
    20    10     9    1
    21    10    13    1
    22    17    15   ar
    23    17    19   ar
    24     9     3   am
    25    20    19    1
    26    15    14   ar
    27     1     2    1
    28    19    18   ar
    29    46    47    1
    30    37    38    1
    31    14    13    1
    32    14    16   ar
    33    52    50    1
    34    18    16   ar
    35     3     2    1
    36     3     4    2
    37     2     5    1
    38    47    50    1
    39    47    48    1
    40    50    51    1
    41     7     6    2
    42     5     6    1
    43    45    39    1
    44    45    44    1
    45    39    40    1
    46    48    49    2
    47     6     8   am
    48    40    43    1
    49    40    41    1
    50    44    43    1
    51    53    54    1
    52    58    57    1
    53    56    55    2
    54    41    42    2
    55    54    57    1
    56    54    55    1
    57    57    59    1
    58    89    88    1
    59    60    61    1
    60    63    62    2
    61    88    90    1
    62    88    87    2
    63    65    64    1
    64    86    87    1
    65    86    85    1
    66    61    64    1
    67    61    62    1
    68    85    84    1
    69    84    81    1
    70    79    78    1
    71    66    67    1
    72    81    82    1
    73    81    80    1
    74    78    75    1
    75    72    71   ar
    76    83    82    2
    77    73    71   ar
    78    71    70    1
    79    67    70    1
    80    67    68    1
    81    75    74    1
    82    75    76    1
    83    69    68    2
    84    76    77    2
