@<TRIPOS>MOLECULE
tmp/4de1A00.pdb
 114 107 0 0 0
SMALL
GASTEIGER

@<TRIPOS>ATOM
      1  N         -2.4900   58.4000   15.2160 N.3    44  SER44      -0.1217
      2  CA        -2.1050   57.5560   16.3480 C.3    44  SER44       0.1889
      3  C         -0.6800   57.7790   16.8240 C.2    44  SER44       0.2288
      4  O         -0.2930   57.2120   17.8590 O.2    44  SER44      -0.2866
      5  CB        -2.2870   56.0710   16.0410 C.3    44  SER44       0.2089
      6  OG        -3.6560   55.7550   15.9680 O.3    44  SER44      -0.2183
      7  N         -0.5460   58.6400   20.4520 N.3    47  LYS47      -0.1245
      8  CA        -0.6110   57.6470   21.5270 C.3    47  LYS47       0.1561
      9  C          0.6610   57.6310   22.3650 C.2    47  LYS47       0.2260
     10  O          0.6160   57.2650   23.5450 O.2    47  LYS47      -0.2867
     11  CB        -0.9540   56.2580   20.9440 C.3    47  LYS47       0.0271
     12  CG        -2.3660   56.1830   20.3710 C.3    47  LYS47       0.0035
     13  CD        -2.7160   54.8880   19.5780 C.3    47  LYS47       0.0206
     14  CE        -4.1990   54.8500   19.1540 C.3    47  LYS47       0.1093
     15  NZ        -4.4370   54.2220   17.8170 N.3    47  LYS47      -0.1314
     16  N        -13.6850   51.8800   16.8490 N.3    78  ASN78      -0.1225
     17  CA       -13.5350   51.3440   15.5130 C.3    78  ASN78       0.1785
     18  C        -12.3840   50.3770   15.2980 C.2    78  ASN78       0.2597
     19  O        -12.3140   49.7670   14.2560 O.2    78  ASN78      -0.2718
     20  CB       -13.4040   52.4780   14.5000 C.3    78  ASN78       0.1169
     21  CG       -12.2190   53.3840   14.7790 C.2    78  ASN78       0.2627
     22  OD1      -11.8140   53.5400   15.9210 O.2    78  ASN78      -0.2716
     23  ND2      -11.6460   53.9810   13.7340 N.am   78  ASN78      -0.0877
     24  N        -11.4550   50.2850   16.2340 N.am   79  TYR79      -0.1976
     25  CA       -10.2850   49.4250   16.0580 C.3    79  TYR79       0.1639
     26  C         -9.7740   49.0780   17.4440 C.2    79  TYR79       0.2290
     27  O         -9.1630   49.9130   18.1150 O.2    79  TYR79      -0.2864
     28  CB        -9.1780   50.1320   15.2310 C.3    79  TYR79       0.0560
     29  CG        -8.0670   49.1800   14.8820 C.ar   79  TYR79      -0.0198
     30  CD1       -6.8670   49.1950   15.5890 C.ar   79  TYR79      -0.0009
     31  CD2       -8.2440   48.2260   13.8840 C.ar   79  TYR79      -0.0009
     32  CE1       -5.8510   48.3260   15.3010 C.ar   79  TYR79       0.0417
     33  CE2       -7.2540   47.3150   13.6140 C.ar   79  TYR79       0.0417
     34  CZ        -6.0450   47.3800   14.3080 C.ar   79  TYR79       0.1957
     35  OH        -5.0390   46.4920   13.9920 O.3    79  TYR79      -0.2866
     36  N         -1.8820   49.6850   18.4720 N.3   104  SER104     -0.1217
     37  CA        -2.6250   50.8470   17.9890 C.3   104  SER104      0.1889
     38  C         -4.1180   50.7420   18.3140 C.2   104  SER104      0.2288
     39  O         -4.9570   51.2290   17.5570 O.2   104  SER104     -0.2866
     40  CB        -2.3380   51.1460   16.5150 C.3   104  SER104      0.2089
     41  OG        -2.3190   52.5470   16.3270 O.3   104  SER104     -0.2183
     42  N         -7.5550   51.6980   19.6790 N.3   106  ASN106     -0.1240
     43  CA        -8.1760   53.0110   19.9010 C.3   106  ASN106      0.1653
     44  C         -8.9790   53.0630   21.1990 C.2   106  ASN106      0.2266
     45  O         -9.0710   54.1160   21.8060 O.2   106  ASN106     -0.2867
     46  CB        -9.0990   53.3740   18.7570 C.3   106  ASN106      0.1155
     47  CG        -8.3930   54.0820   17.6270 C.2   106  ASN106      0.2627
     48  OD1       -7.2350   54.4500   17.7600 O.2   106  ASN106     -0.2716
     49  ND2       -9.1060   54.2960   16.5170 N.am  106  ASN106     -0.0877
     50  N        -12.6640   57.8850   17.8100 N.3   141  PRO141     -0.2102
     51  CA       -11.8790   57.8710   16.5750 C.3   141  PRO141      0.1504
     52  C        -11.7500   59.2410   15.8990 C.2   141  PRO141      0.2576
     53  O        -11.0550   59.3300   14.8670 O.2   141  PRO141     -0.2718
     54  CB       -12.7040   56.9340   15.6870 C.3   141  PRO141      0.0282
     55  CG       -14.1560   57.2250   16.1150 C.3   141  PRO141      0.0208
     56  CD       -14.0460   57.4030   17.5980 C.3   141  PRO141      0.0893
     57  N        -12.4200   60.2720   16.4040 N.am  142  THR142     -0.1953
     58  CA       -12.5130   61.4990   15.6170 C.3   142  THR142      0.1897
     59  C        -11.2190   62.2950   15.5330 C.2   142  THR142      0.2313
     60  O        -11.0750   63.1100   14.6320 O.2   142  THR142     -0.2863
     61  CB       -13.6660   62.4250   16.0570 C.3   142  THR142      0.1794
     62  OG1      -13.4520   62.8900   17.3940 O.3   142  THR142     -0.2208
     63  CG2      -15.0150   61.7380   15.9360 C.3   142  THR142      0.0378
     64  N         -8.6790   61.4410   14.2070 N.3   144  ASN144     -0.1225
     65  CA        -8.0320   61.0740   12.9290 C.3   144  ASN144      0.1785
     66  C         -8.7040   61.6580   11.6880 C.2   144  ASN144      0.2597
     67  O         -8.3920   61.2100   10.5760 O.2   144  ASN144     -0.2718
     68  CB        -7.9760   59.5520   12.7840 C.3   144  ASN144      0.1169
     69  CG        -7.3680   58.9110   13.9910 C.2   144  ASN144      0.2627
     70  OD1       -6.1650   59.0270   14.2090 O.2   144  ASN144     -0.2716
     71  ND2       -8.1920   58.2650   14.8080 N.am  144  ASN144     -0.0877
     72  N         -9.5980   62.6300   11.8460 N.am  145  THR145     -0.1953
     73  CA       -10.2620   63.1650   10.6460 C.3   145  THR145      0.1897
     74  C         -9.2880   63.8330    9.6670 C.2   145  THR145      0.2313
     75  O         -9.5150   63.8040    8.4430 O.2   145  THR145     -0.2863
     76  CB       -11.4080   64.1580   11.0000 C.3   145  THR145      0.1794
     77  OG1      -10.9290   65.1470   11.9250 O.3   145  THR145     -0.2208
     78  CG2      -12.5740   63.4520   11.6370 C.3   145  THR145      0.0378
     79  N          3.3200   47.2890   14.2810 N.3   190  THR190     -0.1218
     80  CA         2.7000   47.8900   13.1090 C.3   190  THR190      0.1862
     81  C          3.6730   48.6170   12.1780 C.2   190  THR190      0.2287
     82  O          3.2150   49.2560   11.2270 O.2   190  THR190     -0.2866
     83  CB         1.5970   48.8970   13.4960 C.3   190  THR190      0.1770
     84  OG1        2.2270   50.0240   14.1040 O.3   190  THR190     -0.2211
     85  CG2        0.5720   48.2960   14.4190 C.3   190  THR190      0.0375
     86  N          3.2730   54.2120   14.5940 N.3   209  THR209     -0.1203
     87  CA         2.6110   54.6290   13.3460 C.3   209  THR209      0.1994
     88  C          1.3250   55.3940   13.6200 C.2   209  THR209      0.2618
     89  O          0.7540   55.3620   14.7300 O.2   209  THR209     -0.2717
     90  CB         2.2790   53.3830   12.5020 C.3   209  THR209      0.1784
     91  OG1        1.4960   52.4960   13.3060 O.3   209  THR209     -0.2211
     92  CG2        3.5520   52.6230   12.0520 C.3   209  THR209      0.0376
     93  N          0.8280   56.0610   12.5830 N.am  210  GLY210     -0.1942
     94  CA        -0.5250   56.5730   12.6080 C.3   210  GLY210      0.2014
     95  C         -1.0600   56.7090   11.1980 C.2   210  GLY210      0.2640
     96  O         -0.2760   56.7920   10.2400 O.2   210  GLY210     -0.2714
     97  N         -2.3750   56.7530   11.0730 N.am  211  SER211     -0.1935
     98  CA        -3.0010   57.0130    9.8020 C.3   211  SER211      0.2055
     99  C         -4.4130   57.5440   10.0380 C.2   211  SER211      0.2644
    100  O         -5.0050   57.3980   11.1280 O.2   211  SER211     -0.2714
    101  CB        -3.0070   55.7550    8.9030 C.3   211  SER211      0.2130
    102  OG        -3.8970   54.7740    9.4010 O.3   211  SER211     -0.2179
    103  N         -4.9710   58.1530    9.0010 N.am  212  GLY212     -0.1939
    104  CA        -6.2810   58.7370    9.1270 C.3   212  GLY212      0.2014
    105  C         -6.8440   59.0690    7.7620 C.2   212  GLY212      0.2638
    106  O         -6.3340   58.6260    6.7010 O.2   212  GLY212     -0.2714
    107  N         -7.8950   59.9020    7.7220 N.am  213  ASP213     -0.1971
    108  CA        -8.4190   60.3230    6.4400 C.3   213  ASP213      0.1709
    109  C         -7.3950   61.2140    5.7210 C.2   213  ASP213      0.2293
    110  O         -6.3250   61.5220    6.2400 O.2   213  ASP213     -0.2864
    111  CB        -9.7410   61.0480    6.6180 C.3   213  ASP213      0.1436
    112  CG       -10.9180   60.1070    6.8660 C.2   213  ASP213      0.3671
    113  OD1      -10.7920   58.9070    6.6370 O.co2 213  ASP213     -0.2456
    114  OD2      -11.9530   60.6200    7.3170 O.co2 213  ASP213     -0.2456
@<TRIPOS>BOND
     1   109   110    2
     2   109   108    1
     3   108   111    1
     4   108   107    1
     5   111   112    1
     6   113   112   ar
     7   106   105    2
     8   112   114   ar
     9   107   105   am
    10   105   104    1
    11    75    74    2
    12   101   102    1
    13   101    98    1
    14   103   104    1
    15   103    99   am
    16    74    73    1
    17    98    99    1
    18    98    97    1
    19    99   100    2
    20    96    95    2
    21    67    66    2
    22    73    76    1
    23    73    72    1
    24    76    78    1
    25    76    77    1
    26    97    95   am
    27    95    94    1
    28    82    81    2
    29    66    72   am
    30    66    65    1
    31    92    90    1
    32    81    80    1
    33    90    91    1
    34    90    87    1
    35    93    94    1
    36    93    88   am
    37    68    65    1
    38    68    69    1
    39    65    64    1
    40    80    83    1
    41    80    79    1
    42    87    88    1
    43    87    86    1
    44    83    84    1
    45    83    85    1
    46    33    31   ar
    47    33    34   ar
    48    88    89    2
    49    23    21   am
    50    31    29   ar
    51    69    70    2
    52    69    71   am
    53    35    34    1
    54    19    18    2
    55    34    32   ar
    56    20    21    1
    57    20    17    1
    58    60    59    2
    59    21    22    2
    60    53    52    2
    61    29    28    1
    62    29    30   ar
    63     1     2    1
    64    28    25    1
    65    18    17    1
    66    18    24   am
    67    32    30   ar
    68    17    16    1
    69    59    58    1
    70    58    61    1
    71    58    57    1
    72    54    55    1
    73    54    51    1
    74    52    57   am
    75    52    51    1
    76    63    61    1
    77     6     5    1
    78     5     2    1
    79    61    62    1
    80    25    24    1
    81    25    26    1
    82    55    56    1
    83    41    40    1
    84     2     3    1
    85    40    37    1
    86    49    47   am
    87    51    50    1
    88     3     4    2
    89    26    27    2
    90    39    38    2
    91    56    50    1
    92    47    48    2
    93    47    46    1
    94    15    14    1
    95    37    38    1
    96    37    36    1
    97    46    43    1
    98    14    13    1
    99    13    12    1
   100    42    43    1
   101    43    44    1
   102    12    11    1
   103     7     8    1
   104    11     8    1
   105    44    45    2
   106     8     9    1
   107     9    10    2
