@<TRIPOS>MOLECULE
tmp/4de2A01.pdb
 93 87 0 0 0
SMALL
GASTEIGER

@<TRIPOS>ATOM
      1  N          2.7170   60.4690   29.2510 N.3    51  ALA51      -0.1245
      2  CA         2.0850   61.2420   30.3190 C.3    51  ALA51       0.1562
      3  C          1.6830   60.3280   31.4720 C.2    51  ALA51       0.2260
      4  O          1.8710   60.6710   32.6540 O.2    51  ALA51      -0.2867
      5  CB         0.8550   61.9950   29.7660 C.3    51  ALA51       0.0290
      6  N          4.7600   59.3490   33.2750 N.3    54  LYS54      -0.1231
      7  CA         5.1790   60.4260   34.1940 C.3    54  LYS54       0.1693
      8  C          4.3630   60.3720   35.4920 C.2    54  LYS54       0.2591
      9  O          4.9150   60.4720   36.5910 O.2    54  LYS54      -0.2718
     10  CB         5.0470   61.7930   33.5100 C.3    54  LYS54       0.0285
     11  CG         5.3410   63.0100   34.4070 C.3    54  LYS54       0.0035
     12  CD         6.6820   62.9520   35.1280 C.3    54  LYS54       0.0206
     13  CE         7.8460   63.1280   34.1630 C.3    54  LYS54       0.1093
     14  NZ         9.1660   63.2130   34.8740 N.3    54  LYS54      -0.1314
     15  N          3.0670   60.1130   35.3820 N.am   55  GLN55      -0.1979
     16  CA         2.2070   59.9630   36.5500 C.3    55  GLN55       0.1601
     17  C          2.7080   58.8290   37.4270 C.2    55  GLN55       0.2287
     18  O          2.6080   58.8930   38.6500 O.2    55  GLN55      -0.2864
     19  CB         0.7620   59.6550   36.1290 C.3    55  GLN55       0.0394
     20  CG        -0.0380   60.8320   35.6110 C.3    55  GLN55       0.0908
     21  CD        -1.4310   60.4100   35.1860 C.2    55  GLN55       0.2608
     22  OE1       -1.6230   59.3070   34.6500 O.2    55  GLN55      -0.2717
     23  NE2       -2.3950   61.3160   35.3270 N.am   55  GLN55      -0.0878
     24  N          5.5670   57.8750   38.0570 N.3    57  GLU57      -0.1231
     25  CA         6.7490   58.2040   38.8550 C.3    57  GLU57       0.1699
     26  C          6.3680   58.5630   40.2730 C.2    57  GLU57       0.2592
     27  O          7.2040   58.4750   41.1650 O.2    57  GLU57      -0.2718
     28  CB         7.5370   59.3540   38.2390 C.3    57  GLU57       0.0402
     29  CG         8.1660   58.9880   36.9090 C.3    57  GLU57       0.1161
     30  CD         8.8410   60.1590   36.2250 C.2    57  GLU57       0.3649
     31  OE1        9.2600   61.1170   36.9110 O.co2  57  GLU57      -0.2457
     32  OE2        8.9430   60.1260   34.9880 O.co2  57  GLU57      -0.2457
     33  N          5.1560   59.0750   40.4690 N.am   58  THR58      -0.1953
     34  CA         4.7300   59.4640   41.8210 C.3    58  THR58       0.1897
     35  C          3.6210   58.5650   42.3660 C.2    58  THR58       0.2313
     36  O          3.0970   58.8010   43.4510 O.2    58  THR58      -0.2863
     37  CB         4.3320   60.9540   41.9150 C.3    58  THR58       0.1794
     38  OG1        3.4390   61.2750   40.8410 O.3    58  THR58      -0.2208
     39  CG2        5.5660   61.8500   41.8250 C.3    58  THR58       0.0378
     40  N         -7.5430   58.9690   31.6900 N.3   113  GLN113     -0.1231
     41  CA        -6.6470   58.9510   32.8430 C.3   113  GLN113      0.1698
     42  C         -5.8970   60.2770   33.0190 C.2   113  GLN113      0.2592
     43  O         -5.4640   60.6270   34.1280 O.2   113  GLN113     -0.2718
     44  CB        -5.6580   57.7800   32.7210 C.3   113  GLN113      0.0381
     45  CG        -4.4650   57.8200   33.6890 C.3   113  GLN113      0.0905
     46  CD        -4.8770   57.7410   35.1430 C.2   113  GLN113      0.2608
     47  OE1       -5.9780   57.2820   35.4690 O.2   113  GLN113     -0.2717
     48  NE2       -3.9520   58.1080   36.0380 N.am  113  GLN113     -0.0878
     49  N         -5.7050   60.9900   31.9140 N.am  114  LEU114     -0.1966
     50  CA        -4.9810   62.2610   31.9120 C.3   114  LEU114      0.1728
     51  C         -5.9150   63.4650   32.0400 C.2   114  LEU114      0.2616
     52  O         -5.4600   64.6090   32.0360 O.2   114  LEU114     -0.2715
     53  CB        -4.1150   62.3730   30.6500 C.3   114  LEU114      0.0311
     54  CG        -3.1500   61.1860   30.4640 C.3   114  LEU114      0.0022
     55  CD1       -2.5390   61.1100   29.0620 C.3   114  LEU114      0.0001
     56  CD2       -2.0560   61.2230   31.5310 C.3   114  LEU114      0.0001
     57  N         -7.2210   63.2080   32.0870 N.am  115  GLY115     -0.1955
     58  CA        -8.2080   64.2790   32.2760 C.3   115  GLY115      0.1869
     59  C         -8.8210   64.8400   30.9980 C.2   115  GLY115      0.2309
     60  O         -9.5020   65.8590   31.0270 O.2   115  GLY115     -0.2863
     61  N         -5.5060   67.5530   29.0060 N.3   119  GLY119     -0.1225
     62  CA        -4.5700   67.0110   29.9810 C.3   119  GLY119      0.1811
     63  C         -3.2980   66.4880   29.3440 C.2   119  GLY119      0.2280
     64  O         -2.2010   66.6500   29.8760 O.2   119  GLY119     -0.2866
     65  N         -1.4040   69.5490   28.4110 N.3   122  ALA122     -0.1231
     66  CA        -0.7670   70.0940   29.6110 C.3   122  ALA122      0.1694
     67  C          0.5480   69.3810   29.9490 C.2   122  ALA122      0.2592
     68  O          1.5390   70.0320   30.2860 O.2   122  ALA122     -0.2718
     69  CB        -1.7280   70.0620   30.7900 C.3   122  ALA122      0.0304
     70  N          0.5670   68.0550   29.8210 N.am  123  PHE123     -0.1976
     71  CA         1.8010   67.3020   29.9910 C.3   123  PHE123      0.1639
     72  C          2.8410   67.7080   28.9590 C.2   123  PHE123      0.2290
     73  O          4.0080   67.9070   29.2930 O.2   123  PHE123     -0.2864
     74  CB         1.5550   65.7970   29.9230 C.3   123  PHE123      0.0560
     75  CG         2.8230   64.9850   29.8120 C.ar  123  PHE123     -0.0200
     76  CD1        3.6570   64.8120   30.9160 C.ar  123  PHE123     -0.0042
     77  CD2        3.2100   64.4420   28.5970 C.ar  123  PHE123     -0.0042
     78  CE1        4.8340   64.0990   30.7940 C.ar  123  PHE123     -0.0003
     79  CE2        4.3840   63.7180   28.4860 C.ar  123  PHE123     -0.0003
     80  CZ         5.1850   63.5340   29.5840 C.ar  123  PHE123     -0.0000
     81  N          4.4450   70.8300   29.9860 N.3   126  ALA126     -0.1231
     82  CA         5.2830   70.6090   31.1640 C.3   126  ALA126      0.1694
     83  C          6.6490   70.0270   30.8130 C.2   126  ALA126      0.2591
     84  O          7.5870   70.1610   31.5860 O.2   126  ALA126     -0.2718
     85  CB         4.5610   69.7080   32.1590 C.3   126  ALA126      0.0304
     86  N          6.7560   69.3390   29.6820 N.am  127  ILE127     -0.1980
     87  CA         8.0500   68.8250   29.2450 C.3   127  ILE127      0.1595
     88  C          8.6580   69.6500   28.1100 C.2   127  ILE127      0.2287
     89  O          9.5630   69.1920   27.4070 O.2   127  ILE127     -0.2864
     90  CB         8.0210   67.3100   28.8780 C.3   127  ILE127      0.0276
     91  CG1        7.2070   67.0400   27.6140 C.3   127  ILE127      0.0022
     92  CG2        7.4680   66.4780   30.0290 C.3   127  ILE127      0.0022
     93  CD1        7.3810   65.6230   27.1270 C.3   127  ILE127      0.0001
@<TRIPOS>BOND
     1    93    91    1
     2    89    88    2
     3    91    90    1
     4    88    87    1
     5    65    66    1
     6    79    77   ar
     7    79    80   ar
     8    77    75   ar
     9    90    87    1
    10    90    92    1
    11    72    73    2
    12    72    71    1
    13    61    62    1
    14    55    54    1
    15    87    86    1
    16     1     2    1
    17    63    64    2
    18    63    62    1
    19    80    78   ar
    20    66    67    1
    21    66    69    1
    22    86    83   am
    23     5     2    1
    24    75    74    1
    25    75    76   ar
    26    70    67   am
    27    70    71    1
    28    74    71    1
    29    67    68    2
    30    81    82    1
    31     2     3    1
    32    54    53    1
    33    54    56    1
    34    53    50    1
    35    78    76   ar
    36    83    82    1
    37    83    84    2
    38    59    60    2
    39    59    58    1
    40    82    85    1
    41     3     4    2
    42    40    41    1
    43    50    49    1
    44    50    51    1
    45    49    42   am
    46    52    51    2
    47    51    57   am
    48    57    58    1
    49    44    41    1
    50    44    45    1
    51    41    42    1
    52    42    43    2
    53     6     7    1
    54    10     7    1
    55    10    11    1
    56    45    46    1
    57    13    14    1
    58    13    12    1
    59     7     8    1
    60    11    12    1
    61    22    21    2
    62    32    30   ar
    63    46    47    2
    64    46    48   am
    65    21    23   am
    66    21    20    1
    67    15     8   am
    68    15    16    1
    69     8     9    2
    70    20    19    1
    71    19    16    1
    72    30    29    1
    73    30    31   ar
    74    16    17    1
    75    29    28    1
    76    17    18    2
    77    24    25    1
    78    28    25    1
    79    25    26    1
    80    26    33   am
    81    26    27    2
    82    33    34    1
    83    38    37    1
    84    34    37    1
    85    34    35    1
    86    39    37    1
    87    35    36    2
