@<TRIPOS>MOLECULE
tmp/4de2B00.pdb
 85 81 0 0 0
SMALL
GASTEIGER

@<TRIPOS>ATOM
      1  N         36.7780   69.3990  -11.8330 N.3   126  ARG126     -0.1231
      2  CA        37.2300   68.0330  -11.5600 C.3   126  ARG126      0.1694
      3  C         38.2310   67.5470  -12.6000 C.2   126  ARG126      0.2592
      4  O         39.1970   66.8470  -12.2690 O.2   126  ARG126     -0.2718
      5  CB        36.0540   67.0590  -11.4880 C.3   126  ARG126      0.0321
      6  CG        35.0610   67.3500  -10.3810 C.3   126  ARG126      0.0489
      7  CD        35.6610   67.1370   -8.9810 C.3   126  ARG126      0.2205
      8  NE        34.6520   67.4090   -7.9620 N.pl3 126  ARG126     -0.0865
      9  CZ        34.3940   68.6220   -7.4700 C.cat 126  ARG126      0.5346
     10  NH1       35.2060   69.6370   -7.7320 N.pl3 126  ARG126      0.1354
     11  NH2       33.3520   68.8120   -6.6730 N.pl3 126  ARG126      0.1354
     12  N         37.9930   67.9100  -13.8550 N.am  127  ALA127     -0.1966
     13  CA        38.8620   67.4910  -14.9460 C.3   127  ALA127      0.1728
     14  C         40.2940   68.0050  -14.7900 C.2   127  ALA127      0.2616
     15  O         41.2320   67.3820  -15.2840 O.2   127  ALA127     -0.2715
     16  CB        38.2880   67.9190  -16.2860 C.3   127  ALA127      0.0334
     17  N         40.4520   69.1740  -14.1710 N.am  128  ILE128     -0.1963
     18  CA        41.7860   69.7300  -13.9460 C.3   128  ILE128      0.1727
     19  C         42.3220   69.4490  -12.5430 C.2   128  ILE128      0.2616
     20  O         43.3680   69.9700  -12.1510 O.2   128  ILE128     -0.2715
     21  CB        41.8570   71.2250  -14.3200 C.3   128  ILE128      0.0290
     22  CG1       40.9700   72.0670  -13.4010 C.3   128  ILE128      0.0022
     23  CG2       41.3800   71.4000  -15.7610 C.3   128  ILE128      0.0023
     24  CD1       41.1030   73.5570  -13.6380 C.3   128  ILE128      0.0001
     25  N         41.6460   68.5600  -11.8200 N.am  129  GLY129     -0.1955
     26  CA        42.1420   68.0850  -10.5310 C.3   129  GLY129      0.1869
     27  C         41.6930   68.8890   -9.3280 C.2   129  GLY129      0.2309
     28  O         42.2340   68.7280   -8.2350 O.2   129  GLY129     -0.2863
     29  N         39.1590   69.0650   -6.7430 N.3   131  GLU131     -0.1245
     30  CA        38.1120   68.2450   -6.1370 C.3   131  GLU131      0.1567
     31  C         37.2920   69.0270   -5.1120 C.2   131  GLU131      0.2260
     32  O         36.4050   68.4620   -4.4700 O.2   131  GLU131     -0.2867
     33  CB        38.7310   67.0030   -5.4760 C.3   131  GLU131      0.0388
     34  CG        39.2770   65.9770   -6.4710 C.3   131  GLU131      0.1160
     35  CD        38.1840   65.2110   -7.2160 C.2   131  GLU131      0.3649
     36  OE1       38.5010   64.5540   -8.2340 O.co2 131  GLU131     -0.2457
     37  OE2       37.0100   65.2550   -6.7860 O.co2 131  GLU131     -0.2457
     38  N         45.5300   77.0770   -6.2270 N.3   161  GLN161     -0.1245
     39  CA        46.1430   76.0330   -7.0360 C.3   161  GLN161      0.1566
     40  C         45.5070   75.9800   -8.4380 C.2   161  GLN161      0.2260
     41  O         46.1990   75.8920   -9.4590 O.2   161  GLN161     -0.2867
     42  CB        46.0340   74.6820   -6.3230 C.3   161  GLN161      0.0367
     43  CG        46.6490   73.5220   -7.1060 C.3   161  GLN161      0.0905
     44  CD        48.0860   73.7850   -7.5110 C.2   161  GLN161      0.2608
     45  OE1       48.8280   74.4660   -6.8020 O.2   161  GLN161     -0.2717
     46  NE2       48.4870   73.2510   -8.6620 N.am  161  GLN161     -0.0878
     47  N         46.5070   79.0080  -10.5070 N.3   164  ARG164     -0.1231
     48  CA        47.8570   78.8040  -11.0080 C.3   164  ARG164      0.1694
     49  C         47.8310   77.8910  -12.2380 C.2   164  ARG164      0.2591
     50  O         48.4520   78.1920  -13.2620 O.2   164  ARG164     -0.2718
     51  CB        48.7710   78.2000   -9.9400 C.3   164  ARG164      0.0321
     52  CG        50.2040   78.0140  -10.4500 C.3   164  ARG164      0.0489
     53  CD        51.0980   77.2030   -9.5350 C.3   164  ARG164      0.2205
     54  NE        52.4570   77.2130  -10.0770 N.pl3 164  ARG164     -0.0865
     55  CZ        53.5450   76.9200   -9.3750 C.cat 164  ARG164      0.5346
     56  NH1       53.4300   76.4700   -8.1330 N.pl3 164  ARG164      0.1354
     57  NH2       54.7440   77.0150   -9.9370 N.pl3 164  ARG164      0.1354
     58  N         47.1300   76.7650  -12.1240 N.am  165  GLN165     -0.1979
     59  CA        47.0240   75.8090  -13.2350 C.3   165  GLN165      0.1601
     60  C         46.4310   76.4330  -14.4950 C.2   165  GLN165      0.2287
     61  O         46.8290   76.0980  -15.6050 O.2   165  GLN165     -0.2864
     62  CB        46.2000   74.5830  -12.8220 C.3   165  GLN165      0.0394
     63  CG        46.8150   73.7420  -11.7090 C.3   165  GLN165      0.0908
     64  CD        45.9060   72.5970  -11.2650 C.2   165  GLN165      0.2608
     65  OE1       45.2610   72.6770  -10.2230 O.2   165  GLN165     -0.2717
     66  NE2       45.8330   71.5420  -12.0710 N.am  165  GLN165     -0.0878
     67  N         49.9890   77.4470  -15.6870 N.3   169  GLY169     -0.1210
     68  CA        50.2490   76.0500  -16.0180 C.3   169  GLY169      0.1956
     69  C         49.5070   75.6060  -17.2640 C.2   169  GLY169      0.2612
     70  O         49.2690   76.3960  -18.1940 O.2   169  GLY169     -0.2717
     71  N         49.0850   74.3470  -17.2650 N.am  170  HIS170     -0.1961
     72  CA        48.6220   73.7010  -18.4830 C.3   170  HIS170      0.1787
     73  C         47.2230   73.1320  -18.3940 C.2   170  HIS170      0.2620
     74  O         46.8810   72.1860  -19.1040 O.2   170  HIS170     -0.2715
     75  CB        49.6520   72.6600  -18.9460 C.3   170  HIS170      0.0785
     76  CG        50.9800   73.2720  -19.2390 C.ar  170  HIS170      0.0821
     77  ND1       51.9830   73.3120  -18.2970 N.ar  170  HIS170     -0.2267
     78  CD2       51.3610   74.1170  -20.2250 C.ar  170  HIS170      0.1154
     79  CE1       52.9810   74.0500  -18.7490 C.ar  170  HIS170      0.1986
     80  NE2       52.6180   74.5700  -19.9070 N.ar  170  HIS170     -0.2212
     81  N         46.3800   73.7510  -17.5770 N.am  171  ALA171     -0.1977
     82  CA        44.9800   73.3420  -17.5580 C.3   171  ALA171      0.1597
     83  C         44.3380   73.6080  -18.9180 C.2   171  ALA171      0.2287
     84  O         43.4260   72.8850  -19.3380 O.2   171  ALA171     -0.2864
     85  CB        44.2230   74.0520  -16.4780 C.3   171  ALA171      0.0319
@<TRIPOS>BOND
     1    78    80   ar
     2    78    76   ar
     3    80    79   ar
     4    84    83    2
     5    76    75    1
     6    76    77   ar
     7    74    73    2
     8    75    72    1
     9    83    82    1
    10    79    77   ar
    11    72    73    1
    12    72    71    1
    13    73    81   am
    14    70    69    2
    15    81    82    1
    16    82    85    1
    17    71    69   am
    18    69    68    1
    19    16    13    1
    20    68    67    1
    21    23    21    1
    22    61    60    2
    23    15    14    2
    24    13    14    1
    25    13    12    1
    26    14    17   am
    27    60    59    1
    28    21    18    1
    29    21    22    1
    30    17    18    1
    31    18    19    1
    32    12     3   am
    33    24    22    1
    34    50    49    2
    35    59    62    1
    36    59    58    1
    37    62    63    1
    38     3     4    2
    39     3     2    1
    40    19    20    2
    41    19    25   am
    42    49    58   am
    43    49    48    1
    44    66    64   am
    45     1     2    1
    46    25    26    1
    47    63    64    1
    48     2     5    1
    49     5     6    1
    50    64    65    2
    51    48    47    1
    52    48    51    1
    53    26    27    1
    54    52    51    1
    55    52    53    1
    56     6     7    1
    57    54    53    1
    58    54    55    2
    59    57    55    1
    60    41    40    2
    61    55    56    1
    62    27    28    2
    63     7     8    1
    64    46    44   am
    65    40    39    1
    66    36    35   ar
    67     8     9    2
    68    10     9    1
    69    44    43    1
    70    44    45    2
    71     9    11    1
    72    35    37   ar
    73    35    34    1
    74    43    42    1
    75    39    42    1
    76    39    38    1
    77    29    30    1
    78    34    33    1
    79    30    33    1
    80    30    31    1
    81    31    32    2
