@<TRIPOS>MOLECULE
tmp/4de2B01.pdb
 114 107 0 0 0
SMALL
GASTEIGER

@<TRIPOS>ATOM
      1  N         31.2440   86.0990   -7.5800 N.3    43  SER43      -0.1217
      2  CA        31.6820   86.2380   -8.9760 C.3    43  SER43       0.1889
      3  C         33.0970   85.7560   -9.2930 C.2    43  SER43       0.2288
      4  O         33.4940   85.7310  -10.4480 O.2    43  SER43      -0.2866
      5  CB        31.4850   87.6590   -9.4750 C.3    43  SER43       0.2089
      6  OG        30.1060   87.9430   -9.5570 O.3    43  SER43      -0.2183
      7  N         33.2570   83.1160  -11.8890 N.3    46  LYS46      -0.1245
      8  CA        33.2100   83.4370  -13.3120 C.3    46  LYS46       0.1561
      9  C         34.4830   83.0180  -14.0350 C.2    46  LYS46       0.2260
     10  O         34.4570   82.7200  -15.2320 O.2    46  LYS46      -0.2867
     11  CB        32.8880   84.9240  -13.5300 C.3    46  LYS46       0.0271
     12  CG        31.4650   85.2790  -13.0710 C.3    46  LYS46       0.0035
     13  CD        31.1390   86.7570  -13.1700 C.3    46  LYS46       0.0206
     14  CE        29.6770   86.9920  -12.7860 C.3    46  LYS46       0.1093
     15  NZ        29.4320   88.2660  -12.0510 N.3    46  LYS46      -0.1314
     16  N         20.2510   90.7950  -12.6100 N.3    77  ASN77      -0.1225
     17  CA        20.3580   91.9850  -11.7500 C.3    77  ASN77       0.1785
     18  C         21.5570   92.9020  -11.9930 C.2    77  ASN77       0.2597
     19  O         21.7550   93.8680  -11.2460 O.2    77  ASN77      -0.2718
     20  CB        20.3620   91.5550  -10.2840 C.3    77  ASN77       0.1169
     21  CG        21.5670   90.7020   -9.9400 C.2    77  ASN77       0.2627
     22  OD1       22.0870   89.9700  -10.7950 O.2    77  ASN77      -0.2716
     23  ND2       21.9810   90.7450   -8.6830 N.am   77  ASN77      -0.0877
     24  N         22.4430   92.5210  -12.9070 N.am   78  TYR78      -0.1976
     25  CA        23.6180   93.3440  -13.2030 C.3    78  TYR78       0.1639
     26  C         24.1110   92.9530  -14.5880 C.2    78  TYR78       0.2290
     27  O         24.7710   91.9160  -14.7530 O.2    78  TYR78      -0.2864
     28  CB        24.7180   93.1540  -12.1440 C.3    78  TYR78       0.0560
     29  CG        25.8450   94.1390  -12.3070 C.ar   78  TYR78      -0.0198
     30  CD1       27.0890   93.7330  -12.7770 C.ar   78  TYR78      -0.0009
     31  CD2       25.6250   95.4990  -12.1220 C.ar   78  TYR78      -0.0009
     32  CE1       28.1010   94.6520  -12.9870 C.ar   78  TYR78       0.0417
     33  CE2       26.6260   96.4260  -12.3400 C.ar   78  TYR78       0.0417
     34  CZ        27.8640   95.9970  -12.7630 C.ar   78  TYR78       0.1957
     35  OH        28.8750   96.9140  -12.9320 O.3    78  TYR78      -0.2866
     36  N         32.0330   91.7590  -14.9930 N.3   103  SER103     -0.1217
     37  CA        31.2740   90.9990  -13.9920 C.3   103  SER103      0.1889
     38  C         29.7760   90.9770  -14.3010 C.2   103  SER103      0.2288
     39  O         28.9240   90.9720  -13.4080 O.2   103  SER103     -0.2866
     40  CB        31.5330   91.5080  -12.5680 C.3   103  SER103      0.2089
     41  OG        31.5340   90.4250  -11.6380 O.3   103  SER103     -0.2183
     42  N         26.3520   89.5350  -14.9110 N.3   105  ASN105     -0.1240
     43  CA        25.6310   88.3250  -14.4860 C.3   105  ASN105      0.1653
     44  C         24.8560   87.5980  -15.5940 C.2   105  ASN105      0.2266
     45  O         24.7110   86.3760  -15.5690 O.2   105  ASN105     -0.2867
     46  CB        24.7040   88.6120  -13.2930 C.3   105  ASN105      0.1155
     47  CG        25.4190   88.4890  -11.9470 C.2   105  ASN105      0.2627
     48  OD1       26.5980   88.1200  -11.8900 O.2   105  ASN105     -0.2716
     49  ND2       24.7150   88.8200  -10.8580 N.am  105  ASN105     -0.0877
     50  N         21.2350   85.2480  -10.0870 N.3   140  PRO140     -0.2102
     51  CA        22.0600   85.8720   -9.0580 C.3   140  PRO140      0.1504
     52  C         22.1560   85.0730   -7.7500 C.2   140  PRO140      0.2576
     53  O         22.8440   85.5070   -6.8260 O.2   140  PRO140     -0.2718
     54  CB        21.3190   87.1920   -8.7810 C.3   140  PRO140      0.0282
     55  CG        19.8730   86.8590   -9.0470 C.3   140  PRO140      0.0208
     56  CD        19.8660   85.7960  -10.1160 C.3   140  PRO140      0.0893
     57  N         21.4130   83.9720   -7.6260 N.am  141  THR141     -0.1953
     58  CA        21.3620   83.2740   -6.3330 C.3   141  THR141      0.1897
     59  C         22.6510   82.6250   -5.8430 C.2   141  THR141      0.2313
     60  O         22.7650   82.3240   -4.6640 O.2   141  THR141     -0.2863
     61  CB        20.2030   82.2660   -6.2310 C.3   141  THR141      0.1794
     62  OG1       20.4160   81.1800   -7.1420 O.3   141  THR141     -0.2208
     63  CG2       18.8710   82.9540   -6.5160 C.3   141  THR141      0.0378
     64  N         25.1310   84.0010   -5.1390 N.3   143  ASN143     -0.1225
     65  CA        25.7780   84.9960   -4.2670 C.3   143  ASN143      0.1785
     66  C         25.1220   85.1800   -2.8890 C.2   143  ASN143      0.2597
     67  O         25.4120   86.1540   -2.1850 O.2   143  ASN143     -0.2718
     68  CB        25.8500   86.3600   -4.9700 C.3   143  ASN143      0.1169
     69  CG        26.4900   86.2810   -6.3320 C.2   143  ASN143      0.2627
     70  OD1       27.6830   86.0190   -6.4650 O.2   143  ASN143     -0.2716
     71  ND2       25.6930   86.4940   -7.3610 N.am  143  ASN143     -0.0877
     72  N         24.2200   84.2720   -2.5060 N.am  144  THR144     -0.1953
     73  CA        23.5380   84.4160   -1.2160 C.3   144  THR144      0.1897
     74  C         24.5160   84.3770   -0.0300 C.2   144  THR144      0.2313
     75  O         24.2660   85.0040    1.0000 O.2   144  THR144     -0.2863
     76  CB        22.3960   83.3890   -1.0230 C.3   144  THR144      0.1794
     77  OG1       22.8770   82.0620   -1.2800 O.3   144  THR144     -0.2208
     78  CG2       21.2610   83.6740   -1.9950 C.3   144  THR144      0.0378
     79  N         37.2170   95.9490  -12.6890 N.3   189  THR189     -0.1218
     80  CA        36.6030   96.0600  -11.3640 C.3   189  THR189      0.1862
     81  C         37.5670   95.9260  -10.1710 C.2   189  THR189      0.2287
     82  O         37.1320   95.9400   -9.0090 O.2   189  THR189     -0.2866
     83  CB        35.5100   94.9800  -11.1760 C.3   189  THR189      0.1770
     84  OG1       36.1350   93.6900  -11.1250 O.3   189  THR189     -0.2211
     85  CG2       34.5040   95.0060  -12.3120 C.3   189  THR189      0.0375
     86  N         37.1060   89.9330   -9.2610 N.3   208  THR208     -0.1203
     87  CA        36.4510   90.2430   -7.9980 C.3   208  THR208      0.1994
     88  C         35.1590   89.4590   -7.8060 C.2   208  THR208      0.2618
     89  O         34.6130   88.8700   -8.7500 O.2   208  THR208     -0.2717
     90  CB        36.1090   91.7310   -7.9170 C.3   208  THR208      0.1784
     91  OG1       35.3180   92.0910   -9.0570 O.3   208  THR208     -0.2211
     92  CG2       37.3700   92.5710   -7.9080 C.3   208  THR208      0.0376
     93  N         34.6680   89.4370   -6.5720 N.am  209  GLY209     -0.1942
     94  CA        33.3200   88.9440   -6.3230 C.3   209  GLY209      0.2014
     95  C         32.7440   89.5730   -5.0740 C.2   209  GLY209      0.2640
     96  O         33.4820   90.0050   -4.1990 O.2   209  GLY209     -0.2714
     97  N         31.4230   89.6270   -4.9780 N.am  210  SER210     -0.1935
     98  CA        30.7760   90.0890   -3.7530 C.3   210  SER210      0.2055
     99  C         29.3650   89.5300   -3.6630 C.2   210  SER210      0.2644
    100  O         28.7970   89.0960   -4.6670 O.2   210  SER210     -0.2714
    101  CB        30.7760   91.6210   -3.6340 C.3   210  SER210      0.2130
    102  OG        29.9180   92.2380   -4.5930 O.3   210  SER210     -0.2179
    103  N         28.8010   89.5470   -2.4630 N.am  211  GLY211     -0.1939
    104  CA        27.4660   89.0240   -2.2470 C.3   211  GLY211      0.2014
    105  C         26.9080   89.4800   -0.9140 C.2   211  GLY211      0.2638
    106  O         27.4100   90.4310   -0.3070 O.2   211  GLY211     -0.2714
    107  N         25.8020   88.7500   -0.4410 N.am  212  ASP212     -0.1971
    108  CA        25.2750   89.0800    0.8800 C.3   212  ASP212      0.1709
    109  C         26.3010   88.7340    1.9690 C.2   212  ASP212      0.2293
    110  O         27.3520   88.1560    1.6850 O.2   212  ASP212     -0.2864
    111  CB        23.9630   88.3300    1.1410 C.3   212  ASP212      0.1436
    112  CG        22.7600   88.9630    0.4420 C.2   212  ASP212      0.3671
    113  OD1       22.8330   90.1400    0.0230 O.co2 212  ASP212     -0.2456
    114  OD2       21.7170   88.2850    0.3530 O.co2 212  ASP212     -0.2456
@<TRIPOS>BOND
     1    44    45    2
     2    44    43    1
     3    10     9    2
     4    36    37    1
     5    42    43    1
     6    27    26    2
     7    26    25    1
     8    43    46    1
     9    38    37    1
    10    38    39    2
    11     9     8    1
    12    37    40    1
    13    11     8    1
    14    11    12    1
    15     8     7    1
    16    46    47    1
    17    25    24    1
    18    25    28    1
    19    13    12    1
    20    13    14    1
    21    32    30   ar
    22    32    34   ar
    23    35    34    1
    24    24    18   am
    25    14    15    1
    26    30    29   ar
    27    34    33   ar
    28    79    80    1
    29    16    17    1
    30    40    41    1
    31    33    31   ar
    32    85    83    1
    33    29    28    1
    34    29    31   ar
    35    18    17    1
    36    18    19    2
    37    47    48    2
    38    47    49   am
    39    17    20    1
    40    80    83    1
    41    80    81    1
    42    83    84    1
    43    22    21    2
    44     4     3    2
    45    20    21    1
    46    81    82    2
    47    56    50    1
    48    56    55    1
    49    50    51    1
    50    21    23   am
    51     6     5    1
    52     5     2    1
    53     3     2    1
    54    86    87    1
    55    51    54    1
    56    51    52    1
    57    91    90    1
    58    55    54    1
    59     2     1    1
    60    89    88    2
    61    87    90    1
    62    87    88    1
    63    90    92    1
    64    88    93   am
    65    52    57   am
    66    52    53    2
    67    57    58    1
    68    71    69   am
    69    62    61    1
    70    93    94    1
    71    63    61    1
    72    70    69    2
    73    58    61    1
    74    58    59    1
    75    69    68    1
    76    94    95    1
    77    59    60    2
    78    64    65    1
    79    95    97   am
    80    95    96    2
    81    97    98    1
    82    68    65    1
    83   100    99    2
    84   102   101    1
    85    65    66    1
    86    98    99    1
    87    98   101    1
    88    99   103   am
    89    66    72   am
    90    66    67    2
    91    72    73    1
    92   103   104    1
    93   104   105    1
    94    78    76    1
    95    77    76    1
    96    73    76    1
    97    73    74    1
    98   105   107   am
    99   105   106    2
   100   107   108    1
   101    74    75    2
   102   113   112   ar
   103   114   112   ar
   104   112   111    1
   105   108   111    1
   106   108   109    1
   107   110   109    2
