@<TRIPOS>MOLECULE
tmp/4de3B04.pdb
 82 79 0 0 0
SMALL
GASTEIGER

@<TRIPOS>ATOM
      1  N         25.4900   94.9720  -17.1710 N.3    80  PRO80      -0.2102
      2  CA        26.0260   96.1890  -17.8050 C.3    80  PRO80       0.1504
      3  C         26.3450   96.0330  -19.2780 C.2    80  PRO80       0.2575
      4  O         26.2530   97.0230  -20.0240 O.2    80  PRO80      -0.2718
      5  CB        27.3030   96.4930  -17.0040 C.3    80  PRO80       0.0282
      6  CG        27.6830   95.1930  -16.3670 C.3    80  PRO80       0.0208
      7  CD        26.3830   94.4410  -16.1200 C.3    80  PRO80       0.0893
      8  N         26.7020   94.8240  -19.7100 N.am   81  ILE81      -0.1980
      9  CA        26.9220   94.5840  -21.1060 C.3    81  ILE81       0.1595
     10  C         25.6890   93.9760  -21.7610 C.2    81  ILE81       0.2287
     11  O         25.2590   94.4190  -22.8180 O.2    81  ILE81      -0.2864
     12  CB        28.1450   93.6240  -21.3360 C.3    81  ILE81       0.0276
     13  CG1       29.4240   94.1760  -20.6500 C.3    81  ILE81       0.0022
     14  CG2       28.3570   93.4240  -22.8140 C.3    81  ILE81       0.0022
     15  CD1       29.8110   95.5880  -21.1430 C.3    81  ILE81       0.0001
     16  N         22.5540   95.8310  -23.3220 N.3    84  LYS84      -0.1231
     17  CA        22.6670   96.5850  -24.5630 C.3    84  LYS84       0.1693
     18  C         22.3730   95.7210  -25.7630 C.2    84  LYS84       0.2592
     19  O         22.1890   96.2180  -26.8640 O.2    84  LYS84      -0.2718
     20  CB        24.0810   97.1670  -24.7090 C.3    84  LYS84       0.0285
     21  CG        24.5390   97.9880  -23.5090 C.3    84  LYS84       0.0035
     22  CD        23.6120   99.1080  -23.2230 C.3    84  LYS84       0.0206
     23  CE        24.1150   99.8440  -21.9820 C.3    84  LYS84       0.1093
     24  NZ        23.3910  101.0950  -21.7370 N.3    84  LYS84      -0.1314
     25  N         22.3350   94.4050  -25.5380 N.am   85  HIS85      -0.1976
     26  CA        22.2120   93.4310  -26.6360 C.3    85  HIS85       0.1656
     27  C         20.9150   92.6370  -26.5860 C.2    85  HIS85       0.2291
     28  O         20.7550   91.6540  -27.3160 O.2    85  HIS85      -0.2864
     29  CB        23.4110   92.4640  -26.6490 C.3    85  HIS85       0.0771
     30  CG        24.7010   93.1580  -26.9360 C.ar   85  HIS85       0.0820
     31  ND1       25.5650   93.5680  -25.9420 N.ar   85  HIS85      -0.2267
     32  CD2       25.2660   93.5340  -28.1070 C.ar   85  HIS85       0.1154
     33  CE1       26.6160   94.1530  -26.4890 C.ar   85  HIS85       0.1986
     34  NE2       26.4590   94.1520  -27.7990 N.ar   85  HIS85      -0.2212
     35  N         25.1220   88.0110  -28.4800 N.3    90  MET90      -0.1245
     36  CA        26.5120   88.2230  -28.0970 C.3    90  MET90       0.1570
     37  C         27.2330   86.9470  -28.3980 C.2    90  MET90       0.2261
     38  O         26.6400   85.9010  -28.2860 O.2    90  MET90      -0.2867
     39  CB        26.6350   88.5370  -26.6030 C.3    90  MET90       0.0387
     40  CG        26.1350   89.9330  -26.2390 C.3    90  MET90       0.0595
     41  SD        26.1110   90.2300  -24.4620 S.3    90  MET90      -0.1393
     42  CE        27.8640   90.2490  -24.0750 C.3    90  MET90       0.0692
     43  N         32.4230   87.3820  -26.3120 N.3    94  GLU94      -0.1245
     44  CA        31.9000   88.6350  -25.7420 C.3    94  GLU94       0.1567
     45  C         31.2940   88.3510  -24.3660 C.2    94  GLU94       0.2260
     46  O         31.4270   89.1140  -23.4220 O.2    94  GLU94      -0.2867
     47  CB        30.8660   89.2020  -26.7010 C.3    94  GLU94       0.0388
     48  CG        31.4790   90.0360  -27.8210 C.3    94  GLU94       0.1160
     49  CD        30.5010   90.3460  -28.9110 C.2    94  GLU94       0.3649
     50  OE1       29.3890   89.7750  -28.9550 O.co2  94  GLU94      -0.2457
     51  OE2       30.8610   91.1860  -29.7540 O.co2  94  GLU94      -0.2457
     52  N         34.1910   87.8230  -21.8750 N.3    97  ALA97      -0.1231
     53  CA        34.7800   89.0810  -21.4600 C.3    97  ALA97       0.1694
     54  C         33.7950   89.8590  -20.5740 C.2    97  ALA97       0.2591
     55  O         34.2060   90.5180  -19.6320 O.2    97  ALA97      -0.2718
     56  CB        35.1480   89.9340  -22.6690 C.3    97  ALA97       0.0304
     57  N         32.5090   89.7980  -20.9030 N.am   98  ALA98      -0.1980
     58  CA        31.5150   90.5320  -20.0890 C.3    98  ALA98       0.1597
     59  C         31.4840   89.9920  -18.6700 C.2    98  ALA98       0.2287
     60  O         31.4940   90.7500  -17.6950 O.2    98  ALA98      -0.2864
     61  CB        30.1390   90.4950  -20.7210 C.3    98  ALA98       0.0319
     62  N         35.4090   90.6820  -17.0700 N.3   101  GLN101     -0.1231
     63  CA        35.9080   92.0550  -16.9250 C.3   101  GLN101      0.1698
     64  C         34.8960   93.0340  -16.3990 C.2   101  GLN101      0.2592
     65  O         35.3080   94.0270  -15.8440 O.2   101  GLN101     -0.2718
     66  CB        36.3820   92.5450  -18.2870 C.3   101  GLN101      0.0381
     67  CG        37.5130   91.6500  -18.8520 C.3   101  GLN101      0.0905
     68  CD        38.0330   92.1220  -20.1980 C.2   101  GLN101      0.2608
     69  OE1       37.2850   92.7210  -20.9980 O.2   101  GLN101     -0.2717
     70  NE2       39.3060   91.8710  -20.4540 N.am  101  GLN101     -0.0878
     71  N         33.6190   92.7650  -16.6020 N.am  102  TYR102     -0.1976
     72  CA        32.5140   93.6110  -16.1070 C.3   102  TYR102      0.1639
     73  C         31.6590   92.9660  -15.0230 C.2   102  TYR102      0.2290
     74  O         30.8180   93.6030  -14.4060 O.2   102  TYR102     -0.2864
     75  CB        31.6660   94.0670  -17.3050 C.3   102  TYR102      0.0560
     76  CG        32.5150   94.8780  -18.2650 C.ar  102  TYR102     -0.0198
     77  CD1       33.3020   94.2500  -19.2320 C.ar  102  TYR102     -0.0009
     78  CD2       32.5500   96.2850  -18.1830 C.ar  102  TYR102     -0.0009
     79  CE1       34.1030   94.9400  -20.0840 C.ar  102  TYR102      0.0417
     80  CE2       33.3470   97.0040  -19.0620 C.ar  102  TYR102      0.0417
     81  CZ        34.1240   96.3450  -20.0030 C.ar  102  TYR102      0.1957
     82  OH        34.9300   97.0370  -20.8700 O.3   102  TYR102     -0.2866
@<TRIPOS>BOND
     1    51    49   ar
     2    50    49   ar
     3    49    48    1
     4    35    36    1
     5    37    38    2
     6    37    36    1
     7    32    34   ar
     8    32    30   ar
     9    36    39    1
    10    48    47    1
    11    34    33   ar
    12    28    27    2
    13    30    29    1
    14    30    31   ar
    15    19    18    2
    16    47    44    1
    17    29    26    1
    18    26    27    1
    19    26    25    1
    20    39    40    1
    21    33    31   ar
    22    43    44    1
    23    40    41    1
    24    18    25   am
    25    18    17    1
    26    44    45    1
    27    20    17    1
    28    20    21    1
    29    17    16    1
    30    41    42    1
    31    45    46    2
    32    21    22    1
    33    22    23    1
    34    11    10    2
    35    14    12    1
    36    56    53    1
    37    23    24    1
    38    52    53    1
    39    10     9    1
    40    53    54    1
    41    12     9    1
    42    12    13    1
    43    15    13    1
    44     9     8    1
    45    69    68    2
    46    57    54   am
    47    57    58    1
    48    82    81    1
    49    61    58    1
    50    54    55    2
    51    70    68   am
    52    68    67    1
    53    58    59    1
    54    79    81   ar
    55    79    77   ar
    56     4     3    2
    57    81    80   ar
    58     8     3   am
    59     3     2    1
    60    77    76   ar
    61    80    78   ar
    62    67    66    1
    63    59    60    2
    64    66    63    1
    65    76    78   ar
    66    76    75    1
    67     2     1    1
    68     2     5    1
    69    75    72    1
    70     1     7    1
    71    62    63    1
    72     5     6    1
    73    63    64    1
    74    71    64   am
    75    71    72    1
    76    64    65    2
    77     6     7    1
    78    72    73    1
    79    73    74    2
