@<TRIPOS>MOLECULE
tmp/4de4B00.pdb
 113 109 0 0 0
SMALL
GASTEIGER

@<TRIPOS>ATOM
      1  N         -2.5980   38.9730   34.8420 N.3   193  ASP193     -0.1239
      2  CA        -1.4970   39.2830   35.7450 C.3   193  ASP193      0.1674
      3  C         -1.8380   40.5790   36.4720 C.2   193  ASP193      0.2266
      4  O         -0.9860   41.4440   36.6840 O.2   193  ASP193     -0.2867
      5  CB        -0.1770   39.4030   34.9810 C.3   193  ASP193      0.1410
      6  CG         1.0340   39.2790   35.8870 C.2   193  ASP193      0.3668
      7  OD1        0.8550   38.9800   37.0860 O.co2 193  ASP193     -0.2456
      8  OD2        2.1680   39.4700   35.3990 O.co2 193  ASP193     -0.2456
      9  N         -2.0440   42.5840   39.1120 N.3   195  SER195     -0.1217
     10  CA        -1.5340   42.7720   40.4640 C.3   195  SER195      0.1889
     11  C         -1.0450   44.2030   40.6700 C.2   195  SER195      0.2288
     12  O         -1.0230   44.9990   39.7310 O.2   195  SER195     -0.2866
     13  CB        -0.4180   41.7690   40.7610 C.3   195  SER195      0.2089
     14  OG         0.5910   41.8250   39.7690 O.3   195  SER195     -0.2183
     15  N          1.7720   45.6980   41.0640 N.3   197  ASP197     -0.1225
     16  CA         2.9190   46.1950   40.3090 C.3   197  ASP197      0.1805
     17  C          2.5280   46.6970   38.9220 C.2   197  ASP197      0.2597
     18  O          3.3000   47.3970   38.2650 O.2   197  ASP197     -0.2718
     19  CB         3.9940   45.1130   40.1850 C.3   197  ASP197      0.1424
     20  CG         4.7430   44.8860   41.4820 C.2   197  ASP197      0.3668
     21  OD1        4.8610   45.8420   42.2780 O.co2 197  ASP197     -0.2456
     22  OD2        5.2190   43.7530   41.7060 O.co2 197  ASP197     -0.2456
     23  N          1.3260   46.3400   38.4840 N.am  198  HIS198     -0.1975
     24  CA         0.8640   46.6980   37.1490 C.3   198  HIS198      0.1656
     25  C         -0.2420   47.7460   37.2010 C.2   198  HIS198      0.2291
     26  O         -0.8650   48.0580   36.1860 O.2   198  HIS198     -0.2864
     27  CB         0.3950   45.4470   36.4070 C.3   198  HIS198      0.0771
     28  CG         1.4310   44.3690   36.3450 C.ar  198  HIS198      0.0820
     29  ND1        1.1150   43.0290   36.3030 N.ar  198  HIS198     -0.2267
     30  CD2        2.7840   44.4360   36.3270 C.ar  198  HIS198      0.1154
     31  CE1        2.2270   42.3170   36.2590 C.ar  198  HIS198      0.1986
     32  NE2        3.2540   43.1470   36.2720 N.ar  198  HIS198     -0.2212
     33  N         -3.7930   38.1160   47.1740 N.3   230  GLU230     -0.1245
     34  CA        -2.7030   37.6110   48.0080 C.3   230  GLU230      0.1567
     35  C         -2.4210   38.5060   49.2180 C.2   230  GLU230      0.2260
     36  O         -2.3350   39.7280   49.0920 O.2   230  GLU230     -0.2867
     37  CB        -1.4310   37.4380   47.1740 C.3   230  GLU230      0.0388
     38  CG        -0.2430   36.9040   47.9570 C.3   230  GLU230      0.1160
     39  CD         1.0080   36.7790   47.1100 C.2   230  GLU230      0.3649
     40  OE1        0.9070   36.9120   45.8720 O.co2 230  GLU230     -0.2457
     41  OE2        2.0940   36.5490   47.6840 O.co2 230  GLU230     -0.2457
     42  N          0.3680   38.5370   51.3240 N.3   232  ASP232     -0.1225
     43  CA         1.7450   38.9930   51.4800 C.3   232  ASP232      0.1805
     44  C          2.1300   40.1300   50.5380 C.2   232  ASP232      0.2598
     45  O          2.4780   41.2220   50.9850 O.2   232  ASP232     -0.2718
     46  CB         2.7180   37.8220   51.3120 C.3   232  ASP232      0.1424
     47  CG         2.6420   36.8360   52.4590 C.2   232  ASP232      0.3668
     48  OD1        1.6480   36.8780   53.2150 O.co2 232  ASP232     -0.2456
     49  OD2        3.5750   36.0170   52.6050 O.co2 232  ASP232     -0.2456
     50  N          2.0660   39.8730   49.2370 N.am  233  GLU233     -0.1965
     51  CA         2.5890   40.8170   48.2560 C.3   233  GLU233      0.1733
     52  C          1.5220   41.7110   47.6270 C.2   233  GLU233      0.2616
     53  O          1.8460   42.6940   46.9610 O.2   233  GLU233     -0.2715
     54  CB         3.3530   40.0690   47.1600 C.3   233  GLU233      0.0429
     55  CG         4.5480   39.2760   47.6640 C.3   233  GLU233      0.1163
     56  CD         5.2020   38.4510   46.5700 C.2   233  GLU233      0.3649
     57  OE1        4.6370   38.3840   45.4570 O.co2 233  GLU233     -0.2457
     58  OE2        6.2820   37.8720   46.8210 O.co2 233  GLU233     -0.2457
     59  N          0.2530   41.3760   47.8390 N.am  234  GLU234     -0.1977
     60  CA        -0.8320   42.1110   47.1950 C.3   234  GLU234      0.1602
     61  C         -1.8130   42.7350   48.1830 C.2   234  GLU234      0.2287
     62  O         -1.5200   42.8690   49.3730 O.2   234  GLU234     -0.2864
     63  CB        -1.5810   41.2070   46.2130 C.3   234  GLU234      0.0415
     64  CG        -0.6960   40.5980   45.1370 C.3   234  GLU234      0.1163
     65  CD        -0.0100   41.6460   44.2800 C.2   234  GLU234      0.3649
     66  OE1       -0.5920   42.7330   44.0780 O.co2 234  GLU234     -0.2457
     67  OE2        1.1170   41.3820   43.8100 O.co2 234  GLU234     -0.2457
     68  N         -3.1980   28.8210   44.7910 N.3   261  GLU261     -0.1245
     69  CA        -2.0680   28.9420   45.7040 C.3   261  GLU261      0.1567
     70  C         -1.3350   27.6120   45.8370 C.2   261  GLU261      0.2260
     71  O         -0.1060   27.5740   45.9030 O.2   261  GLU261     -0.2867
     72  CB        -2.5210   29.4460   47.0760 C.3   261  GLU261      0.0388
     73  CG        -3.1250   30.8400   47.0460 C.3   261  GLU261      0.1160
     74  CD        -2.3170   31.8140   46.2040 C.2   261  GLU261      0.3649
     75  OE1       -1.2060   32.1960   46.6300 O.co2 261  GLU261     -0.2457
     76  OE2       -2.7930   32.1980   45.1130 O.co2 261  GLU261     -0.2457
     77  N          0.6430   26.6620   42.5000 N.3   264  TRP264     -0.1241
     78  CA         1.8240   27.4500   42.1590 C.3   264  TRP264      0.1605
     79  C          3.1100   26.6210   42.1470 C.2   264  TRP264      0.2264
     80  O          4.0530   26.9400   41.4200 O.2   264  TRP264     -0.2867
     81  CB         1.9620   28.6580   43.0950 C.3   264  TRP264      0.0550
     82  CG         3.1150   29.5520   42.7500 C.ar  264  TRP264      0.0003
     83  CD1        4.1960   29.8350   43.5330 C.ar  264  TRP264      0.0946
     84  CD2        3.3110   30.2670   41.5220 C.ar  264  TRP264      0.0152
     85  NE1        5.0470   30.6880   42.8740 N.ar  264  TRP264     -0.2442
     86  CE2        4.5290   30.9670   41.6370 C.ar  264  TRP264      0.0810
     87  CE3        2.5730   30.3870   40.3400 C.ar  264  TRP264      0.0012
     88  CZ2        5.0270   31.7710   40.6130 C.ar  264  TRP264      0.0191
     89  CZ3        3.0690   31.1870   39.3250 C.ar  264  TRP264      0.0001
     90  CH2        4.2830   31.8700   39.4700 C.ar  264  TRP264      0.0015
     91  N          5.8060   26.6800   38.9530 N.3   268  LYS268     -0.1245
     92  CA         7.2190   27.0350   39.0610 C.3   268  LYS268      0.1561
     93  C          8.1370   26.0200   38.3850 C.2   268  LYS268      0.2260
     94  O          9.2580   26.3470   37.9990 O.2   268  LYS268     -0.2867
     95  CB         7.6230   27.2330   40.5250 C.3   268  LYS268      0.0271
     96  CG         7.0800   28.5120   41.1390 C.3   268  LYS268      0.0035
     97  CD         7.7030   28.7900   42.4970 C.3   268  LYS268      0.0206
     98  CE         7.2760   27.7620   43.5260 C.3   268  LYS268      0.1093
     99  NZ         7.7720   28.1150   44.8840 N.3   268  LYS268     -0.1314
    100  N         13.2110   28.3940   40.2370 N.3   279  TRP279     -0.1241
    101  CA        11.7950   28.0910   40.4060 C.3   279  TRP279      0.1605
    102  C         11.5460   26.5910   40.2970 C.2   279  TRP279      0.2264
    103  O         10.6210   26.0600   40.9130 O.2   279  TRP279     -0.2867
    104  CB        10.9520   28.8360   39.3700 C.3   279  TRP279      0.0550
    105  CG        10.5260   30.2030   39.8030 C.ar  279  TRP279      0.0003
    106  CD1       10.9780   30.8990   40.8860 C.ar  279  TRP279      0.0946
    107  CD2        9.5480   31.0360   39.1700 C.ar  279  TRP279      0.0152
    108  NE1       10.3470   32.1170   40.9620 N.ar  279  TRP279     -0.2442
    109  CE2        9.4650   32.2250   39.9220 C.ar  279  TRP279      0.0810
    110  CE3        8.7370   30.8920   38.0410 C.ar  279  TRP279      0.0012
    111  CZ2        8.6020   33.2650   39.5770 C.ar  279  TRP279      0.0191
    112  CZ3        7.8810   31.9250   37.7030 C.ar  279  TRP279      0.0001
    113  CH2        7.8200   33.0960   38.4680 C.ar  279  TRP279      0.0015
@<TRIPOS>BOND
     1     1     2    1
     2     5     2    1
     3     5     6    1
     4     8     6   ar
     5     2     3    1
     6     6     7   ar
     7    26    25    2
     8    31    32   ar
     9    31    29   ar
    10    32    30   ar
    11    29    28   ar
    12    30    28   ar
    13    28    27    1
    14    27    24    1
    15     3     4    2
    16    24    25    1
    17    24    23    1
    18   112   110   ar
    19   112   113   ar
    20    94    93    2
    21   110   107   ar
    22    18    17    2
    23    93    92    1
    24   113   111   ar
    25    23    17   am
    26    17    16    1
    27    91    92    1
    28    92    95    1
    29     9    10    1
    30   107   105   ar
    31   107   109   ar
    32    89    90   ar
    33    89    87   ar
    34   104   105    1
    35   104   101    1
    36    90    88   ar
    37   111   109   ar
    38    12    11    2
    39    14    13    1
    40   105   106   ar
    41   109   108   ar
    42    19    16    1
    43    19    20    1
    44   100   101    1
    45   102   101    1
    46   102   103    2
    47    16    15    1
    48    87    84   ar
    49    10    11    1
    50    10    13    1
    51    95    96    1
    52    88    86   ar
    53   106   108   ar
    54    96    97    1
    55    80    79    2
    56    20    22   ar
    57    20    21   ar
    58    84    86   ar
    59    84    82   ar
    60    86    85   ar
    61    79    78    1
    62    78    77    1
    63    78    81    1
    64    97    98    1
    65    82    81    1
    66    82    83   ar
    67    85    83   ar
    68    98    99    1
    69    67    65   ar
    70    66    65   ar
    71    65    64    1
    72    68    69    1
    73    76    74   ar
    74    64    63    1
    75    57    56   ar
    76    69    70    1
    77    69    72    1
    78    70    71    2
    79    40    39   ar
    80    74    75   ar
    81    74    73    1
    82    63    60    1
    83    56    58   ar
    84    56    55    1
    85    53    52    2
    86    73    72    1
    87    39    41   ar
    88    39    38    1
    89    54    55    1
    90    54    51    1
    91    37    38    1
    92    37    34    1
    93    33    34    1
    94    60    59    1
    95    60    61    1
    96    52    59   am
    97    52    51    1
    98    34    35    1
    99    61    62    2
   100    51    50    1
   101    36    35    2
   102    50    44   am
   103    44    45    2
   104    44    43    1
   105    46    43    1
   106    46    47    1
   107    42    43    1
   108    47    49   ar
   109    47    48   ar
