@<TRIPOS>MOLECULE
tmp/4de6A00.pdb
 96 89 0 0 0
SMALL
GASTEIGER

@<TRIPOS>ATOM
      1  N          6.8720  -35.2490  -52.9560 N.3    23  LEU23      -0.1245
      2  CA         5.4200  -35.3730  -53.0020 C.3    23  LEU23       0.1561
      3  C          4.8380  -35.1390  -51.6120 C.2    23  LEU23       0.2260
      4  O          3.8050  -34.5100  -51.4800 O.2    23  LEU23      -0.2867
      5  CB         4.9890  -36.7350  -53.5650 C.3    23  LEU23       0.0270
      6  CG         5.3100  -36.9580  -55.0540 C.3    23  LEU23       0.0019
      7  CD1        4.8470  -38.3500  -55.5160 C.3    23  LEU23       0.0001
      8  CD2        4.6980  -35.8630  -55.9290 C.3    23  LEU23       0.0001
      9  N          4.8840  -31.4530  -51.2170 N.3    26  SER26      -0.1202
     10  CA         3.8100  -30.8630  -52.0010 C.3    26  SER26       0.2020
     11  C          2.4730  -30.9770  -51.2690 C.2    26  SER26       0.2618
     12  O          1.6960  -30.0190  -51.2180 O.2    26  SER26      -0.2717
     13  CB         3.7190  -31.5360  -53.3580 C.3    26  SER26       0.2103
     14  OG         2.7530  -30.8940  -54.1410 O.3    26  SER26      -0.2182
     15  N          2.2160  -32.1570  -50.7110 N.am   27  TYR27      -0.1975
     16  CA         0.9940  -32.4160  -49.9520 C.3    27  TYR27       0.1639
     17  C          0.9050  -31.4860  -48.7340 C.2    27  TYR27       0.2290
     18  O         -0.1520  -30.9520  -48.4230 O.2    27  TYR27      -0.2864
     19  CB         1.0080  -33.8710  -49.4850 C.3    27  TYR27       0.0560
     20  CG        -0.3380  -34.4860  -49.1620 C.ar   27  TYR27      -0.0198
     21  CD1       -1.5310  -33.8690  -49.5210 C.ar   27  TYR27      -0.0009
     22  CD2       -0.4080  -35.7000  -48.4930 C.ar   27  TYR27      -0.0009
     23  CE1       -2.7650  -34.4600  -49.2230 C.ar   27  TYR27       0.0417
     24  CE2       -1.6320  -36.2930  -48.1910 C.ar   27  TYR27       0.0417
     25  CZ        -2.7980  -35.6730  -48.5540 C.ar   27  TYR27       0.1957
     26  OH        -3.9890  -36.2760  -48.2320 O.3    27  TYR27      -0.2866
     27  N         -0.0240  -28.0890  -49.8840 N.3    30  LEU30      -0.1245
     28  CA        -1.4360  -28.0810  -50.2620 C.3    30  LEU30       0.1561
     29  C         -2.2830  -27.8250  -49.0190 C.2    30  LEU30       0.2260
     30  O         -3.1810  -26.9690  -49.0270 O.2    30  LEU30      -0.2867
     31  CB        -1.8360  -29.4110  -50.8980 C.3    30  LEU30       0.0270
     32  CG        -3.2880  -29.4890  -51.3820 C.3    30  LEU30       0.0019
     33  CD1       -3.4960  -28.5250  -52.5510 C.3    30  LEU30       0.0001
     34  CD2       -3.6660  -30.9240  -51.7930 C.3    30  LEU30       0.0001
     35  N          0.3950  -22.4380  -51.8650 N.3    51  ARG51      -0.1245
     36  CA        -0.0920  -23.1760  -53.0340 C.3    51  ARG51       0.1563
     37  C          0.9400  -23.2030  -54.1640 C.2    51  ARG51       0.2260
     38  O          1.1120  -24.2230  -54.8320 O.2    51  ARG51      -0.2867
     39  CB        -1.4450  -22.6510  -53.5190 C.3    51  ARG51       0.0307
     40  CG        -2.6060  -23.0730  -52.6100 C.3    51  ARG51       0.0489
     41  CD        -3.9620  -22.7480  -53.2140 C.3    51  ARG51       0.2205
     42  NE        -4.3340  -23.6550  -54.2940 N.pl3  51  ARG51      -0.0865
     43  CZ        -5.4750  -23.5660  -54.9720 C.cat  51  ARG51       0.5346
     44  NH1       -6.3520  -22.6080  -54.6710 N.pl3  51  ARG51       0.1354
     45  NH2       -5.7420  -24.4280  -55.9500 N.pl3  51  ARG51       0.1354
     46  N          3.4640  -25.7810  -53.2030 N.3    54  ALA54      -0.1231
     47  CA         2.9560  -27.1300  -53.4660 C.3    54  ALA54       0.1694
     48  C          3.2630  -27.5090  -54.9070 C.2    54  ALA54       0.2591
     49  O          3.6910  -28.6280  -55.2060 O.2    54  ALA54      -0.2718
     50  CB         1.4450  -27.1960  -53.2200 C.3    54  ALA54       0.0304
     51  N          3.0400  -26.5580  -55.8030 N.am   55  GLU55      -0.1979
     52  CA         3.2390  -26.7970  -57.2190 C.3    55  GLU55       0.1602
     53  C          4.7180  -26.9810  -57.5370 C.2    55  GLU55       0.2287
     54  O          5.0850  -27.8990  -58.2710 O.2    55  GLU55      -0.2864
     55  CB         2.6400  -25.6550  -58.0400 C.3    55  GLU55       0.0415
     56  CG         3.0870  -25.6540  -59.4770 C.3    55  GLU55       0.1163
     57  CD         2.3930  -24.5810  -60.2950 C.2    55  GLU55       0.3649
     58  OE1        1.4390  -23.9520  -59.7730 O.co2  55  GLU55      -0.2457
     59  OE2        2.8030  -24.3740  -61.4580 O.co2  55  GLU55      -0.2457
     60  N          5.8130  -30.4530  -56.4140 N.3    58  ARG58      -0.1231
     61  CA         5.3000  -31.4780  -57.3060 C.3    58  ARG58       0.1694
     62  C          6.1310  -31.5330  -58.5830 C.2    58  ARG58       0.2591
     63  O          6.3960  -32.6140  -59.1190 O.2    58  ARG58      -0.2718
     64  CB         3.8320  -31.2040  -57.6450 C.3    58  ARG58       0.0321
     65  CG         3.3160  -32.0490  -58.7890 C.3    58  ARG58       0.0489
     66  CD         1.9760  -31.5590  -59.2960 C.3    58  ARG58       0.2205
     67  NE         2.0810  -30.2990  -60.0360 N.pl3  58  ARG58      -0.0865
     68  CZ         2.7900  -30.1310  -61.1530 C.cat  58  ARG58       0.5346
     69  NH1        3.4810  -31.1370  -61.6700 N.pl3  58  ARG58       0.1354
     70  NH2        2.8200  -28.9460  -61.7530 N.pl3  58  ARG58       0.1354
     71  N          6.5430  -30.3660  -59.0690 N.am   59  GLU59      -0.1979
     72  CA         7.3780  -30.3140  -60.2620 C.3    59  GLU59       0.1602
     73  C          8.7810  -30.8450  -59.9760 C.2    59  GLU59       0.2287
     74  O          9.4120  -31.4400  -60.8480 O.2    59  GLU59      -0.2864
     75  CB         7.4130  -28.8990  -60.8360 C.3    59  GLU59       0.0415
     76  CG         6.0820  -28.5150  -61.4780 C.3    59  GLU59       0.1163
     77  CD         5.9440  -27.0240  -61.7050 C.2    59  GLU59       0.3649
     78  OE1        4.9080  -26.5940  -62.2780 O.co2  59  GLU59      -0.2457
     79  OE2        6.8720  -26.2870  -61.3070 O.co2  59  GLU59      -0.2457
     80  N          8.4290  -34.5370  -60.2750 N.3    62  GLU62      -0.1245
     81  CA         8.3480  -34.9280  -61.6780 C.3    62  GLU62       0.1567
     82  C          9.7040  -34.8750  -62.3720 C.2    62  GLU62       0.2260
     83  O         10.0370  -35.7390  -63.1810 O.2    62  GLU62      -0.2867
     84  CB         7.3490  -34.0440  -62.4250 C.3    62  GLU62       0.0388
     85  CG         5.9100  -34.2790  -61.9890 C.3    62  GLU62       0.1160
     86  CD         4.9120  -33.5010  -62.8250 C.2    62  GLU62       0.3649
     87  OE1        3.7010  -33.5730  -62.5100 O.co2  62  GLU62      -0.2457
     88  OE2        5.3370  -32.8240  -63.7920 O.co2  62  GLU62      -0.2457
     89  N          2.0590  -42.0030  -49.5070 N.3    80  LEU80      -0.1245
     90  CA         2.4240  -40.6470  -49.1540 C.3    80  LEU80       0.1561
     91  C          1.7710  -40.3560  -47.8240 C.2    80  LEU80       0.2260
     92  O          0.5490  -40.3760  -47.7180 O.2    80  LEU80      -0.2867
     93  CB         1.9080  -39.6480  -50.2000 C.3    80  LEU80       0.0270
     94  CG         2.4860  -39.7400  -51.6180 C.3    80  LEU80       0.0019
     95  CD1        1.8030  -38.7460  -52.5590 C.3    80  LEU80       0.0001
     96  CD2        3.9940  -39.5150  -51.6100 C.3    80  LEU80       0.0001
@<TRIPOS>BOND
     1    88    86   ar
     2    83    82    2
     3    86    87   ar
     4    86    85    1
     5    84    85    1
     6    84    81    1
     7    82    81    1
     8    78    77   ar
     9    70    68    1
    10    77    76    1
    11    77    79   ar
    12    81    80    1
    13    69    68    1
    14    76    75    1
    15    59    57   ar
    16    68    67    2
    17    74    73    2
    18    75    72    1
    19    57    58   ar
    20    57    56    1
    21    72    73    1
    22    72    71    1
    23    67    66    1
    24    56    55    1
    25    66    65    1
    26    63    62    2
    27    71    62   am
    28    65    64    1
    29    62    61    1
    30    54    53    2
    31    55    52    1
    32    64    61    1
    33    53    52    1
    34    61    60    1
    35    52    51    1
    36    45    43    1
    37     8     6    1
    38    51    48   am
    39     7     6    1
    40    49    48    2
    41     6     5    1
    42    43    44    1
    43    43    42    2
    44    48    47    1
    45    38    37    2
    46    42    41    1
    47    37    36    1
    48    14    13    1
    49     5     2    1
    50    39    36    1
    51    39    40    1
    52    47    50    1
    53    47    46    1
    54    13    10    1
    55    41    40    1
    56    36    35    1
    57     2     1    1
    58     2     3    1
    59    95    94    1
    60    33    32    1
    61    10    11    1
    62    10     9    1
    63    34    32    1
    64    94    96    1
    65    94    93    1
    66     3     4    2
    67    32    31    1
    68    11    12    2
    69    11    15   am
    70    31    28    1
    71    15    16    1
    72    28    27    1
    73    28    29    1
    74    93    90    1
    75    16    19    1
    76    16    17    1
    77    21    23   ar
    78    21    20   ar
    79    89    90    1
    80    19    20    1
    81    23    25   ar
    82    20    22   ar
    83    90    91    1
    84    30    29    2
    85    17    18    2
    86    25    26    1
    87    25    24   ar
    88    22    24   ar
    89    91    92    2
