@<TRIPOS>MOLECULE
tmp/4de7A00.pdb
 109 102 0 0 0
SMALL
GASTEIGER

@<TRIPOS>ATOM
      1  N         21.7780  -11.9550   22.9870 N.3    30  PRO30      -0.2102
      2  CA        20.7860  -12.9940   23.2680 C.3    30  PRO30       0.1504
      3  C         20.0010  -13.2700   22.0020 C.2    30  PRO30       0.2576
      4  O         19.7300  -12.3470   21.2290 O.2    30  PRO30      -0.2718
      5  CB        19.9110  -12.3510   24.3440 C.3    30  PRO30       0.0282
      6  CG        20.0180  -10.8960   24.0880 C.3    30  PRO30       0.0208
      7  CD        21.4110  -10.6580   23.5790 C.3    30  PRO30       0.0893
      8  N         19.6560  -14.5300   21.7770 N.am   31  ALA31      -0.1966
      9  CA        19.0120  -14.8960   20.5300 C.3    31  ALA31       0.1728
     10  C         18.0460  -16.0560   20.6810 C.2    31  ALA31       0.2616
     11  O         18.4100  -17.1230   21.1730 O.2    31  ALA31      -0.2715
     12  CB        20.0690  -15.2380   19.4930 C.3    31  ALA31       0.0334
     13  N         16.8040  -15.8310   20.2710 N.am   32  LEU32      -0.1977
     14  CA        15.8450  -16.9120   20.1400 C.3    32  LEU32       0.1596
     15  C         15.2470  -16.8430   18.7420 C.2    32  LEU32       0.2287
     16  O         14.4290  -15.9680   18.4560 O.2    32  LEU32      -0.2864
     17  CB        14.7490  -16.7870   21.1970 C.3    32  LEU32       0.0297
     18  CG        13.6120  -17.8070   21.1250 C.3    32  LEU32       0.0022
     19  CD1       14.1220  -19.2150   21.3980 C.3    32  LEU32       0.0001
     20  CD2       12.5100  -17.4320   22.0980 C.3    32  LEU32       0.0001
     21  N         16.5160  -16.0330   15.6290 N.3    34  GLU34      -0.1245
     22  CA        16.7760  -14.8000   14.8910 C.3    34  GLU34       0.1567
     23  C         17.7050  -15.0200   13.7010 C.2    34  GLU34       0.2260
     24  O         18.5960  -14.2100   13.4440 O.2    34  GLU34      -0.2867
     25  CB        17.3740  -13.7620   15.8380 C.3    34  GLU34       0.0388
     26  CG        16.5210  -13.4770   17.0650 C.3    34  GLU34       0.1160
     27  CD        15.2590  -12.6870   16.7530 C.2    34  GLU34       0.3649
     28  OE1       15.0110  -12.3640   15.5700 O.co2  34  GLU34      -0.2457
     29  OE2       14.5120  -12.3830   17.7050 O.co2  34  GLU34      -0.2457
     30  N         18.9230  -19.0950   23.1640 N.3    61  SER61      -0.1217
     31  CA        17.8940  -19.2540   24.1780 C.3    61  SER61       0.1889
     32  C         16.8950  -20.3370   23.8000 C.2    61  SER61       0.2288
     33  O         15.7040  -20.2110   24.0960 O.2    61  SER61      -0.2866
     34  CB        17.1470  -17.9320   24.3380 C.3    61  SER61       0.2089
     35  OG        15.9520  -18.1130   25.0780 O.3    61  SER61      -0.2183
     36  N         12.4860  -17.4110   29.0270 N.3    93  GLY93      -0.1210
     37  CA        12.3830  -15.9640   29.0310 C.3    93  GLY93       0.1956
     38  C         13.7190  -15.2660   28.8770 C.2    93  GLY93       0.2611
     39  O         14.7740  -15.8690   29.0790 O.2    93  GLY93      -0.2717
     40  N         13.6700  -13.9870   28.5210 N.am   94  LYS94      -0.1979
     41  CA        14.8740  -13.2270   28.2100 C.3    94  LYS94       0.1596
     42  C         15.7590  -13.0280   29.4360 C.2    94  LYS94       0.2287
     43  O         16.9810  -13.1520   29.3500 O.2    94  LYS94      -0.2864
     44  CB        14.4970  -11.8780   27.5890 C.3    94  LYS94       0.0298
     45  CG        15.6320  -11.1130   26.9240 C.3    94  LYS94       0.0038
     46  CD        15.0840   -9.8750   26.2150 C.3    94  LYS94       0.0206
     47  CE        16.1700   -9.1040   25.4730 C.3    94  LYS94       0.1093
     48  NZ        15.6100   -7.9850   24.6530 N.3    94  LYS94      -0.1314
     49  N         18.2120  -15.6200   30.2370 N.3    97  ALA97      -0.1245
     50  CA        19.3230  -15.6150   29.2980 C.3    97  ALA97       0.1562
     51  C         20.3550  -14.5550   29.6520 C.2    97  ALA97       0.2260
     52  O         21.5520  -14.8290   29.6930 O.2    97  ALA97      -0.2867
     53  CB        18.8170  -15.4030   27.8840 C.3    97  ALA97       0.0290
     54  N         20.4830   -6.5830   21.1480 N.3   114  ASP114     -0.1225
     55  CA        19.4770   -7.5150   20.6510 C.3   114  ASP114      0.1805
     56  C         19.8370   -8.0380   19.2710 C.2   114  ASP114      0.2598
     57  O         20.3970   -7.3190   18.4500 O.2   114  ASP114     -0.2718
     58  CB        18.1090   -6.8420   20.5840 C.3   114  ASP114      0.1424
     59  CG        17.4180   -6.7950   21.9240 C.2   114  ASP114      0.3668
     60  OD1       17.8270   -7.5510   22.8300 O.co2 114  ASP114     -0.2456
     61  OD2       16.4580   -6.0080   22.0660 O.co2 114  ASP114     -0.2456
     62  N         19.5090   -9.2970   19.0200 N.am  115  SER115     -0.1938
     63  CA        19.9010   -9.9560   17.7840 C.3   115  SER115      0.2055
     64  C         18.8430   -9.8120   16.6820 C.2   115  SER115      0.2643
     65  O         18.9880  -10.3870   15.6050 O.2   115  SER115     -0.2714
     66  CB        20.2110  -11.4290   18.0460 C.3   115  SER115      0.2130
     67  OG        19.0940  -12.0940   18.5990 O.3   115  SER115     -0.2179
     68  N         17.7720   -9.0710   16.9630 N.am  116  ASP116     -0.1971
     69  CA        16.7050   -8.8570   15.9800 C.3   116  ASP116      0.1709
     70  C         16.8130   -7.5210   15.2530 C.2   116  ASP116      0.2293
     71  O         15.8970   -7.1170   14.5380 O.2   116  ASP116     -0.2864
     72  CB        15.3280   -8.9660   16.6440 C.3   116  ASP116      0.1436
     73  CG        15.0810   -7.8680   17.6620 C.2   116  ASP116      0.3671
     74  OD1       16.0640   -7.2340   18.1050 O.co2 116  ASP116     -0.2456
     75  OD2       13.9060   -7.6440   18.0270 O.co2 116  ASP116     -0.2456
     76  N         10.3250  -10.4320   29.5320 N.3   193  TYR193     -0.1241
     77  CA        10.5560   -9.0800   29.0290 C.3   193  TYR193      0.1605
     78  C         10.5910   -8.0070   30.1110 C.2   193  TYR193      0.2264
     79  O         10.6150   -6.8140   29.8090 O.2   193  TYR193     -0.2867
     80  CB         9.5090   -8.7290   27.9810 C.3   193  TYR193      0.0534
     81  CG         9.5380   -9.6390   26.7820 C.ar  193  TYR193     -0.0201
     82  CD1       10.6660   -9.7230   25.9730 C.ar  193  TYR193     -0.0009
     83  CD2        8.4340  -10.4040   26.4480 C.ar  193  TYR193     -0.0009
     84  CE1       10.6890  -10.5520   24.8680 C.ar  193  TYR193      0.0417
     85  CE2        8.4460  -11.2310   25.3500 C.ar  193  TYR193      0.0417
     86  CZ         9.5730  -11.3040   24.5630 C.ar  193  TYR193      0.1957
     87  OH         9.5780  -12.1340   23.4660 O.3   193  TYR193     -0.2866
     88  N         11.8330   -6.2990   13.4350 N.3   223  ARG223     -0.1245
     89  CA        10.6310   -7.0550   13.1810 C.3   223  ARG223      0.1563
     90  C          9.5410   -6.6790   14.1490 C.2   223  ARG223      0.2260
     91  O          9.5630   -7.1010   15.2960 O.2   223  ARG223     -0.2867
     92  CB        10.9390   -8.5390   13.3490 C.3   223  ARG223      0.0307
     93  CG         9.7470   -9.4440   13.3760 C.3   223  ARG223      0.0489
     94  CD        10.2250  -10.8890   13.3510 C.3   223  ARG223      0.2205
     95  NE        11.0870  -11.1900   14.4860 N.pl3 223  ARG223     -0.0865
     96  CZ        10.6590  -11.7080   15.6340 C.cat 223  ARG223      0.5346
     97  NH1        9.3630  -11.9910   15.8070 N.pl3 223  ARG223      0.1354
     98  NH2       11.5360  -11.9470   16.6090 N.pl3 223  ARG223      0.1354
     99  N          6.1070   -6.9550   15.9590 N.3   225  ARG225     -0.1245
    100  CA         5.3840   -8.1690   16.2670 C.3   225  ARG225      0.1563
    101  C          3.9000   -7.9630   16.3770 C.2   225  ARG225      0.2260
    102  O          3.3980   -6.8910   16.1040 O.2   225  ARG225     -0.2867
    103  CB         5.9000   -8.7710   17.5610 C.3   225  ARG225      0.0307
    104  CG         7.0730   -8.0450   18.1110 C.3   225  ARG225      0.0489
    105  CD         8.1270   -9.0120   18.5460 C.3   225  ARG225      0.2205
    106  NE         7.6560   -9.9340   19.5710 N.pl3 225  ARG225     -0.0865
    107  CZ         8.2890  -10.1500   20.7170 C.cat 225  ARG225      0.5346
    108  NH1        9.4130   -9.5010   20.9790 N.pl3 225  ARG225      0.1354
    109  NH2        7.8070  -11.0160   21.5880 N.pl3 225  ARG225      0.1354
@<TRIPOS>BOND
     1    89    92    1
     2    89    88    1
     3    89    90    1
     4    92    93    1
     5    94    93    1
     6    94    95    1
     7    24    23    2
     8    23    22    1
     9    90    91    2
    10    95    96    2
    11    71    70    2
    12    22    21    1
    13    22    25    1
    14    70    69    1
    15    28    27   ar
    16    65    64    2
    17    96    97    1
    18    96    98    1
    19    25    26    1
    20    99   100    1
    21    69    72    1
    22    69    68    1
    23   102   101    2
    24   100   101    1
    25   100   103    1
    26    72    73    1
    27    64    68   am
    28    64    63    1
    29    27    26    1
    30    27    29   ar
    31   103   104    1
    32    73    75   ar
    33    73    74   ar
    34    63    66    1
    35    63    62    1
    36    66    67    1
    37   104   105    1
    38    57    56    2
    39    16    15    2
    40   105   106    1
    41    15    14    1
    42    62    56   am
    43    56    55    1
    44    12     9    1
    45   106   107    2
    46    14    13    1
    47    14    17    1
    48    13    10   am
    49     9    10    1
    50     9     8    1
    51    58    55    1
    52    58    59    1
    53    55    54    1
    54    10    11    2
    55   107   108    1
    56   107   109    1
    57    18    17    1
    58    18    19    1
    59    18    20    1
    60     4     3    2
    61     8     3   am
    62    59    61   ar
    63    59    60   ar
    64     3     2    1
    65     1     2    1
    66     1     7    1
    67    30    31    1
    68     2     5    1
    69    87    86    1
    70     7     6    1
    71    32    33    2
    72    32    31    1
    73     6     5    1
    74    31    34    1
    75    34    35    1
    76    86    84   ar
    77    86    85   ar
    78    48    47    1
    79    84    82   ar
    80    85    83   ar
    81    47    46    1
    82    82    81   ar
    83    46    45    1
    84    83    81   ar
    85    81    80    1
    86    45    44    1
    87    44    41    1
    88    53    50    1
    89    80    77    1
    90    41    40    1
    91    41    42    1
    92    40    38   am
    93    38    37    1
    94    38    39    2
    95    36    37    1
    96    77    76    1
    97    77    78    1
    98    50    51    1
    99    50    49    1
   100    43    42    2
   101    51    52    2
   102    79    78    2
