@<TRIPOS>MOLECULE
tmp/4deaA00.pdb
 166 157 0 0 0
SMALL
GASTEIGER

@<TRIPOS>ATOM
      1  N          6.3950  -28.1230    4.5770 N.3    14  ARG14      -0.1245
      2  CA         5.7370  -28.1090    3.2860 C.3    14  ARG14       0.1563
      3  C          4.2660  -27.8220    3.3380 C.2    14  ARG14       0.2260
      4  O          3.5980  -28.0990    4.3270 O.2    14  ARG14      -0.2867
      5  CB         5.9000  -29.4470    2.5760 C.3    14  ARG14       0.0307
      6  CG         4.8480  -30.4690    2.9370 C.3    14  ARG14       0.0489
      7  CD         4.8270  -31.6360    1.9700 C.3    14  ARG14       0.2205
      8  NE         4.0800  -32.7340    2.5770 N.pl3  14  ARG14      -0.0865
      9  CZ         2.8230  -33.0660    2.2820 C.cat  14  ARG14       0.5346
     10  NH1        2.1570  -32.4000    1.3660 N.pl3  14  ARG14       0.1354
     11  NH2        2.2140  -34.0430    2.9490 N.pl3  14  ARG14       0.1354
     12  N          0.3890  -28.1930    2.8800 N.3    16  LEU16      -0.1231
     13  CA        -0.5040  -29.3350    2.9330 C.3    16  LEU16       0.1693
     14  C         -1.6640  -29.0300    2.0030 C.2    16  LEU16       0.2593
     15  O         -2.1610  -29.8970    1.3030 O.2    16  LEU16      -0.2718
     16  CB        -0.9950  -29.5530    4.3650 C.3    16  LEU16       0.0284
     17  CG         0.1270  -29.9780    5.3110 C.3    16  LEU16       0.0019
     18  CD1       -0.4030  -30.1900    6.7140 C.3    16  LEU16       0.0001
     19  CD2        0.7400  -31.2560    4.7680 C.3    16  LEU16       0.0001
     20  N         -2.0720  -27.7700    1.9960 N.am   17  GLY17      -0.1942
     21  CA        -3.1560  -27.3330    1.1420 C.3    17  GLY17       0.2014
     22  C         -3.1260  -25.8300    0.9420 C.2    17  GLY17       0.2638
     23  O         -2.7820  -25.0810    1.8580 O.2    17  GLY17      -0.2714
     24  N         -3.4810  -25.3810   -0.2580 N.am   18  LYS18      -0.1977
     25  CA        -3.5030  -23.9540   -0.5580 C.3    18  LYS18       0.1596
     26  C         -4.9180  -23.5280   -0.9240 C.2    18  LYS18       0.2287
     27  O         -5.4980  -24.0390   -1.8820 O.2    18  LYS18      -0.2864
     28  CB        -2.5330  -23.6450   -1.6940 C.3    18  LYS18       0.0298
     29  CG        -1.1020  -24.0490   -1.3840 C.3    18  LYS18       0.0038
     30  CD        -0.1660  -23.6870   -2.5130 C.3    18  LYS18       0.0206
     31  CE         1.2570  -24.0660   -2.1660 C.3    18  LYS18       0.1093
     32  NZ         1.6980  -23.3660   -0.9220 N.3    18  LYS18      -0.1314
     33  N         -2.3090  -24.2850    4.5100 N.3    24  VAL24      -0.1245
     34  CA        -2.0650  -25.1120    5.6700 C.3    24  VAL24       0.1561
     35  C         -0.6740  -25.7130    5.4900 C.2    24  VAL24       0.2260
     36  O         -0.3620  -26.3310    4.4620 O.2    24  VAL24      -0.2867
     37  CB        -3.0980  -26.2280    5.7860 C.3    24  VAL24       0.0252
     38  CG1       -2.7790  -27.0990    6.9970 C.3    24  VAL24       0.0019
     39  CG2       -4.5000  -25.6150    5.8870 C.3    24  VAL24       0.0019
     40  N          0.0320  -28.8050   12.4730 N.3    37  ALA37      -0.1245
     41  CA        -0.3140  -28.1140   11.2420 C.3    37  ALA37       0.1562
     42  C         -0.6350  -26.6690   11.5640 C.2    37  ALA37       0.2260
     43  O         -1.3340  -26.3670   12.5310 O.2    37  ALA37      -0.2867
     44  CB        -1.4760  -28.7710   10.5410 C.3    37  ALA37       0.0290
     45  N         -2.3040  -23.2990   10.0310 N.3    39  LYS39      -0.1245
     46  CA        -3.1590  -22.7370    8.9900 C.3    39  LYS39       0.1561
     47  C         -2.9930  -21.2290    9.0150 C.2    39  LYS39       0.2260
     48  O         -3.3520  -20.5830    9.9910 O.2    39  LYS39      -0.2867
     49  CB        -4.6100  -23.1230    9.2600 C.3    39  LYS39       0.0271
     50  CG        -5.6070  -22.5310    8.3110 C.3    39  LYS39       0.0035
     51  CD        -6.9220  -23.2610    8.4340 C.3    39  LYS39       0.0206
     52  CE        -7.9140  -22.7550    7.4150 C.3    39  LYS39       0.1093
     53  NZ        -9.0540  -23.7070    7.2860 N.3    39  LYS39      -0.1314
     54  N        -10.5870  -33.1410   14.6220 N.3    71  LEU71      -0.1245
     55  CA        -9.2760  -32.5100   14.5980 C.3    71  LEU71       0.1561
     56  C         -9.2130  -31.4160   15.6590 C.2    71  LEU71       0.2260
     57  O        -10.1300  -30.6050   15.7830 O.2    71  LEU71      -0.2867
     58  CB        -9.0120  -31.9020   13.2380 C.3    71  LEU71       0.0270
     59  CG        -7.5720  -31.4690   13.0260 C.3    71  LEU71       0.0019
     60  CD1       -6.7700  -32.6900   12.6190 C.3    71  LEU71       0.0001
     61  CD2       -7.4940  -30.4260   11.9290 C.3    71  LEU71       0.0001
     62  N         -3.1970  -26.2990   14.6370 N.3    87  LEU87      -0.1231
     63  CA        -4.0130  -27.4950   14.5590 C.3    87  LEU87       0.1693
     64  C         -3.2640  -28.8070   14.7080 C.2    87  LEU87       0.2592
     65  O         -2.0700  -28.8900   14.4430 O.2    87  LEU87      -0.2718
     66  CB        -4.7210  -27.5040   13.2000 C.3    87  LEU87       0.0284
     67  CG        -5.4850  -26.2200   12.8590 C.3    87  LEU87       0.0019
     68  CD1       -5.7290  -26.1730   11.3770 C.3    87  LEU87       0.0001
     69  CD2       -6.7980  -26.1600   13.6400 C.3    87  LEU87       0.0001
     70  N         -3.9920  -29.8330   15.1250 N.am   88  GLU88      -0.1966
     71  CA        -3.4460  -31.1700   15.2100 C.3    88  GLU88       0.1733
     72  C         -3.2170  -31.5410   13.7440 C.2    88  GLU88       0.2616
     73  O         -4.0410  -31.2090   12.8870 O.2    88  GLU88      -0.2715
     74  CB        -4.4740  -32.1210   15.8160 C.3    88  GLU88       0.0429
     75  CG        -4.3900  -33.5790   15.3740 C.3    88  GLU88       0.1163
     76  CD        -5.5960  -34.3840   15.8990 C.2    88  GLU88       0.3649
     77  OE1       -6.4640  -33.7710   16.5700 O.co2  88  GLU88      -0.2457
     78  OE2       -5.6850  -35.6100   15.6370 O.co2  88  GLU88      -0.2457
     79  N         -2.0980  -32.2110   13.4700 N.am   89  TYR89      -0.1960
     80  CA        -1.7360  -32.6370   12.1280 C.3    89  TYR89       0.1771
     81  C         -2.2650  -34.0480   11.8560 C.2    89  TYR89       0.2619
     82  O         -1.9910  -34.9930   12.6260 O.2    89  TYR89      -0.2715
     83  CB        -0.2030  -32.5770   11.9840 C.3    89  TYR89       0.0574
     84  CG         0.4130  -33.4450   10.8950 C.ar   89  TYR89      -0.0198
     85  CD1        0.0860  -33.2730    9.5440 C.ar   89  TYR89      -0.0009
     86  CD2        1.3750  -34.4040   11.2210 C.ar   89  TYR89      -0.0009
     87  CE1        0.7080  -34.0360    8.5430 C.ar   89  TYR89       0.0417
     88  CE2        2.0100  -35.1670   10.2470 C.ar   89  TYR89       0.0417
     89  CZ         1.6820  -34.9890    8.9080 C.ar   89  TYR89       0.1957
     90  OH         2.3360  -35.7710    7.9570 O.3    89  TYR89      -0.2866
     91  N         -3.0380  -34.1840   10.7780 N.am   90  ALA90      -0.1964
     92  CA        -3.5900  -35.4760   10.3780 C.3    90  ALA90       0.1713
     93  C         -2.6510  -35.9570    9.2750 C.2    90  ALA90       0.2458
     94  O         -2.6820  -35.4360    8.1680 O.2    90  ALA90      -0.2730
     95  CB        -4.9930  -35.2950    9.8590 C.3    90  ALA90       0.0333
     96  N         -1.8230  -36.9810    9.5590 N.am   91  PRO91      -0.2727
     97  CA        -0.8370  -37.5420    8.6140 C.3    91  PRO91       0.1402
     98  C         -1.2710  -38.1820    7.2990 C.2    91  PRO91       0.2269
     99  O         -0.4810  -38.2050    6.3580 O.2    91  PRO91      -0.2865
    100  CB        -0.0400  -38.5450    9.4690 C.3    91  PRO91       0.0296
    101  CG        -0.4990  -38.2840   10.9050 C.3    91  PRO91       0.0237
    102  CD        -1.9170  -37.8280   10.7550 C.3    91  PRO91       0.0939
    103  N         -3.7420  -37.1540    5.2380 N.3    93  GLY93      -0.1210
    104  CA        -4.4270  -36.2540    4.3220 C.3    93  GLY93       0.1956
    105  C         -5.9380  -36.2420    4.3110 C.2    93  GLY93       0.2612
    106  O         -6.5820  -36.7570    5.2250 O.2    93  GLY93      -0.2717
    107  N         -6.5200  -35.6640    3.2610 N.am   94  THR94      -0.1952
    108  CA        -7.9840  -35.5750    3.1730 C.3    94  THR94       0.1897
    109  C         -8.6790  -36.8120    2.6230 C.2    94  THR94       0.2313
    110  O         -8.1100  -37.5780    1.8470 O.2    94  THR94      -0.2863
    111  CB        -8.4600  -34.3790    2.3130 C.3    94  THR94       0.1794
    112  OG1       -8.1870  -34.6420    0.9300 O.3    94  THR94      -0.2208
    113  CG2       -7.7660  -33.0940    2.7390 C.3    94  THR94       0.0378
    114  N        -11.0860  -36.6120    0.7510 N.3    96  TYR96      -0.1227
    115  CA       -11.2960  -36.2090   -0.6200 C.3    96  TYR96       0.1736
    116  C        -10.2100  -36.8100   -1.5310 C.2    96  TYR96       0.2595
    117  O        -10.5220  -37.3600   -2.5860 O.2    96  TYR96      -0.2718
    118  CB       -11.2490  -34.6910   -0.7230 C.3    96  TYR96       0.0548
    119  CG       -11.4030  -34.2200   -2.1390 C.ar   96  TYR96      -0.0200
    120  CD1      -12.6630  -34.1150   -2.7190 C.ar   96  TYR96      -0.0009
    121  CD2      -10.2910  -33.9420   -2.9210 C.ar   96  TYR96      -0.0009
    122  CE1      -12.8110  -33.7430   -4.0480 C.ar   96  TYR96       0.0417
    123  CE2      -10.4210  -33.5750   -4.2480 C.ar   96  TYR96       0.0417
    124  CZ       -11.6840  -33.4730   -4.8090 C.ar   96  TYR96       0.1957
    125  OH       -11.8260  -33.0890   -6.1270 O.3    96  TYR96      -0.2866
    126  N         -8.9410  -36.6960   -1.1330 N.am   97  ARG97      -0.1980
    127  CA        -7.8470  -37.2480   -1.9320 C.3    97  ARG97       0.1597
    128  C         -7.9250  -38.7790   -1.9830 C.2    97  ARG97       0.2287
    129  O         -7.6160  -39.3690   -3.0070 O.2    97  ARG97      -0.2864
    130  CB        -6.4850  -36.8140   -1.3670 C.3    97  ARG97       0.0334
    131  CG        -5.2810  -37.2010   -2.2380 C.3    97  ARG97       0.0492
    132  CD        -3.9330  -36.7050   -1.7000 C.3    97  ARG97       0.2205
    133  NE        -3.5950  -37.2740   -0.3950 N.pl3  97  ARG97      -0.0865
    134  CZ        -2.3620  -37.3060    0.1200 C.cat  97  ARG97       0.5346
    135  NH1       -1.3400  -36.8040   -0.5640 N.pl3  97  ARG97       0.1354
    136  NH2       -2.1420  -37.8280    1.3260 N.pl3  97  ARG97       0.1354
    137  N        -13.8470  -32.8150    1.5160 N.3   137  GLU137     -0.1245
    138  CA       -12.7340  -31.8750    1.6200 C.3   137  GLU137      0.1567
    139  C        -12.5090  -31.4570    3.0560 C.2   137  GLU137      0.2260
    140  O        -11.4410  -30.9620    3.3840 O.2   137  GLU137     -0.2867
    141  CB       -12.9980  -30.6090    0.8040 C.3   137  GLU137      0.0388
    142  CG       -12.9310  -30.8030   -0.6830 C.3   137  GLU137      0.1160
    143  CD       -13.6170  -29.6790   -1.4290 C.2   137  GLU137      0.3649
    144  OE1      -13.6770  -29.7450   -2.6890 O.co2 137  GLU137     -0.2457
    145  OE2      -14.0930  -28.7330   -0.7460 O.co2 137  GLU137     -0.2457
    146  N        -10.3430  -35.2200    7.4930 N.3   140  LEU140     -0.1245
    147  CA        -8.9340  -35.6220    7.4410 C.3   140  LEU140      0.1561
    148  C         -8.7520  -37.0500    7.9480 C.2   140  LEU140      0.2260
    149  O         -9.6820  -37.6530    8.4810 O.2   140  LEU140     -0.2867
    150  CB        -8.0640  -34.6500    8.2530 C.3   140  LEU140      0.0270
    151  CG        -7.9770  -33.2410    7.6560 C.3   140  LEU140      0.0019
    152  CD1       -7.4810  -32.2840    8.6930 C.3   140  LEU140      0.0001
    153  CD2       -7.0760  -33.2310    6.4640 C.3   140  LEU140      0.0001
    154  N        -12.5730  -31.9920   10.3150 N.3   150  ALA150     -0.1231
    155  CA       -11.5270  -30.9860   10.3820 C.3   150  ALA150      0.1694
    156  C        -11.8200  -29.5160   10.2340 C.2   150  ALA150      0.2592
    157  O        -11.1480  -28.7040   10.8580 O.2   150  ALA150     -0.2718
    158  CB       -10.4500  -31.3590    9.3700 C.3   150  ALA150      0.0304
    159  N        -12.7940  -29.1520    9.4150 N.am  151  ASP151     -0.1974
    160  CA       -13.0290  -27.7330    9.1840 C.3   151  ASP151      0.1709
    161  C        -14.3650  -27.2010    9.6880 C.2   151  ASP151      0.2293
    162  O        -15.4230  -27.4430    9.0950 O.2   151  ASP151     -0.2864
    163  CB       -12.8640  -27.4570    7.6920 C.3   151  ASP151      0.1436
    164  CG       -12.6810  -26.0020    7.3900 C.2   151  ASP151      0.3671
    165  OD1      -12.4070  -25.6820    6.2110 O.co2 151  ASP151     -0.2456
    166  OD2      -12.8130  -25.1750    8.3220 O.co2 151  ASP151     -0.2456
@<TRIPOS>BOND
     1   125   124    1
     2   124   123   ar
     3   124   122   ar
     4   123   121   ar
     5   122   120   ar
     6   129   128    2
     7   121   119   ar
     8   120   119   ar
     9   144   143   ar
    10   117   116    2
    11    30    31    1
    12    30    29    1
    13   131   132    1
    14   131   130    1
    15    31    32    1
    16   119   118    1
    17   128   127    1
    18   127   130    1
    19   127   126    1
    20    27    26    2
    21   132   133    1
    22    28    29    1
    23    28    25    1
    24   116   126   am
    25   116   115    1
    26   143   145   ar
    27   143   142    1
    28    26    25    1
    29   118   115    1
    30   142   141    1
    31   115   114    1
    32   135   134    1
    33    25    24    1
    34   133   134    2
    35    24    22   am
    36   134   136    1
    37   141   138    1
    38   112   111    1
    39    22    21    1
    40    22    23    2
    41    21    20    1
    42    15    14    2
    43    10     9    1
    44   137   138    1
    45   138   139    1
    46   110   109    2
    47     7     8    1
    48     7     6    1
    49    20    14   am
    50    14    13    1
    51     9     8    2
    52     9    11    1
    53   111   113    1
    54   111   108    1
    55     5     6    1
    56     5     2    1
    57   109   108    1
    58    12    13    1
    59    13    16    1
    60   139   140    2
    61   108   107    1
    62   107   105   am
    63     2     3    1
    64     2     1    1
    65     3     4    2
    66   105   104    1
    67   105   106    2
    68   104   103    1
    69    16    17    1
    70    36    35    2
    71    33    34    1
    72    19    17    1
    73    17    18    1
    74    35    34    1
    75    34    37    1
    76    37    39    1
    77    37    38    1
    78   165   164   ar
    79    99    98    2
    80   153   151    1
    81    53    52    1
    82    98    97    1
    83   164   163    1
    84   164   166   ar
    85    52    51    1
    86   147   146    1
    87   147   148    1
    88   147   150    1
    89   151   150    1
    90   151   152    1
    91   163   160    1
    92   148   149    2
    93    90    89    1
    94    94    93    2
    95    50    51    1
    96    50    49    1
    97    87    89   ar
    98    87    85   ar
    99    97   100    1
   100    97    96    1
   101    89    88   ar
   102    46    47    1
   103    46    49    1
   104    46    45    1
   105    47    48    2
   106   162   161    2
   107   160   159    1
   108   160   161    1
   109    93    96   am
   110    93    92    1
   111   158   155    1
   112   159   156   am
   113   100   101    1
   114    85    84   ar
   115    96   102    1
   116    95    92    1
   117   156   155    1
   118   156   157    2
   119    88    86   ar
   120   154   155    1
   121    92    91    1
   122    44    41    1
   123   102   101    1
   124    91    81   am
   125    84    86   ar
   126    84    83    1
   127    41    42    1
   128    41    40    1
   129    68    67    1
   130    42    43    2
   131    81    80    1
   132    81    82    2
   133    61    59    1
   134    83    80    1
   135    80    79    1
   136    60    59    1
   137    67    66    1
   138    67    69    1
   139    73    72    2
   140    59    58    1
   141    66    63    1
   142    58    55    1
   143    79    72   am
   144    72    71    1
   145    65    64    2
   146    63    62    1
   147    63    64    1
   148    55    54    1
   149    55    56    1
   150    64    70   am
   151    70    71    1
   152    71    74    1
   153    75    74    1
   154    75    76    1
   155    78    76   ar
   156    56    57    2
   157    76    77   ar
