@<TRIPOS>MOLECULE
tmp/4debA00.pdb
 170 161 0 0 0
SMALL
GASTEIGER

@<TRIPOS>ATOM
      1  N          6.5680  -28.1890    4.7260 N.3    13  ARG13      -0.1245
      2  CA         5.8530  -28.4910    3.4960 C.3    13  ARG13       0.1563
      3  C          4.4300  -27.9630    3.4720 C.2    13  ARG13       0.2260
      4  O          3.7210  -27.9940    4.4780 O.2    13  ARG13      -0.2867
      5  CB         5.8000  -30.0010    3.2570 C.3    13  ARG13       0.0307
      6  CG         5.0090  -30.4020    2.0170 C.3    13  ARG13       0.0489
      7  CD         5.0190  -31.9000    1.7700 C.3    13  ARG13       0.2205
      8  NE         3.8840  -32.6230    2.3580 N.pl3  13  ARG13      -0.0865
      9  CZ         2.6380  -32.6130    1.8770 C.cat  13  ARG13       0.5346
     10  NH1        2.3330  -31.9080    0.7920 N.pl3  13  ARG13       0.1354
     11  NH2        1.6990  -33.3360    2.4670 N.pl3  13  ARG13       0.1354
     12  N          0.7580  -28.1650    2.9610 N.3    15  LEU15      -0.1231
     13  CA        -0.2520  -29.2070    2.9530 C.3    15  LEU15       0.1693
     14  C         -1.3020  -28.8320    1.9190 C.2    15  LEU15       0.2593
     15  O         -1.8740  -29.6900    1.2540 O.2    15  LEU15      -0.2718
     16  CB        -0.8820  -29.3340    4.3380 C.3    15  LEU15       0.0284
     17  CG         0.1420  -29.5450    5.4480 C.3    15  LEU15       0.0019
     18  CD1       -0.5380  -29.5600    6.7930 C.3    15  LEU15       0.0001
     19  CD2        0.8770  -30.8220    5.2030 C.3    15  LEU15       0.0001
     20  N         -1.5370  -27.5510    1.8050 N.am   16  GLY16      -0.1942
     21  CA        -2.2160  -27.0280    0.6570 C.3    16  GLY16       0.2014
     22  C         -3.1890  -25.9330    0.9100 C.2    16  GLY16       0.2638
     23  O         -3.1300  -25.2180    1.8700 O.2    16  GLY16      -0.2714
     24  N         -4.1060  -25.7820   -0.0150 N.am   17  LYS17      -0.1977
     25  CA        -5.2070  -24.8830    0.1960 C.3    17  LYS17       0.1596
     26  C         -5.0820  -23.5400   -0.4890 C.2    17  LYS17       0.2287
     27  O         -4.1480  -23.2760   -1.2260 O.2    17  LYS17      -0.2864
     28  CB        -5.4270  -24.7040    1.6900 C.3    17  LYS17       0.0298
     29  CG        -6.6430  -23.9030    2.0110 C.3    17  LYS17       0.0038
     30  CD        -7.5880  -24.6750    2.8510 C.3    17  LYS17       0.0206
     31  CE        -8.9870  -24.1670    2.6300 C.3    17  LYS17       0.1093
     32  NZ        -9.6650  -23.7380    3.8770 N.3    17  LYS17      -0.1314
     33  N         -2.1830  -24.1710    4.6310 N.3    23  VAL23      -0.1245
     34  CA        -1.9010  -24.9150    5.8210 C.3    23  VAL23       0.1561
     35  C         -0.5460  -25.5130    5.6080 C.2    23  VAL23       0.2260
     36  O         -0.3120  -26.1540    4.6250 O.2    23  VAL23      -0.2867
     37  CB        -2.8560  -26.0310    6.0310 C.3    23  VAL23       0.0252
     38  CG1       -2.9090  -26.4130    7.4360 C.3    23  VAL23       0.0019
     39  CG2       -4.1870  -25.6060    5.5960 C.3    23  VAL23       0.0019
     40  N          0.2280  -28.6480   12.2570 N.3    36  ALA36      -0.1245
     41  CA        -0.1370  -27.9070   11.0490 C.3    36  ALA36       0.1562
     42  C         -0.4230  -26.4660   11.4320 C.2    36  ALA36       0.2260
     43  O         -1.1440  -26.1970   12.3910 O.2    36  ALA36      -0.2867
     44  CB        -1.3660  -28.5320   10.3820 C.3    36  ALA36       0.0290
     45  N         -2.1180  -23.1740   10.1050 N.3    38  LYS38      -0.1245
     46  CA        -3.0570  -22.6440    9.0950 C.3    38  LYS38       0.1561
     47  C         -2.9330  -21.1340    9.0590 C.2    38  LYS38       0.2260
     48  O         -3.2560  -20.4710   10.0440 O.2    38  LYS38      -0.2867
     49  CB        -4.5020  -23.0160    9.4350 C.3    38  LYS38       0.0271
     50  CG        -5.5280  -22.7420    8.3400 C.3    38  LYS38       0.0035
     51  CD        -6.9410  -22.9550    8.8860 C.3    38  LYS38       0.0206
     52  CE        -7.9920  -23.0280    7.7870 C.3    38  LYS38       0.1093
     53  NZ        -7.9220  -24.3070    7.0040 N.3    38  LYS38      -0.1314
     54  N        -10.4960  -33.1910   14.7450 N.3    70  LEU70      -0.1245
     55  CA        -9.1780  -32.5460   14.6990 C.3    70  LEU70       0.1561
     56  C         -9.0600  -31.4270   15.7500 C.2    70  LEU70       0.2260
     57  O         -9.9630  -30.6090   15.8930 O.2    70  LEU70      -0.2867
     58  CB        -8.9320  -31.9690   13.3110 C.3    70  LEU70       0.0270
     59  CG        -7.5230  -31.4370   13.1870 C.3    70  LEU70       0.0019
     60  CD1       -6.6490  -32.5520   12.7270 C.3    70  LEU70       0.0001
     61  CD2       -7.4730  -30.3160   12.2230 C.3    70  LEU70       0.0001
     62  N         -2.9120  -26.0250   14.4960 N.3    86  LEU86      -0.1231
     63  CA        -3.7610  -27.2070   14.4750 C.3    86  LEU86       0.1693
     64  C         -3.0370  -28.5170   14.6420 C.2    86  LEU86       0.2592
     65  O         -1.8170  -28.5850   14.5780 O.2    86  LEU86      -0.2718
     66  CB        -4.5310  -27.2620   13.1620 C.3    86  LEU86       0.0284
     67  CG        -5.4380  -26.0700   12.8700 C.3    86  LEU86       0.0019
     68  CD1       -5.5950  -25.9160   11.3810 C.3    86  LEU86       0.0001
     69  CD2       -6.7790  -26.2640   13.5390 C.3    86  LEU86       0.0001
     70  N         -3.8210  -29.5630   14.8580 N.am   87  GLU87      -0.1966
     71  CA        -3.3250  -30.9340   14.9880 C.3    87  GLU87       0.1733
     72  C         -2.9320  -31.2370   13.5340 C.2    87  GLU87       0.2616
     73  O         -3.4380  -30.5960   12.6180 O.2    87  GLU87      -0.2715
     74  CB        -4.4880  -31.8500   15.4310 C.3    87  GLU87       0.0429
     75  CG        -4.1460  -33.2650   15.8440 C.3    87  GLU87       0.1163
     76  CD        -5.3770  -34.1910   15.9570 C.2    87  GLU87       0.3649
     77  OE1       -6.4030  -33.8330   16.6020 O.co2  87  GLU87      -0.2457
     78  OE2       -5.3020  -35.3080   15.3960 O.co2  87  GLU87      -0.2457
     79  N         -2.0330  -32.1830   13.3070 N.am   88  TYR88      -0.1960
     80  CA        -1.6380  -32.5340   11.9430 C.3    88  TYR88       0.1771
     81  C         -2.1640  -33.9530   11.6460 C.2    88  TYR88       0.2619
     82  O         -1.9310  -34.8690   12.4360 O.2    88  TYR88      -0.2715
     83  CB        -0.1040  -32.4420   11.8400 C.3    88  TYR88       0.0574
     84  CG         0.5620  -33.2490   10.7420 C.ar   88  TYR88      -0.0198
     85  CD1        0.4010  -32.9240    9.3880 C.ar   88  TYR88      -0.0009
     86  CD2        1.3390  -34.3530   11.0630 C.ar   88  TYR88      -0.0009
     87  CE1        1.0060  -33.6970    8.3830 C.ar   88  TYR88       0.0417
     88  CE2        1.9350  -35.1260   10.0870 C.ar   88  TYR88       0.0417
     89  CZ         1.7720  -34.8030    8.7510 C.ar   88  TYR88       0.1957
     90  OH         2.3840  -35.6090    7.8130 O.3    88  TYR88      -0.2866
     91  N         -2.9050  -34.1300   10.5490 N.am   89  ALA89      -0.1964
     92  CA        -3.4190  -35.4530   10.1870 C.3    89  ALA89       0.1713
     93  C         -2.5190  -36.0750    9.1130 C.2    89  ALA89       0.2458
     94  O         -2.6470  -35.7660    7.9420 O.2    89  ALA89      -0.2730
     95  CB        -4.8330  -35.3380    9.6900 C.3    89  ALA89       0.0333
     96  N         -1.6130  -36.9900    9.5110 N.am   90  PRO90      -0.2716
     97  CA        -0.6310  -37.7100    8.6820 C.3    90  PRO90       0.1536
     98  C         -1.0480  -38.2240    7.3270 C.2    90  PRO90       0.2598
     99  O         -0.2830  -38.1290    6.3710 O.2    90  PRO90      -0.2715
    100  CB        -0.1950  -38.8600    9.5730 C.3    90  PRO90       0.0310
    101  CG        -0.3840  -38.3140   10.9260 C.3    90  PRO90       0.0237
    102  CD        -1.7060  -37.6300   10.8320 C.3    90  PRO90       0.0939
    103  N         -2.2540  -38.7700    7.2340 N.am   91  LEU91      -0.1964
    104  CA        -2.7050  -39.3390    5.9740 C.3    91  LEU91       0.1728
    105  C         -3.4750  -38.4380    5.0150 C.2    91  LEU91       0.2617
    106  O         -3.9620  -38.9080    3.9880 O.2    91  LEU91      -0.2715
    107  CB        -3.4980  -40.6170    6.2460 C.3    91  LEU91       0.0311
    108  CG        -2.7270  -41.6590    7.0670 C.3    91  LEU91       0.0022
    109  CD1       -3.4880  -42.9670    7.1060 C.3    91  LEU91       0.0001
    110  CD2       -1.3730  -41.8850    6.4520 C.3    91  LEU91       0.0001
    111  N         -3.5900  -37.1520    5.3260 N.am   92  GLY92      -0.1940
    112  CA        -4.2710  -36.2530    4.4060 C.3    92  GLY92       0.2014
    113  C         -5.7830  -36.2260    4.4360 C.2    92  GLY92       0.2639
    114  O         -6.4010  -36.5400    5.4470 O.2    92  GLY92      -0.2714
    115  N         -6.4040  -35.8490    3.3270 N.am   93  THR93      -0.1950
    116  CA        -7.8600  -35.7890    3.3420 C.3    93  THR93       0.1897
    117  C         -8.5060  -37.0680    2.8350 C.2    93  THR93       0.2313
    118  O         -7.8440  -37.9240    2.2350 O.2    93  THR93      -0.2863
    119  CB        -8.4110  -34.5930    2.5090 C.3    93  THR93       0.1794
    120  OG1       -8.1510  -34.8190    1.1190 O.3    93  THR93      -0.2208
    121  CG2       -7.7680  -33.2810    2.9420 C.3    93  THR93       0.0378
    122  N         -8.8670  -36.8070   -1.0730 N.3    96  ARG96      -0.1245
    123  CA        -7.8400  -37.4010   -1.9260 C.3    96  ARG96       0.1563
    124  C         -7.9390  -38.9390   -1.9170 C.2    96  ARG96       0.2260
    125  O         -7.6430  -39.6040   -2.9080 O.2    96  ARG96      -0.2867
    126  CB        -6.4530  -36.9690   -1.4710 C.3    96  ARG96       0.0307
    127  CG        -6.1210  -35.5500   -1.8780 C.3    96  ARG96       0.0489
    128  CD        -4.7850  -35.0880   -1.3130 C.3    96  ARG96       0.2205
    129  NE        -3.7920  -36.1630   -1.2360 N.pl3  96  ARG96      -0.0865
    130  CZ        -3.3770  -36.6840   -0.0840 C.cat  96  ARG96       0.5346
    131  NH1       -3.8850  -36.2220    1.0590 N.pl3  96  ARG96       0.1354
    132  NH2       -2.4430  -37.6330   -0.0640 N.pl3  96  ARG96       0.1354
    133  N        -13.9350  -32.8440    1.9200 N.3   136  GLU136     -0.1231
    134  CA       -12.7850  -31.9340    1.9490 C.3   136  GLU136      0.1699
    135  C        -12.4770  -31.4320    3.3670 C.2   136  GLU136      0.2592
    136  O        -11.4040  -30.8900    3.6260 O.2   136  GLU136     -0.2718
    137  CB       -12.9710  -30.7620    0.9680 C.3   136  GLU136      0.0402
    138  CG       -13.0460  -31.1620   -0.5020 C.3   136  GLU136      0.1161
    139  CD       -14.4650  -31.5660   -0.9220 C.2   136  GLU136      0.3649
    140  OE1      -15.3500  -31.5760   -0.0180 O.co2 136  GLU136     -0.2457
    141  OE2      -14.6850  -31.8820   -2.1360 O.co2 136  GLU136     -0.2457
    142  N        -13.4400  -31.6110    4.2740 N.am  137  ASN137     -0.1974
    143  CA       -13.2490  -31.2370    5.6720 C.3   137  ASN137      0.1688
    144  C        -13.0110  -32.4470    6.5430 C.2   137  ASN137      0.2292
    145  O        -13.0820  -32.3660    7.7610 O.2   137  ASN137     -0.2864
    146  CB       -14.5020  -30.5210    6.1610 C.3   137  ASN137      0.1181
    147  CG       -14.7750  -29.2650    5.3940 C.2   137  ASN137      0.2629
    148  OD1      -13.8550  -28.6130    4.9050 O.2   137  ASN137     -0.2716
    149  ND2      -16.0440  -28.9050    5.2870 N.am  137  ASN137     -0.0877
    150  N        -10.2390  -35.3300    7.5370 N.3   139  LEU139     -0.1245
    151  CA        -8.8310  -35.7420    7.4470 C.3   139  LEU139      0.1561
    152  C         -8.6160  -37.1590    7.9940 C.2   139  LEU139      0.2260
    153  O         -9.5310  -37.7710    8.5380 O.2   139  LEU139     -0.2867
    154  CB        -7.9400  -34.7750    8.2230 C.3   139  LEU139      0.0270
    155  CG        -7.8330  -33.3620    7.6790 C.3   139  LEU139      0.0019
    156  CD1       -7.3830  -32.4600    8.7990 C.3   139  LEU139      0.0001
    157  CD2       -6.8780  -33.3260    6.5030 C.3   139  LEU139      0.0001
    158  N        -12.4300  -31.7290   10.6820 N.3   149  ALA149     -0.1231
    159  CA       -11.6640  -30.5070   10.8350 C.3   149  ALA149      0.1694
    160  C        -12.4980  -29.3650   10.3280 C.2   149  ALA149      0.2592
    161  O        -13.6160  -29.5600    9.8500 O.2   149  ALA149     -0.2718
    162  CB       -10.4050  -30.5880   10.0320 C.3   149  ALA149      0.0304
    163  N        -11.9530  -28.1660   10.4450 N.am  150  ASP150     -0.1974
    164  CA       -12.6220  -26.9770    9.9490 C.3   150  ASP150      0.1709
    165  C        -14.0330  -26.7330   10.4730 C.2   150  ASP150      0.2293
    166  O        -15.0080  -27.0070    9.7810 O.2   150  ASP150     -0.2864
    167  CB       -12.6680  -27.0300    8.4220 C.3   150  ASP150      0.1436
    168  CG       -12.5740  -25.6590    7.7970 C.2   150  ASP150      0.3671
    169  OD1      -12.8670  -24.6610    8.5000 O.co2 150  ASP150     -0.2456
    170  OD2      -12.2140  -25.5760    6.6020 O.co2 150  ASP150     -0.2456
@<TRIPOS>BOND
     1   125   124    2
     2   141   139   ar
     3   123   124    1
     4   123   126    1
     5   123   122    1
     6   127   126    1
     7   127   128    1
     8   128   129    1
     9   129   130    2
    10    27    26    2
    11   139   138    1
    12   139   140   ar
    13   138   137    1
    14    26    25    1
    15   130   132    1
    16   130   131    1
    17    24    25    1
    18    24    22   am
    19    25    28    1
    20    21    22    1
    21    21    20    1
    22    10     9    1
    23    22    23    2
    24   137   134    1
    25   120   119    1
    26    15    14    2
    27    28    29    1
    28     7     6    1
    29     7     8    1
    30    20    14   am
    31     9     8    2
    32     9    11    1
    33    14    13    1
    34   133   134    1
    35   134   135    1
    36    29    30    1
    37     6     5    1
    38   118   117    2
    39   119   121    1
    40   119   116    1
    41    31    30    1
    42    31    32    1
    43   117   116    1
    44    13    12    1
    45    13    16    1
    46     5     2    1
    47   115   116    1
    48   115   113   am
    49   135   136    2
    50   135   142   am
    51     3     2    1
    52     3     4    2
    53     2     1    1
    54   106   105    2
    55   142   143    1
    56    16    17    1
    57   112   113    1
    58   112   111    1
    59   113   114    2
    60    36    35    2
    61    33    34    1
    62   148   147    2
    63   105   111   am
    64   105   104    1
    65    19    17    1
    66   149   147   am
    67   147   146    1
    68    17    18    1
    69    39    37    1
    70    35    34    1
    71   143   146    1
    72   143   144    1
    73    34    37    1
    74   104   107    1
    75   104   103    1
    76    37    38    1
    77   107   108    1
    78    99    98    2
    79   110   108    1
    80   157   155    1
    81   144   145    2
    82   170   168   ar
    83    53    52    1
    84   108   109    1
    85   103    98   am
    86    98    97    1
    87   151   150    1
    88   151   152    1
    89   151   154    1
    90   155   154    1
    91   155   156    1
    92    52    51    1
    93   168   167    1
    94   168   169   ar
    95    90    89    1
    96    94    93    2
    97   152   153    2
    98    50    51    1
    99    50    49    1
   100    87    89   ar
   101    87    85   ar
   102   167   164    1
   103    97    96    1
   104    97   100    1
   105    89    88   ar
   106    47    46    1
   107    47    48    2
   108    46    49    1
   109    46    45    1
   110    93    96   am
   111    93    92    1
   112    85    84   ar
   113    96   102    1
   114   100   101    1
   115    95    92    1
   116   166   165    2
   117   161   160    2
   118   164   163    1
   119   164   165    1
   120   162   159    1
   121    88    86   ar
   122    92    91    1
   123   160   163   am
   124   160   159    1
   125    44    41    1
   126    91    81   am
   127   158   159    1
   128    84    86   ar
   129    84    83    1
   130   102   101    1
   131    41    42    1
   132    41    40    1
   133    68    67    1
   134    42    43    2
   135    81    80    1
   136    81    82    2
   137    83    80    1
   138    80    79    1
   139    61    59    1
   140    73    72    2
   141    60    59    1
   142    67    66    1
   143    67    69    1
   144    66    63    1
   145    59    58    1
   146    79    72   am
   147    58    55    1
   148    72    71    1
   149    63    62    1
   150    63    64    1
   151    65    64    2
   152    64    70   am
   153    55    54    1
   154    55    56    1
   155    70    71    1
   156    71    74    1
   157    78    76   ar
   158    74    75    1
   159    56    57    2
   160    75    76    1
   161    76    77   ar
