@<TRIPOS>MOLECULE
tmp/4decA00.pdb
 138 130 0 0 0
SMALL
GASTEIGER

@<TRIPOS>ATOM
      1  N         28.2670  -12.0750   27.4700 N.3    32  PRO32      -0.2102
      2  CA        29.2110  -13.1530   27.1750 C.3    32  PRO32       0.1504
      3  C         29.9490  -13.4990   28.4760 C.2    32  PRO32       0.2576
      4  O         30.2200  -12.6210   29.3170 O.2    32  PRO32      -0.2718
      5  CB        30.1710  -12.4940   26.1430 C.3    32  PRO32       0.0282
      6  CG        30.2270  -11.0610   26.6190 C.3    32  PRO32       0.0208
      7  CD        28.7890  -10.7550   27.0700 C.3    32  PRO32       0.0893
      8  N         30.2730  -14.7670   28.6710 N.am   33  ALA33      -0.1966
      9  CA        30.9120  -15.1220   29.9330 C.3    33  ALA33       0.1728
     10  C         31.8720  -16.2880   29.8000 C.2    33  ALA33       0.2616
     11  O         31.4750  -17.3710   29.3860 O.2    33  ALA33      -0.2715
     12  CB        29.8080  -15.5000   30.9740 C.3    33  ALA33       0.0334
     13  N         33.0990  -16.0950   30.2630 N.am   34  LEU34      -0.1977
     14  CA        34.0520  -17.1790   30.3550 C.3    34  LEU34       0.1596
     15  C         34.6150  -17.1530   31.7640 C.2    34  LEU34       0.2287
     16  O         35.4210  -16.2670   32.0940 O.2    34  LEU34      -0.2864
     17  CB        35.2050  -16.9660   29.3570 C.3    34  LEU34       0.0297
     18  CG        36.3810  -17.9410   29.4710 C.3    34  LEU34       0.0022
     19  CD1       35.8790  -19.3950   29.3490 C.3    34  LEU34       0.0001
     20  CD2       37.4890  -17.6530   28.4290 C.3    34  LEU34       0.0001
     21  N         33.2950  -16.4090   34.8900 N.3    36  GLU36      -0.1245
     22  CA        32.9820  -15.2180   35.6960 C.3    36  GLU36       0.1567
     23  C         32.0690  -15.5450   36.8920 C.2    36  GLU36       0.2260
     24  O         31.1560  -14.7580   37.2170 O.2    36  GLU36      -0.2867
     25  CB        32.3030  -14.1690   34.8090 C.3    36  GLU36       0.0388
     26  CG        33.1360  -13.8870   33.5110 C.3    36  GLU36       0.1160
     27  CD        34.3900  -13.0960   33.8150 C.2    36  GLU36       0.3649
     28  OE1       34.5660  -12.6540   34.9970 O.co2  36  GLU36      -0.2457
     29  OE2       35.1860  -12.8750   32.8800 O.co2  36  GLU36      -0.2457
     30  N         30.8900  -19.1640   27.3000 N.3    63  SER63      -0.1217
     31  CA        31.9470  -19.2550   26.3000 C.3    63  SER63       0.1889
     32  C         32.9580  -20.3580   26.6700 C.2    63  SER63       0.2288
     33  O         34.1450  -20.1840   26.4610 O.2    63  SER63      -0.2866
     34  CB        32.6310  -17.8740   26.2340 C.3    63  SER63       0.2089
     35  OG        33.6820  -17.7590   25.2800 O.3    63  SER63      -0.2183
     36  N         28.1370  -21.9570   23.3950 N.3    83  ARG83      -0.1245
     37  CA        28.5400  -21.6400   21.9910 C.3    83  ARG83       0.1563
     38  C         27.9580  -22.7260   21.0550 C.2    83  ARG83       0.2260
     39  O         27.4380  -22.4160   19.9710 O.2    83  ARG83      -0.2867
     40  CB        30.0620  -21.5420   21.8930 C.3    83  ARG83       0.0307
     41  CG        30.6450  -20.2910   22.6220 C.3    83  ARG83       0.0489
     42  CD        32.1570  -20.3420   22.7980 C.3    83  ARG83       0.2205
     43  NE        32.5640  -21.5790   23.5060 N.pl3  83  ARG83      -0.0865
     44  CZ        33.8420  -21.9220   23.6880 C.cat  83  ARG83       0.5346
     45  NH1       34.7970  -21.1290   23.2210 N.pl3  83  ARG83       0.1354
     46  NH2       34.1790  -23.0430   24.3090 N.pl3  83  ARG83       0.1354
     47  N         37.6420  -17.5480   21.8050 N.3    95  GLY95      -0.1210
     48  CA        37.7910  -16.1060   21.9240 C.3    95  GLY95       0.1956
     49  C         36.4750  -15.3530   22.0310 C.2    95  GLY95       0.2611
     50  O         35.4250  -15.8950   21.7410 O.2    95  GLY95      -0.2717
     51  N         36.5380  -14.0940   22.4450 N.am   96  LYS96      -0.1979
     52  CA        35.3250  -13.3290   22.6850 C.3    96  LYS96       0.1596
     53  C         34.4890  -13.0930   21.4030 C.2    96  LYS96       0.2287
     54  O         33.2640  -13.1900   21.4440 O.2    96  LYS96      -0.2864
     55  CB        35.6720  -11.9800   23.3520 C.3    96  LYS96       0.0298
     56  CG        34.4210  -11.1910   23.8280 C.3    96  LYS96       0.0038
     57  CD        34.8100   -9.7950   24.2830 C.3    96  LYS96       0.0206
     58  CE        33.5880   -9.0350   24.9040 C.3    96  LYS96       0.1093
     59  NZ        34.0050   -7.6920   25.4370 N.3    96  LYS96      -0.1314
     60  N         32.0840  -15.7270   20.5120 N.3    99  ALA99      -0.1245
     61  CA        30.9530  -15.7810   21.4640 C.3    99  ALA99       0.1562
     62  C         29.8900  -14.7420   21.0770 C.2    99  ALA99       0.2260
     63  O         28.7010  -15.0490   20.9630 O.2    99  ALA99      -0.2867
     64  CB        31.4720  -15.5540   22.9040 C.3    99  ALA99       0.0290
     65  N         29.5620   -6.7760   29.4980 N.3   116  ASP116     -0.1225
     66  CA        30.5000   -7.7830   29.9710 C.3   116  ASP116      0.1805
     67  C         30.0610   -8.3630   31.3400 C.2   116  ASP116      0.2598
     68  O         29.5140   -7.6320   32.2210 O.2   116  ASP116     -0.2718
     69  CB        31.8740   -7.1570   30.1440 C.3   116  ASP116      0.1424
     70  CG        32.6610   -7.0260   28.8040 C.2   116  ASP116      0.3668
     71  OD1       32.3360   -7.6950   27.7770 O.co2 116  ASP116     -0.2456
     72  OD2       33.6480   -6.2570   28.8100 O.co2 116  ASP116     -0.2456
     73  N         30.3860   -9.6240   31.5730 N.am  117  SER117     -0.1938
     74  CA        29.9480  -10.3500   32.7860 C.3   117  SER117      0.2055
     75  C         30.9750  -10.2540   33.9170 C.2   117  SER117      0.2643
     76  O         30.7800  -10.8260   35.0080 O.2   117  SER117     -0.2714
     77  CB        29.6540  -11.8030   32.4120 C.3   117  SER117      0.2130
     78  OG        30.8360  -12.4040   31.8480 O.3   117  SER117     -0.2179
     79  N         32.0780   -9.5330   33.6780 N.am  118  ASP118     -0.1971
     80  CA        33.0710   -9.3320   34.7270 C.3   118  ASP118      0.1709
     81  C         32.9670   -7.9750   35.4480 C.2   118  ASP118      0.2293
     82  O         33.8770   -7.5890   36.1880 O.2   118  ASP118     -0.2864
     83  CB        34.4760   -9.5140   34.1770 C.3   118  ASP118      0.1436
     84  CG        34.9060   -8.3700   33.2550 C.2   118  ASP118      0.3671
     85  OD1       34.0790   -7.7030   32.5960 O.co2 118  ASP118     -0.2456
     86  OD2       36.1000   -8.1100   33.2470 O.co2 118  ASP118     -0.2456
     87  N         39.9170  -10.8760   21.2060 N.3   195  TYR195     -0.1241
     88  CA        39.7170   -9.4880   21.6360 C.3   195  TYR195      0.1605
     89  C         39.6760   -8.4230   20.5200 C.2   195  TYR195      0.2264
     90  O         39.6520   -7.2360   20.8250 O.2   195  TYR195     -0.2867
     91  CB        40.7830   -9.1000   22.6860 C.3   195  TYR195      0.0534
     92  CG        40.6430   -9.9290   23.9640 C.ar  195  TYR195     -0.0201
     93  CD1       39.4850   -9.8350   24.7510 C.ar  195  TYR195     -0.0009
     94  CD2       41.6240  -10.8290   24.3450 C.ar  195  TYR195     -0.0009
     95  CE1       39.3230  -10.5870   25.8900 C.ar  195  TYR195      0.0417
     96  CE2       41.4730  -11.6020   25.5070 C.ar  195  TYR195      0.0417
     97  CZ        40.3170  -11.4590   26.2730 C.ar  195  TYR195      0.1957
     98  OH        40.1700  -12.2090   27.4140 O.3   195  TYR195     -0.2866
     99  N         35.9790   -3.5390   37.0850 N.3   224  HIS224     -0.1226
    100  CA        36.2180   -4.9470   36.6980 C.3   224  HIS224      0.1752
    101  C         37.6310   -5.4260   37.0640 C.2   224  HIS224      0.2595
    102  O         38.4370   -4.6400   37.5770 O.2   224  HIS224     -0.2718
    103  CB        35.9540   -5.1660   35.2040 C.3   224  HIS224      0.0759
    104  CG        36.9270   -4.4680   34.2940 C.ar  224  HIS224      0.0818
    105  ND1       38.0840   -5.0670   33.8340 N.ar  224  HIS224     -0.2268
    106  CD2       36.9080   -3.2320   33.7470 C.ar  224  HIS224      0.1154
    107  CE1       38.7260   -4.2330   33.0320 C.ar  224  HIS224      0.1986
    108  NE2       38.0400   -3.1080   32.9700 N.ar  224  HIS224     -0.2212
    109  N         37.9160   -6.7080   36.7980 N.am  225  ARG225     -0.1980
    110  CA        39.2620   -7.2970   36.9660 C.3   225  ARG225      0.1597
    111  C         40.3100   -6.5540   36.1380 C.2   225  ARG225      0.2287
    112  O         40.0490   -6.2260   34.9800 O.2   225  ARG225     -0.2864
    113  CB        39.2800   -8.7810   36.5230 C.3   225  ARG225      0.0334
    114  CG        40.6640   -9.3760   36.2760 C.3   225  ARG225      0.0492
    115  CD        40.5920  -10.8850   35.9950 C.3   225  ARG225      0.2205
    116  NE        39.7340  -11.2500   34.8560 N.pl3 225  ARG225     -0.0865
    117  CZ        38.5400  -11.8370   34.9610 C.cat 225  ARG225      0.5346
    118  NH1       38.0320  -12.1230   36.1550 N.pl3 225  ARG225      0.1354
    119  NH2       37.8720  -12.1780   33.8680 N.pl3 225  ARG225      0.1354
    120  N         43.6190   -7.4320   34.3240 N.3   227  ARG227     -0.1245
    121  CA        44.4550   -8.5560   33.9010 C.3   227  ARG227      0.1563
    122  C         45.9480   -8.2210   34.0250 C.2   227  ARG227      0.2260
    123  O         46.3170   -7.0490   34.0110 O.2   227  ARG227     -0.2867
    124  CB        44.0640   -8.9970   32.4770 C.3   227  ARG227      0.0307
    125  CG        42.6780   -9.6250   32.4310 C.3   227  ARG227      0.0489
    126  CD        42.0730   -9.6490   31.0340 C.3   227  ARG227      0.2205
    127  NE        42.6840  -10.6480   30.1500 N.pl3 227  ARG227     -0.0865
    128  CZ        42.3880  -11.9520   30.1360 C.cat 227  ARG227      0.5346
    129  NH1       43.0100  -12.7540   29.2630 N.pl3 227  ARG227      0.1354
    130  NH2       41.4780  -12.4550   30.9790 N.pl3 227  ARG227      0.1354
    131  N         46.4830   -9.4620   24.0650 N.3   235  MET235     -0.1245
    132  CA        45.2460   -8.8190   23.6970 C.3   235  MET235      0.1570
    133  C         45.5470   -7.6800   22.7160 C.2   235  MET235      0.2261
    134  O         44.8820   -7.4980   21.6960 O.2   235  MET235     -0.2867
    135  CB        44.5430   -8.2640   24.9630 C.3   235  MET235      0.0387
    136  CG        43.3170   -7.3910   24.6220 C.3   235  MET235      0.0595
    137  SD        42.6140   -6.4460   26.0450 S.3   235  MET235     -0.1393
    138  CE        42.6550   -7.7490   27.3420 C.3   235  MET235      0.0692
@<TRIPOS>BOND
     1    39    38    2
     2    60    61    1
     3    89    90    2
     4    89    88    1
     5    63    62    2
     6    38    37    1
     7    62    61    1
     8    87    88    1
     9    53    54    2
    10    53    52    1
    11    61    64    1
    12    88    91    1
    13   134   133    2
    14    50    49    2
    15    47    48    1
    16    40    37    1
    17    40    41    1
    18    48    49    1
    19    37    36    1
    20    49    51   am
    21    51    52    1
    22    41    42    1
    23    52    55    1
    24    91    92    1
    25   133   132    1
    26    42    43    1
    27    45    44    1
    28    55    56    1
    29    43    44    2
    30    44    46    1
    31   132   131    1
    32   132   135    1
    33    56    57    1
    34    92    94   ar
    35    92    93   ar
    36    57    58    1
    37    94    96   ar
    38   136   135    1
    39   136   137    1
    40    93    95   ar
    41    58    59    1
    42    35    34    1
    43    96    97   ar
    44    95    97   ar
    45   137   138    1
    46     5     6    1
    47     5     2    1
    48    34    31    1
    49    97    98    1
    50    31    32    1
    51    31    30    1
    52    33    32    2
    53     6     7    1
    54     7     1    1
    55     2     1    1
    56     2     3    1
    57    71    70   ar
    58    20    18    1
    59     3     8   am
    60     3     4    2
    61     8     9    1
    62    70    72   ar
    63    70    69    1
    64   129   128    1
    65    19    18    1
    66    17    18    1
    67    17    14    1
    68    11    10    2
    69    65    66    1
    70    10     9    1
    71    10    13   am
    72     9    12    1
    73    66    69    1
    74    66    67    1
    75   128   127    2
    76   128   130    1
    77   127   126    1
    78    13    14    1
    79    14    15    1
    80   126   125    1
    81    67    73   am
    82    67    68    2
    83    73    74    1
    84    15    16    2
    85    78    77    1
    86    77    74    1
    87   125   124    1
    88   124   121    1
    89    85    84   ar
    90    74    75    1
    91    29    27   ar
    92   108   107   ar
    93   108   106   ar
    94   107   105   ar
    95    86    84   ar
    96    84    83    1
    97    26    27    1
    98    26    25    1
    99    79    75   am
   100    79    80    1
   101   106   104   ar
   102    27    28   ar
   103   105   104   ar
   104   119   117    1
   105   121   122    1
   106   121   120    1
   107    75    76    2
   108   123   122    2
   109    83    80    1
   110   104   103    1
   111    80    81    1
   112    25    22    1
   113   116   117    2
   114   116   115    1
   115    21    22    1
   116   117   118    1
   117   112   111    2
   118   103   100    1
   119    81    82    2
   120    22    23    1
   121   115   114    1
   122   111   110    1
   123   114   113    1
   124   113   110    1
   125   100   101    1
   126   100    99    1
   127   109   110    1
   128   109   101   am
   129    23    24    2
   130   101   102    2
