@<TRIPOS>MOLECULE
tmp/4decA01.pdb
 106 99 0 0 0
SMALL
GASTEIGER

@<TRIPOS>ATOM
      1  N         44.3250    1.6690   34.0240 N.3   149  GLY149     -0.1210
      2  CA        43.4920    2.7900   33.6020 C.3   149  GLY149      0.1956
      3  C         43.0690    2.7280   32.1290 C.2   149  GLY149      0.2612
      4  O         42.9260    3.7590   31.4420 O.2   149  GLY149     -0.2717
      5  N         42.8350    1.5120   31.6370 N.am  150  GLY150     -0.1942
      6  CA        42.5950    1.3070   30.2210 C.3   150  GLY150      0.2014
      7  C         43.9310    1.4680   29.5090 C.2   150  GLY150      0.2639
      8  O         44.0680    2.3460   28.6840 O.2   150  GLY150     -0.2714
      9  N         44.9210    0.6510   29.8860 N.am  151  ARG151     -0.1963
     10  CA        46.2530    0.6340   29.2850 C.3   151  ARG151      0.1729
     11  C         46.2600    0.3190   27.7660 C.2   151  ARG151      0.2616
     12  O         46.9740    0.9990   26.9830 O.2   151  ARG151     -0.2715
     13  CB        47.1230   -0.3940   30.0060 C.3   151  ARG151      0.0348
     14  CG        47.7790    0.1340   31.2710 C.3   151  ARG151      0.0492
     15  CD        48.0870   -1.0250   32.2400 C.3   151  ARG151      0.2205
     16  NE        46.8940   -1.8080   32.6350 N.pl3 151  ARG151     -0.0865
     17  CZ        46.9520   -2.9430   33.3440 C.cat 151  ARG151      0.5346
     18  NH1       48.1420   -3.4340   33.7120 N.pl3 151  ARG151      0.1354
     19  NH2       45.8330   -3.6070   33.6610 N.pl3 151  ARG151      0.1354
     20  N         45.5130   -0.7130   27.3530 N.am  152  VAL152     -0.1963
     21  CA        45.4820   -1.0770   25.9260 C.3   152  VAL152      0.1727
     22  C         44.7640    0.0620   25.2140 C.2   152  VAL152      0.2616
     23  O         45.2010    0.5120   24.1360 O.2   152  VAL152     -0.2715
     24  CB        44.8300   -2.4850   25.6850 C.3   152  VAL152      0.0290
     25  CG1       44.7250   -2.8270   24.1550 C.3   152  VAL152      0.0023
     26  CG2       45.6310   -3.5630   26.4070 C.3   152  VAL152      0.0023
     27  N         43.7020    0.5700   25.8450 N.am  153  THR153     -0.1951
     28  CA        42.8910    1.6280   25.2360 C.3   153  THR153      0.1897
     29  C         43.7570    2.8700   25.0180 C.2   153  THR153      0.2313
     30  O         43.7520    3.4450   23.9200 O.2   153  THR153     -0.2863
     31  CB        41.6320    2.0400   26.1040 C.3   153  THR153      0.1794
     32  OG1       40.6370    1.0150   26.0270 O.3   153  THR153     -0.2208
     33  CG2       40.9690    3.3320   25.5420 C.3   153  THR153      0.0378
     34  N         36.2760    5.5850   24.4450 N.3   173  GLN173     -0.1245
     35  CA        36.5040    4.1980   24.8660 C.3   173  GLN173      0.1566
     36  C         36.2110    3.2340   23.7050 C.2   173  GLN173      0.2260
     37  O         35.2130    2.5020   23.7030 O.2   173  GLN173     -0.2867
     38  CB        35.6390    3.8210   26.1070 C.3   173  GLN173      0.0367
     39  CG        35.9650    4.6260   27.3380 C.3   173  GLN173      0.0905
     40  CD        37.3550    4.3370   27.8730 C.2   173  GLN173      0.2608
     41  OE1       37.9120    3.2600   27.6390 O.2   173  GLN173     -0.2717
     42  NE2       37.9270    5.2970   28.5930 N.am  173  GLN173     -0.0878
     43  N         37.3980    0.4090   22.8410 N.3   175  LEU175     -0.1245
     44  CA        37.3860   -1.0110   23.1810 C.3   175  LEU175      0.1561
     45  C         36.2970   -1.3800   24.2200 C.2   175  LEU175      0.2260
     46  O         36.2800   -2.5080   24.6700 O.2   175  LEU175     -0.2867
     47  CB        38.7680   -1.4440   23.7370 C.3   175  LEU175      0.0270
     48  CG        39.9750   -1.1140   22.7900 C.3   175  LEU175      0.0019
     49  CD1       41.2660   -1.6290   23.3980 C.3   175  LEU175      0.0001
     50  CD2       39.7270   -1.7160   21.3930 C.3   175  LEU175      0.0001
     51  N         32.7380    2.4840   36.0280 N.3   222  ARG222     -0.1245
     52  CA        32.6200    1.0280   35.8700 C.3   222  ARG222      0.1563
     53  C         33.8250    0.3600   36.5220 C.2   222  ARG222      0.2260
     54  O         34.9280    0.9020   36.4820 O.2   222  ARG222     -0.2867
     55  CB        32.4920    0.5980   34.3880 C.3   222  ARG222      0.0307
     56  CG        33.8200    0.4260   33.6540 C.3   222  ARG222      0.0489
     57  CD        33.7630   -0.6510   32.5470 C.3   222  ARG222      0.2205
     58  NE        35.0990   -0.9500   31.9980 N.pl3 222  ARG222     -0.0865
     59  CZ        35.3600   -1.7130   30.9200 C.cat 222  ARG222      0.5346
     60  NH1       34.4020   -2.3040   30.2160 N.pl3 222  ARG222      0.1354
     61  NH2       36.6180   -1.8940   30.5500 N.pl3 222  ARG222      0.1354
     62  N         35.9790   -3.5390   37.0850 N.3   224  HIS224     -0.1241
     63  CA        36.2180   -4.9470   36.6980 C.3   224  HIS224      0.1621
     64  C         37.6310   -5.4260   37.0640 C.2   224  HIS224      0.2264
     65  O         38.4370   -4.6400   37.5770 O.2   224  HIS224     -0.2867
     66  CB        35.9540   -5.1660   35.2040 C.3   224  HIS224      0.0745
     67  CG        36.9270   -4.4680   34.2940 C.ar  224  HIS224      0.0817
     68  ND1       38.0840   -5.0670   33.8340 N.ar  224  HIS224     -0.2268
     69  CD2       36.9080   -3.2320   33.7470 C.ar  224  HIS224      0.1154
     70  CE1       38.7260   -4.2330   33.0320 C.ar  224  HIS224      0.1986
     71  NE2       38.0400   -3.1080   32.9700 N.ar  224  HIS224     -0.2212
     72  N         41.4790   -6.2960   36.7260 N.3   226  ASN226     -0.1225
     73  CA        42.6570   -5.8620   35.9640 C.3   226  ASN226      0.1785
     74  C         43.5760   -7.0550   35.5980 C.2   226  ASN226      0.2597
     75  O         44.2370   -7.6260   36.4660 O.2   226  ASN226     -0.2718
     76  CB        43.4530   -4.7930   36.7370 C.3   226  ASN226      0.1169
     77  CG        42.9690   -3.3680   36.4590 C.2   226  ASN226      0.2627
     78  OD1       41.7860   -3.1300   36.1780 O.2   226  ASN226     -0.2716
     79  ND2       43.8960   -2.4080   36.5390 N.am  226  ASN226     -0.0877
     80  N         43.6190   -7.4320   34.3240 N.am  227  ARG227     -0.1979
     81  CA        44.4550   -8.5560   33.9010 C.3   227  ARG227      0.1597
     82  C         45.9480   -8.2210   34.0250 C.2   227  ARG227      0.2287
     83  O         46.3170   -7.0490   34.0110 O.2   227  ARG227     -0.2864
     84  CB        44.0640   -8.9970   32.4770 C.3   227  ARG227      0.0334
     85  CG        42.6780   -9.6250   32.4310 C.3   227  ARG227      0.0492
     86  CD        42.0730   -9.6490   31.0340 C.3   227  ARG227      0.2205
     87  NE        42.6840  -10.6480   30.1500 N.pl3 227  ARG227     -0.0865
     88  CZ        42.3880  -11.9520   30.1360 C.cat 227  ARG227      0.5346
     89  NH1       43.0100  -12.7540   29.2630 N.pl3 227  ARG227      0.1354
     90  NH2       41.4780  -12.4550   30.9790 N.pl3 227  ARG227      0.1354
     91  N         47.6970   -8.7810   28.6760 N.3   232  LEU232     -0.1245
     92  CA        47.4130   -7.5530   27.9450 C.3   232  LEU232      0.1561
     93  C         48.2600   -7.5340   26.6840 C.2   232  LEU232      0.2260
     94  O         47.8530   -6.9400   25.6990 O.2   232  LEU232     -0.2867
     95  CB        47.6770   -6.2790   28.7850 C.3   232  LEU232      0.0270
     96  CG        46.7720   -6.0180   30.0170 C.3   232  LEU232      0.0019
     97  CD1       47.0660   -4.6130   30.6150 C.3   232  LEU232      0.0001
     98  CD2       45.3050   -6.1640   29.7150 C.3   232  LEU232      0.0001
     99  N         46.4830   -9.4620   24.0650 N.3   235  MET235     -0.1245
    100  CA        45.2460   -8.8190   23.6970 C.3   235  MET235      0.1570
    101  C         45.5470   -7.6800   22.7160 C.2   235  MET235      0.2261
    102  O         44.8820   -7.4980   21.6960 O.2   235  MET235     -0.2867
    103  CB        44.5430   -8.2640   24.9630 C.3   235  MET235      0.0387
    104  CG        43.3170   -7.3910   24.6220 C.3   235  MET235      0.0595
    105  SD        42.6140   -6.4460   26.0450 S.3   235  MET235     -0.1393
    106  CE        42.6550   -7.7490   27.3420 C.3   235  MET235      0.0692
@<TRIPOS>BOND
     1    50    48    1
     2   102   101    2
     3   101   100    1
     4    48    49    1
     5    48    47    1
     6    43    44    1
     7    44    47    1
     8    44    45    1
     9   100    99    1
    10   100   103    1
    11    37    36    2
    12    36    35    1
    13    30    29    2
    14    23    22    2
    15    25    24    1
    16    45    46    2
    17    34    35    1
    18   104   103    1
    19   104   105    1
    20    35    38    1
    21    29    28    1
    22    22    27   am
    23    22    21    1
    24    28    27    1
    25    28    31    1
    26    33    31    1
    27    24    21    1
    28    24    26    1
    29    94    93    2
    30    21    20    1
    31    32    31    1
    32   105   106    1
    33    38    39    1
    34    93    92    1
    35    12    11    2
    36    39    40    1
    37    20    11   am
    38    41    40    2
    39    11    10    1
    40    40    42   am
    41    92    91    1
    42    92    95    1
    43     8     7    2
    44    95    96    1
    45    89    88    1
    46    10     9    1
    47    10    13    1
    48     7     9   am
    49     7     6    1
    50    98    96    1
    51    13    14    1
    52    96    97    1
    53    88    87    2
    54    88    90    1
    55    87    86    1
    56    60    59    1
    57     6     5    1
    58    61    59    1
    59    59    58    2
    60    86    85    1
    61    14    15    1
    62     4     3    2
    63     5     3   am
    64    58    57    1
    65     3     2    1
    66    15    16    1
    67    85    84    1
    68    84    81    1
    69    57    56    1
    70    16    17    2
    71    71    70   ar
    72    71    69   ar
    73    70    68   ar
    74    17    19    1
    75    17    18    1
    76     2     1    1
    77    56    55    1
    78    69    67   ar
    79    68    67   ar
    80    81    82    1
    81    81    80    1
    82    83    82    2
    83    67    66    1
    84    80    74   am
    85    55    52    1
    86    66    63    1
    87    74    73    1
    88    74    75    2
    89    52    51    1
    90    52    53    1
    91    73    72    1
    92    73    76    1
    93    78    77    2
    94    77    79   am
    95    77    76    1
    96    54    53    2
    97    63    64    1
    98    63    62    1
    99    64    65    2
