@<TRIPOS>MOLECULE
tmp/4dedA00.pdb
 154 144 0 0 0
SMALL
GASTEIGER

@<TRIPOS>ATOM
      1  N          7.2430  -28.2210    4.4760 N.3    14  ARG14      -0.1245
      2  CA         6.5880  -28.2390    3.1800 C.3    14  ARG14       0.1563
      3  C          5.1310  -27.8420    3.2400 C.2    14  ARG14       0.2260
      4  O          4.4590  -28.0240    4.2550 O.2    14  ARG14      -0.2867
      5  CB         6.6730  -29.6220    2.5380 C.3    14  ARG14       0.0307
      6  CG         5.5030  -30.5340    2.8330 C.3    14  ARG14       0.0489
      7  CD         5.5940  -31.7940    1.9960 C.3    14  ARG14       0.2205
      8  NE         4.6000  -32.7940    2.3840 N.pl3  14  ARG14      -0.0865
      9  CZ         3.3420  -32.8400    1.9420 C.cat  14  ARG14       0.5346
     10  NH1        2.9030  -31.9340    1.0740 N.pl3  14  ARG14       0.1354
     11  NH2        2.5160  -33.7920    2.3790 N.pl3  14  ARG14       0.1354
     12  N          1.2180  -28.0180    2.6690 N.3    16  LEU16      -0.1231
     13  CA         0.2690  -29.1110    2.6750 C.3    16  LEU16       0.1696
     14  C         -0.8890  -28.9050    1.7000 C.2    16  LEU16       0.2632
     15  O         -1.3040  -29.8390    1.0250 O.2    16  LEU16      -0.2714
     16  CB        -0.2570  -29.3070    4.0930 C.3    16  LEU16       0.0284
     17  CG         0.8270  -29.6370    5.1110 C.3    16  LEU16       0.0019
     18  CD1        0.2170  -29.7030    6.4840 C.3    16  LEU16       0.0001
     19  CD2        1.4780  -30.9480    4.7570 C.3    16  LEU16       0.0001
     20  N         -1.4170  -27.6900    1.6260 N.am   17  GLY17      -0.1718
     21  CA        -2.5140  -27.4490    0.7090 C.2    17  GLY17       0.1480
     22  C         -3.1920  -26.0990    0.8250 C.2    17  GLY17       0.2820
     23  O         -2.5850  -25.1300    1.2930 O.2    17  GLY17      -0.2669
     24  N         -4.4560  -26.0580    0.3860 N.am   18  LYS18      -0.1943
     25  CA        -5.3090  -24.8590    0.3940 C.3    18  LYS18       0.1599
     26  C         -4.7990  -23.7880   -0.5840 C.2    18  LYS18       0.2287
     27  O         -3.7110  -23.9170   -1.1680 O.2    18  LYS18      -0.2864
     28  CB        -5.4240  -24.2850    1.8220 C.3    18  LYS18       0.0298
     29  CG        -6.4160  -23.1260    2.0040 C.3    18  LYS18       0.0038
     30  CD        -7.8560  -23.5470    1.7520 C.3    18  LYS18       0.0206
     31  CE        -8.8140  -22.3790    1.9520 C.3    18  LYS18       0.1093
     32  NZ        -8.5290  -21.2400    1.0320 N.3    18  LYS18      -0.1314
     33  N         -1.4390  -24.0430    4.1370 N.3    24  VAL24      -0.1245
     34  CA        -1.1690  -24.8110    5.3450 C.3    24  VAL24       0.1561
     35  C          0.1850  -25.4940    5.2210 C.2    24  VAL24       0.2260
     36  O          0.4530  -26.1800    4.2380 O.2    24  VAL24      -0.2867
     37  CB        -2.2370  -25.8820    5.5740 C.3    24  VAL24       0.0252
     38  CG1       -1.9340  -26.6510    6.8450 C.3    24  VAL24       0.0019
     39  CG2       -3.5960  -25.2280    5.6600 C.3    24  VAL24       0.0019
     40  N          0.5260  -28.7690   11.9660 N.3    37  ALA37      -0.1245
     41  CA         0.1770  -27.9910   10.7840 C.3    37  ALA37       0.1562
     42  C         -0.0040  -26.5300   11.1740 C.2    37  ALA37       0.2260
     43  O         -0.4710  -26.2170   12.2660 O.2    37  ALA37      -0.2867
     44  CB        -1.0900  -28.5260   10.1670 C.3    37  ALA37       0.0290
     45  N         -1.8020  -23.4110    9.5470 N.3    39  LYS39      -0.1245
     46  CA        -2.6540  -22.8020    8.5280 C.3    39  LYS39       0.1561
     47  C         -2.4900  -21.2940    8.6550 C.2    39  LYS39       0.2260
     48  O         -2.8350  -20.7130    9.6860 O.2    39  LYS39      -0.2867
     49  CB        -4.1170  -23.1800    8.7650 C.3    39  LYS39       0.0271
     50  CG        -5.0970  -22.5410    7.7860 C.3    39  LYS39       0.0035
     51  CD        -6.5170  -22.4870    8.3590 C.3    39  LYS39       0.0206
     52  CE        -7.4080  -23.6030    7.8520 C.3    39  LYS39       0.1093
     53  NZ        -6.9250  -24.9540    8.2190 N.3    39  LYS39      -0.1314
     54  N        -10.1820  -32.9240   14.5790 N.3    71  LEU71      -0.1245
     55  CA        -8.8580  -32.3270   14.4570 C.3    71  LEU71       0.1561
     56  C         -8.7060  -31.2620   15.5110 C.2    71  LEU71       0.2260
     57  O         -9.5820  -30.4180   15.6830 O.2    71  LEU71      -0.2867
     58  CB        -8.6540  -31.6960   13.0850 C.3    71  LEU71       0.0270
     59  CG        -7.2000  -31.2570   12.9160 C.3    71  LEU71       0.0019
     60  CD1       -6.8560  -31.4280   11.4640 C.3    71  LEU71       0.0001
     61  CD2       -6.9820  -29.8240   13.3380 C.3    71  LEU71       0.0001
     62  N         -2.5280  -26.2040   14.2140 N.3    87  LEU87      -0.1231
     63  CA        -3.3870  -27.3790   14.1310 C.3    87  LEU87       0.1693
     64  C         -2.7310  -28.7230   14.2840 C.2    87  LEU87       0.2592
     65  O         -1.5330  -28.8840   14.1150 O.2    87  LEU87      -0.2718
     66  CB        -4.1180  -27.4000   12.8000 C.3    87  LEU87       0.0284
     67  CG        -4.9560  -26.1980   12.4190 C.3    87  LEU87       0.0019
     68  CD1       -5.2980  -26.3070   10.9570 C.3    87  LEU87       0.0001
     69  CD2       -6.1890  -26.1390   13.2710 C.3    87  LEU87       0.0001
     70  N         -3.5680  -29.7000   14.5860 N.am   88  GLU88      -0.1966
     71  CA        -3.1370  -31.0710   14.7260 C.3    88  GLU88       0.1733
     72  C         -2.7620  -31.4480   13.3050 C.2    88  GLU88       0.2616
     73  O         -3.5000  -31.1320   12.3650 O.2    88  GLU88      -0.2715
     74  CB        -4.3100  -31.9420   15.1740 C.3    88  GLU88       0.0429
     75  CG        -3.9110  -33.3120   15.6300 C.3    88  GLU88       0.1163
     76  CD        -5.0730  -34.2880   15.7370 C.2    88  GLU88       0.3649
     77  OE1       -6.1110  -33.9740   16.3870 O.co2  88  GLU88      -0.2457
     78  OE2       -4.9200  -35.3940   15.1690 O.co2  88  GLU88      -0.2457
     79  N         -1.6200  -32.1020   13.1350 N.am   89  TYR89      -0.1960
     80  CA        -1.1750  -32.5450   11.8200 C.3    89  TYR89       0.1771
     81  C         -1.7540  -33.9560   11.5560 C.2    89  TYR89       0.2619
     82  O         -1.6380  -34.8370   12.4080 O.2    89  TYR89      -0.2715
     83  CB         0.3530  -32.5540   11.8140 C.3    89  TYR89       0.0574
     84  CG         0.9740  -33.3340   10.6850 C.ar   89  TYR89      -0.0198
     85  CD1        0.7600  -32.9630    9.3520 C.ar   89  TYR89      -0.0009
     86  CD2        1.7670  -34.4570   10.9420 C.ar   89  TYR89      -0.0009
     87  CE1        1.3180  -33.6910    8.3100 C.ar   89  TYR89       0.0417
     88  CE2        2.3250  -35.1860    9.9050 C.ar   89  TYR89       0.0417
     89  CZ         2.0960  -34.7970    8.5960 C.ar   89  TYR89       0.1957
     90  OH         2.6520  -35.5070    7.5650 O.3    89  TYR89      -0.2866
     91  N         -2.3980  -34.1550   10.4000 N.am   90  ALA90      -0.1964
     92  CA        -2.9880  -35.4620   10.0280 C.3    90  ALA90       0.1713
     93  C         -2.1630  -36.1120    8.9130 C.2    90  ALA90       0.2458
     94  O         -2.4040  -35.8930    7.7370 O.2    90  ALA90      -0.2730
     95  CB        -4.4250  -35.2790    9.5700 C.3    90  ALA90       0.0333
     96  N         -1.1900  -36.9510    9.2820 N.am   91  PRO91      -0.2727
     97  CA        -0.2790  -37.6570    8.3750 C.3    91  PRO91       0.1402
     98  C         -0.7820  -38.2210    7.0520 C.2    91  PRO91       0.2269
     99  O         -0.0050  -38.3150    6.1050 O.2    91  PRO91      -0.2865
    100  CB         0.3080  -38.7470    9.2610 C.3    91  PRO91       0.0296
    101  CG         0.3180  -38.1030   10.5920 C.3    91  PRO91       0.0237
    102  CD        -1.0450  -37.4700   10.6510 C.3    91  PRO91       0.0939
    103  N         -3.2070  -37.0050    4.8370 N.3    93  GLY93      -0.1210
    104  CA        -3.9890  -36.1040    4.0100 C.3    93  GLY93       0.1956
    105  C         -5.4880  -36.0810    4.2250 C.2    93  GLY93       0.2612
    106  O         -5.9910  -36.3850    5.2980 O.2    93  GLY93      -0.2717
    107  N         -6.2060  -35.7020    3.1780 N.am   94  THR94      -0.1952
    108  CA        -7.6570  -35.6350    3.2430 C.3    94  THR94       0.1897
    109  C         -8.2680  -36.9090    2.6750 C.2    94  THR94       0.2313
    110  O         -7.6130  -37.6560    1.9510 O.2    94  THR94      -0.2863
    111  CB        -8.2260  -34.4290    2.4340 C.3    94  THR94       0.1794
    112  OG1       -8.0350  -34.6540    1.0320 O.3    94  THR94      -0.2208
    113  CG2       -7.5350  -33.1320    2.8220 C.3    94  THR94       0.0378
    114  N         -8.7520  -36.5740   -0.9520 N.3    97  ARG97      -0.1245
    115  CA        -7.5980  -37.0020   -1.7280 C.3    97  ARG97       0.1563
    116  C         -7.5840  -38.5210   -1.9430 C.2    97  ARG97       0.2260
    117  O         -7.2010  -38.9910   -3.0070 O.2    97  ARG97      -0.2867
    118  CB        -6.3280  -36.6050   -1.0120 C.3    97  ARG97       0.0307
    119  CG        -5.5790  -35.4250   -1.5930 C.3    97  ARG97       0.0489
    120  CD        -4.2110  -35.3780   -0.9110 C.3    97  ARG97       0.2205
    121  NE        -3.5600  -36.6880   -1.0190 N.pl3  97  ARG97      -0.0865
    122  CZ        -2.7180  -37.2060   -0.1250 C.cat  97  ARG97       0.5346
    123  NH1       -2.3960  -36.5350    0.9760 N.pl3  97  ARG97       0.1354
    124  NH2       -2.2080  -38.4160   -0.3270 N.pl3  97  ARG97       0.1354
    125  N        -13.6550  -32.9400    1.7720 N.3   137  GLU137     -0.1245
    126  CA       -12.4960  -32.0460    1.7980 C.3   137  GLU137      0.1567
    127  C        -12.1410  -31.6020    3.2120 C.2   137  GLU137      0.2260
    128  O        -11.0500  -31.0870    3.4390 O.2   137  GLU137     -0.2867
    129  CB       -12.7440  -30.8110    0.9350 C.3   137  GLU137      0.0388
    130  CG       -13.1360  -31.1240   -0.5080 C.3   137  GLU137      0.1160
    131  CD       -14.6390  -31.3970   -0.6920 C.2   137  GLU137      0.3649
    132  OE1      -15.4320  -30.4720   -0.4300 O.co2 137  GLU137     -0.2457
    133  OE2      -15.0340  -32.5180   -1.1050 O.co2 137  GLU137     -0.2457
    134  N         -9.7110  -35.3150    7.4020 N.3   140  LEU140     -0.1245
    135  CA        -8.3180  -35.6990    7.3660 C.3   140  LEU140      0.1561
    136  C         -8.1370  -37.1240    7.8740 C.2   140  LEU140      0.2260
    137  O         -9.0660  -37.7220    8.4150 O.2   140  LEU140     -0.2867
    138  CB        -7.5150  -34.7130    8.2020 C.3   140  LEU140      0.0270
    139  CG        -7.5420  -33.3590    7.5030 C.3   140  LEU140      0.0019
    140  CD1       -6.9520  -32.2800    8.3880 C.3   140  LEU140      0.0001
    141  CD2       -6.7730  -33.4900    6.1940 C.3   140  LEU140      0.0001
    142  N        -12.3630  -31.4940   10.6090 N.3   150  ALA150     -0.1231
    143  CA       -11.7490  -30.1790   10.6650 C.3   150  ALA150      0.1694
    144  C        -12.7070  -29.1370   10.0890 C.2   150  ALA150      0.2592
    145  O        -13.7740  -29.4780    9.5730 O.2   150  ALA150     -0.2718
    146  CB       -10.4790  -30.1920    9.8700 C.3   150  ALA150      0.0304
    147  N        -12.3320  -27.8670   10.2030 N.am  151  ASP151     -0.1974
    148  CA       -13.1190  -26.7730    9.6440 C.3   151  ASP151      0.1709
    149  C        -14.4600  -26.4970   10.2880 C.2   151  ASP151      0.2293
    150  O        -15.4990  -26.5570    9.6280 O.2   151  ASP151     -0.2864
    151  CB       -13.3400  -27.0150    8.1480 C.3   151  ASP151      0.1436
    152  CG       -12.0700  -26.8510    7.3330 C.2   151  ASP151      0.3671
    153  OD1      -11.7050  -25.6870    7.0560 O.co2 151  ASP151     -0.2456
    154  OD2      -11.4380  -27.8760    6.9770 O.co2 151  ASP151     -0.2456
@<TRIPOS>BOND
     1   117   116    2
     2   116   115    1
     3   115   118    1
     4   115   114    1
     5   119   118    1
     6   119   120    1
     7    27    26    2
     8   133   131   ar
     9   121   120    1
    10   121   122    2
    11   131   130    1
    12   131   132   ar
    13    26    25    1
    14   130   129    1
    15   124   122    1
    16   122   123    1
    17    24    25    1
    18    24    22   am
    19    25    28    1
    20    21    22    1
    21    21    20    2
    22    22    23    2
    23   129   126    1
    24    15    14    2
    25   112   111    1
    26    32    31    1
    27    10     9    1
    28    20    14    1
    29    14    13    1
    30    30    31    1
    31    30    29    1
    32   125   126    1
    33   126   127    1
    34    28    29    1
    35     9    11    1
    36     9     8    2
    37   110   109    2
    38     7     8    1
    39     7     6    1
    40   111   113    1
    41   111   108    1
    42     5     6    1
    43     5     2    1
    44    12    13    1
    45    13    16    1
    46   109   108    1
    47   107   108    1
    48   107   105   am
    49     2     3    1
    50     2     1    1
    51   127   128    2
    52     3     4    2
    53   104   105    1
    54   104   103    1
    55    16    17    1
    56    33    34    1
    57   105   106    2
    58    36    35    2
    59    19    17    1
    60    17    18    1
    61    35    34    1
    62    34    37    1
    63    37    39    1
    64    37    38    1
    65    99    98    2
    66   141   139    1
    67   154   152   ar
    68    98    97    1
    69   153   152   ar
    70   152   151    1
    71   135   134    1
    72   135   136    1
    73   135   138    1
    74   139   138    1
    75   139   140    1
    76    90    89    1
    77    94    93    2
    78    50    51    1
    79    50    49    1
    80    52    53    1
    81    52    51    1
    82   136   137    2
    83   151   148    1
    84    87    89   ar
    85    87    85   ar
    86    97   100    1
    87    97    96    1
    88    46    47    1
    89    46    49    1
    90    46    45    1
    91    89    88   ar
    92    47    48    2
    93    93    96   am
    94    93    92    1
    95   100   101    1
    96    96   102    1
    97    85    84   ar
    98    95    92    1
    99   145   144    2
   100   150   149    2
   101   148   147    1
   102   148   149    1
   103   146   143    1
   104    88    86   ar
   105    92    91    1
   106   144   147   am
   107   144   143    1
   108    44    41    1
   109    91    81   am
   110   101   102    1
   111   142   143    1
   112    84    86   ar
   113    84    83    1
   114    41    42    1
   115    41    40    1
   116    68    67    1
   117    42    43    2
   118    60    59    1
   119    81    80    1
   120    81    82    2
   121    83    80    1
   122    80    79    1
   123    73    72    2
   124    67    66    1
   125    67    69    1
   126    66    63    1
   127    59    58    1
   128    59    61    1
   129    58    55    1
   130    79    72   am
   131    72    71    1
   132    65    64    2
   133    63    62    1
   134    63    64    1
   135    64    70   am
   136    55    54    1
   137    55    56    1
   138    70    71    1
   139    71    74    1
   140    78    76   ar
   141    74    75    1
   142    56    57    2
   143    75    76    1
   144    76    77   ar
