@<TRIPOS>MOLECULE
tmp/4deeA00.pdb
 166 157 0 0 0
SMALL
GASTEIGER

@<TRIPOS>ATOM
      1  N          0.4470   27.6450    3.9050 N.3    16  LEU16      -0.1231
      2  CA         1.2640   28.8200    4.0870 C.3    16  LEU16       0.1693
      3  C          2.5090   28.7240    3.1970 C.2    16  LEU16       0.2593
      4  O          2.9330   29.7180    2.6060 O.2    16  LEU16      -0.2718
      5  CB         1.6610   28.9590    5.5610 C.3    16  LEU16       0.0284
      6  CG         0.5250   29.3300    6.5130 C.3    16  LEU16       0.0019
      7  CD1        1.0520   29.4670    7.9320 C.3    16  LEU16       0.0001
      8  CD2       -0.0960   30.6610    6.0680 C.3    16  LEU16       0.0001
      9  N          3.0730   27.5250    3.0850 N.am   17  GLY17      -0.1942
     10  CA         4.2620   27.3450    2.2610 C.3    17  GLY17       0.2014
     11  C          4.6340   25.8880    2.0370 C.2    17  GLY17       0.2639
     12  O          4.0190   24.9890    2.6080 O.2    17  GLY17      -0.2714
     13  N          5.6390   25.6440    1.2010 N.am   18  LYS18      -0.1963
     14  CA         6.0640   24.2740    0.9110 C.3    18  LYS18       0.1728
     15  C          7.4310   23.9490    1.5100 C.2    18  LYS18       0.2617
     16  O          8.3930   24.6990    1.3530 O.2    18  LYS18      -0.2715
     17  CB         6.1080   24.0500   -0.6050 C.3    18  LYS18       0.0311
     18  CG         4.9320   24.6790   -1.3360 C.3    18  LYS18       0.0038
     19  CD         4.8490   24.2040   -2.7960 C.3    18  LYS18       0.0206
     20  CE         3.4970   24.5800   -3.4100 C.3    18  LYS18       0.1093
     21  NZ         3.2640   23.8800   -4.7230 N.3    18  LYS18      -0.1314
     22  N          7.5030   22.8250    2.2060 N.am   19  GLY19      -0.1940
     23  CA         8.7550   22.4130    2.8100 C.3    19  GLY19       0.2014
     24  C          9.3800   21.2640    2.0400 C.2    19  GLY19       0.2639
     25  O          8.8790   20.8620    0.9860 O.2    19  GLY19      -0.2714
     26  N         10.4790   20.7220    2.5510 N.am   20  LYS20      -0.1963
     27  CA        11.1030   19.6300    1.8430 C.3    20  LYS20       0.1728
     28  C         10.3290   18.3320    2.0100 C.2    20  LYS20       0.2616
     29  O         10.1100   17.6150    1.0370 O.2    20  LYS20      -0.2715
     30  CB        12.5490   19.4330    2.2860 C.3    20  LYS20       0.0311
     31  CG        13.3030   18.5520    1.3020 C.3    20  LYS20       0.0038
     32  CD        14.7810   18.4260    1.6200 C.3    20  LYS20       0.0206
     33  CE        15.4920   17.7470    0.4640 C.3    20  LYS20       0.1093
     34  NZ        16.9530   17.6710    0.6900 N.3    20  LYS20      -0.1314
     35  N          9.8880   18.0390    3.2310 N.am   21  PHE21      -0.1974
     36  CA         9.1500   16.7980    3.4790 C.3    21  PHE21       0.1639
     37  C          7.7150   16.9740    3.9870 C.2    21  PHE21       0.2290
     38  O          7.2490   16.1870    4.8150 O.2    21  PHE21      -0.2864
     39  CB         9.9360   15.9350    4.4630 C.3    21  PHE21       0.0560
     40  CG        11.3750   15.7400    4.0720 C.ar   21  PHE21      -0.0200
     41  CD1       12.3970   16.3100    4.8260 C.ar   21  PHE21      -0.0042
     42  CD2       11.7060   15.0050    2.9340 C.ar   21  PHE21      -0.0042
     43  CE1       13.7350   16.1500    4.4550 C.ar   21  PHE21      -0.0003
     44  CE2       13.0460   14.8360    2.5480 C.ar   21  PHE21      -0.0003
     45  CZ        14.0620   15.4100    3.3120 C.ar   21  PHE21      -0.0000
     46  N          3.4110   23.5650    5.2010 N.3    24  VAL24      -0.1245
     47  CA         3.0980   24.3080    6.3990 C.3    24  VAL24       0.1561
     48  C          1.6960   24.9100    6.2000 C.2    24  VAL24       0.2260
     49  O          1.3930   25.5250    5.1700 O.2    24  VAL24      -0.2867
     50  CB         4.1680   25.4060    6.6680 C.3    24  VAL24       0.0252
     51  CG1        3.8260   26.1760    7.9350 C.3    24  VAL24       0.0019
     52  CG2        5.5470   24.7440    6.8370 C.3    24  VAL24       0.0019
     53  N          0.6950   28.2710   12.9880 N.3    37  ALA37      -0.1245
     54  CA         1.1320   27.5290   11.8340 C.3    37  ALA37       0.1562
     55  C          1.4500   26.1050   12.2070 C.2    37  ALA37       0.2260
     56  O          2.0240   25.8560   13.2050 O.2    37  ALA37      -0.2867
     57  CB         2.2880   28.1550   11.2430 C.3    37  ALA37       0.0290
     58  N          3.5160   22.9450   10.8620 N.3    39  LYS39      -0.1245
     59  CA         4.4440   22.4010    9.9300 C.3    39  LYS39       0.1561
     60  C          4.2900   20.8900    9.8750 C.2    39  LYS39       0.2260
     61  O          4.3780   20.2180   10.8520 O.2    39  LYS39      -0.2867
     62  CB         5.8550   22.8320   10.2740 C.3    39  LYS39       0.0271
     63  CG         6.9250   22.2940    9.4040 C.3    39  LYS39       0.0035
     64  CD         8.2220   22.8390    9.8440 C.3    39  LYS39       0.0206
     65  CE         9.3680   22.4190    9.0120 C.3    39  LYS39       0.1093
     66  NZ        10.5760   23.1260    9.3460 N.3    39  LYS39      -0.1314
     67  N         15.9790   20.8460   15.4860 N.3    58  GLU58      -0.1245
     68  CA        15.0560   21.9510   15.2290 C.3    58  GLU58       0.1567
     69  C         14.0940   22.1400   16.4080 C.2    58  GLU58       0.2260
     70  O         13.9630   23.2390   16.9410 O.2    58  GLU58      -0.2867
     71  CB        14.2550   21.6910   13.9410 C.3    58  GLU58       0.0388
     72  CG        13.4770   22.9090   13.4520 C.3    58  GLU58       0.1160
     73  CD        12.7620   22.6930   12.1140 C.2    58  GLU58       0.3649
     74  OE1       13.3020   21.9810   11.2100 O.co2  58  GLU58      -0.2457
     75  OE2       11.6560   23.2670   11.9640 O.co2  58  GLU58      -0.2457
     76  N         11.4540   32.9370   15.2030 N.3    71  LEU71      -0.1245
     77  CA        10.1490   32.2820   15.1730 C.3    71  LEU71       0.1561
     78  C          9.9830   31.2550   16.2820 C.2    71  LEU71       0.2260
     79  O         10.7580   30.3050   16.3920 O.2    71  LEU71      -0.2867
     80  CB         9.9270   31.5710   13.8330 C.3    71  LEU71       0.0270
     81  CG         8.4830   31.1070   13.6230 C.3    71  LEU71       0.0019
     82  CD1        7.6550   32.3440   13.3290 C.3    71  LEU71       0.0001
     83  CD2        8.3630   30.1100   12.5050 C.3    71  LEU71       0.0001
     84  N          3.9350   26.0470   15.2350 N.3    87  LEU87      -0.1231
     85  CA         4.7290   27.2630   15.1540 C.3    87  LEU87       0.1693
     86  C          3.9580   28.5480   15.2720 C.2    87  LEU87       0.2592
     87  O          2.7360   28.5900   15.0680 O.2    87  LEU87      -0.2718
     88  CB         5.4950   27.3200   13.8260 C.3    87  LEU87       0.0284
     89  CG         6.2810   26.0890   13.3830 C.3    87  LEU87       0.0019
     90  CD1        6.8100   26.2910   11.9650 C.3    87  LEU87       0.0001
     91  CD2        7.4250   25.8460   14.3800 C.3    87  LEU87       0.0001
     92  N          4.7070   29.5920   15.6210 N.am   88  GLU88      -0.1966
     93  CA         4.2000   30.9470   15.7040 C.3    88  GLU88       0.1733
     94  C          3.8500   31.2890   14.2440 C.2    88  GLU88       0.2616
     95  O          4.6520   31.0320   13.3280 O.2    88  GLU88      -0.2715
     96  CB         5.3020   31.8860   16.2140 C.3    88  GLU88       0.0429
     97  CG         5.0620   33.3650   15.9090 C.3    88  GLU88       0.1163
     98  CD         6.2430   34.2560   16.2900 C.2    88  GLU88       0.3649
     99  OE1        7.3330   33.7290   16.5810 O.co2  88  GLU88      -0.2457
    100  OE2        6.0920   35.5020   16.2780 O.co2  88  GLU88      -0.2457
    101  N          2.6580   31.8390   14.0190 N.am   89  TYR89      -0.1960
    102  CA         2.2450   32.1800   12.6550 C.3    89  TYR89       0.1771
    103  C          2.8630   33.5200   12.2420 C.2    89  TYR89       0.2619
    104  O          2.8440   34.4700   13.0130 O.2    89  TYR89      -0.2715
    105  CB         0.6880   32.2040   12.5710 C.3    89  TYR89       0.0574
    106  CG         0.0800   33.0170   11.4190 C.ar   89  TYR89      -0.0198
    107  CD1        0.4500   32.7900   10.0890 C.ar   89  TYR89      -0.0009
    108  CD2       -0.9000   33.9860   11.6740 C.ar   89  TYR89      -0.0009
    109  CE1       -0.1380   33.4990    9.0390 C.ar   89  TYR89       0.0417
    110  CE2       -1.4970   34.7040   10.6400 C.ar   89  TYR89       0.0417
    111  CZ        -1.1110   34.4520    9.3200 C.ar   89  TYR89       0.1957
    112  OH        -1.7190   35.1400    8.3050 O.3    89  TYR89      -0.2866
    113  N          3.4430   33.5830   11.0430 N.am   90  ALA90      -0.1977
    114  CA         4.0560   34.8270   10.5440 C.3    90  ALA90       0.1597
    115  C          3.1570   35.3500    9.4150 C.2    90  ALA90       0.2287
    116  O          3.2320   34.8600    8.2820 O.2    90  ALA90      -0.2864
    117  CB         5.4560   34.5410   10.0200 C.3    90  ALA90       0.0319
    118  N          4.3610   36.6810    5.5570 N.3    93  GLY93      -0.1210
    119  CA         5.0570   35.7610    4.6860 C.3    93  GLY93       0.1956
    120  C          6.5580   35.7390    4.7540 C.2    93  GLY93       0.2612
    121  O          7.1360   36.0810    5.7750 O.2    93  GLY93      -0.2717
    122  N          7.1870   35.3230    3.6610 N.am   94  THR94      -0.1952
    123  CA         8.6460   35.2380    3.6200 C.3    94  THR94       0.1897
    124  C          9.3410   36.4000    2.9370 C.2    94  THR94       0.2313
    125  O          8.7420   37.1100    2.1050 O.2    94  THR94      -0.2863
    126  CB         9.1040   33.9940    2.8840 C.3    94  THR94       0.1794
    127  OG1        8.7030   34.0990    1.5180 O.3    94  THR94      -0.2208
    128  CG2        8.5060   32.7480    3.5080 C.3    94  THR94       0.0378
    129  N         14.0220   32.1980    2.1520 N.3   137  GLU137     -0.1231
    130  CA        12.8170   31.3570    2.3160 C.3   137  GLU137      0.1699
    131  C         12.5480   30.9690    3.7740 C.2   137  GLU137      0.2592
    132  O         11.4520   30.4830    4.1050 O.2   137  GLU137     -0.2718
    133  CB        12.9210   30.0660    1.4850 C.3   137  GLU137      0.0402
    134  CG        14.0600   29.1540    1.9340 C.3   137  GLU137      0.1161
    135  CD        14.4020   28.0730    0.9090 C.2   137  GLU137      0.3649
    136  OE1       14.5710   28.4390   -0.2810 O.co2 137  GLU137     -0.2457
    137  OE2       14.5110   26.8700    1.2880 O.co2 137  GLU137     -0.2457
    138  N         13.5570   31.1740    4.6240 N.am  138  ASN138     -0.1974
    139  CA        13.5010   30.8620    6.0520 C.3   138  ASN138      0.1688
    140  C         13.4740   32.1110    6.9120 C.2   138  ASN138      0.2292
    141  O         13.6550   32.0280    8.1340 O.2   138  ASN138     -0.2864
    142  CB        14.7160   30.0310    6.4820 C.3   138  ASN138      0.1181
    143  CG        14.7020   28.6400    5.9010 C.2   138  ASN138      0.2629
    144  OD1       13.6450   28.0850    5.6160 O.2   138  ASN138     -0.2716
    145  ND2       15.8750   28.0600    5.7430 N.am  138  ASN138     -0.0877
    146  N         11.0500   34.9930    7.9590 N.3   140  LEU140     -0.1245
    147  CA         9.6320   35.3250    7.9550 C.3   140  LEU140      0.1561
    148  C          9.3150   36.7110    8.5050 C.2   140  LEU140      0.2260
    149  O         10.1460   37.3460    9.1520 O.2   140  LEU140     -0.2867
    150  CB         8.8580   34.2550    8.7320 C.3   140  LEU140      0.0270
    151  CG         9.2100   32.8130    8.3470 C.3   140  LEU140      0.0019
    152  CD1        8.3590   31.8360    9.1560 C.3   140  LEU140      0.0001
    153  CD2        8.9810   32.6060    6.8610 C.3   140  LEU140      0.0001
    154  N         13.5690   31.4940   11.0140 N.3   150  ALA150     -0.1231
    155  CA        12.9090   30.2180   11.2330 C.3   150  ALA150      0.1694
    156  C         13.7560   29.0940   10.6350 C.2   150  ALA150      0.2592
    157  O         14.8620   29.3370   10.1290 O.2   150  ALA150     -0.2718
    158  CB        11.5290   30.2320   10.5840 C.3   150  ALA150      0.0304
    159  N         13.2320   27.8700   10.7330 N.am  151  ASP151     -0.1974
    160  CA        13.8430   26.6650   10.1850 C.3   151  ASP151      0.1709
    161  C         15.2160   26.3150   10.7500 C.2   151  ASP151      0.2293
    162  O         16.2450   26.4330   10.0640 O.2   151  ASP151     -0.2864
    163  CB        13.9040   26.7890    8.6620 C.3   151  ASP151      0.1436
    164  CG        14.1410   25.4640    7.9930 C.2   151  ASP151      0.3671
    165  OD1       14.2500   25.4340    6.7560 O.co2 151  ASP151     -0.2456
    166  OD2       14.2160   24.4420    8.7210 O.co2 151  ASP151     -0.2456
@<TRIPOS>BOND
     1    21    20    1
     2    20    19    1
     3    19    18    1
     4    18    17    1
     5    17    14    1
     6   136   135   ar
     7    33    34    1
     8    33    32    1
     9   135   137   ar
    10   135   134    1
    11    14    13    1
    12    14    15    1
    13    25    24    2
    14    29    28    2
    15    13    11   am
    16    31    32    1
    17    31    30    1
    18    16    15    2
    19   133   134    1
    20   133   130    1
    21    15    22   am
    22   127   126    1
    23    27    28    1
    24    27    30    1
    25    27    26    1
    26    28    35   am
    27    11    10    1
    28    11    12    2
    29    24    26   am
    30    24    23    1
    31   125   124    2
    32   129   130    1
    33    22    23    1
    34    10     9    1
    35   130   131    1
    36    44    42   ar
    37    44    45   ar
    38     4     3    2
    39   126   128    1
    40   126   123    1
    41    42    40   ar
    42   124   123    1
    43     9     3   am
    44     3     2    1
    45    35    36    1
    46    45    43   ar
    47    36    37    1
    48    36    39    1
    49   123   122    1
    50   122   120   am
    51   131   132    2
    52   131   138   am
    53     1     2    1
    54    37    38    2
    55    40    39    1
    56    40    41   ar
    57     2     5    1
    58    43    41   ar
    59   138   139    1
    60   119   120    1
    61   119   118    1
    62   120   121    2
    63    49    48    2
    64    46    47    1
    65     5     6    1
    66   144   143    2
    67   145   143   am
    68   143   142    1
    69   139   142    1
    70   139   140    1
    71     8     6    1
    72    48    47    1
    73    47    50    1
    74     6     7    1
    75    50    52    1
    76    50    51    1
    77   165   164   ar
    78   153   151    1
    79   140   141    2
    80   147   146    1
    81   147   148    1
    82   147   150    1
    83   164   163    1
    84   164   166   ar
    85   116   115    2
    86   112   111    1
    87   151   150    1
    88   151   152    1
    89   148   149    2
    90   163   160    1
    91    65    66    1
    92    65    64    1
    93   109   111   ar
    94   109   107   ar
    95   111   110   ar
    96    63    64    1
    97    63    62    1
    98   115   114    1
    99    60    59    1
   100    60    61    2
   101    59    62    1
   102    59    58    1
   103   117   114    1
   104   162   161    2
   105   107   106   ar
   106   157   156    2
   107   160   159    1
   108   160   161    1
   109   114   113    1
   110   158   155    1
   111   156   159   am
   112   156   155    1
   113   110   108   ar
   114   154   155    1
   115   113   103   am
   116    74    73   ar
   117    57    54    1
   118   106   108   ar
   119   106   105    1
   120    54    55    1
   121    54    53    1
   122    75    73   ar
   123    90    89    1
   124    73    72    1
   125    55    56    2
   126   103   102    1
   127   103   104    2
   128    83    81    1
   129   105   102    1
   130   102   101    1
   131    95    94    2
   132    82    81    1
   133    89    88    1
   134    89    91    1
   135    72    71    1
   136    81    80    1
   137    88    85    1
   138    80    77    1
   139    71    68    1
   140   101    94   am
   141    94    93    1
   142    87    86    2
   143    85    84    1
   144    85    86    1
   145    77    76    1
   146    77    78    1
   147    68    67    1
   148    68    69    1
   149    86    92   am
   150    92    93    1
   151    93    96    1
   152    97    96    1
   153    97    98    1
   154   100    98   ar
   155    78    79    2
   156    98    99   ar
   157    69    70    2
