@<TRIPOS>MOLECULE
tmp/4degA00.pdb
 181 171 0 0 0
SMALL
GASTEIGER

@<TRIPOS>ATOM
      1  N         18.8840    3.3450   55.1440 N.3    33  ILE33      -0.1231
      2  CA        19.0950    3.8550   56.5010 C.3    33  ILE33       0.1692
      3  C         18.3660    5.1760   56.7510 C.2    33  ILE33       0.2593
      4  O         18.2770    5.6410   57.8870 O.2    33  ILE33      -0.2718
      5  CB        20.6000    3.9880   56.8450 C.3    33  ILE33       0.0266
      6  CG1       21.2990    4.9730   55.8980 C.3    33  ILE33       0.0019
      7  CG2       21.2610    2.6120   56.8340 C.3    33  ILE33       0.0020
      8  CD1       22.6990    5.3910   56.3410 C.3    33  ILE33       0.0001
      9  N         17.8500    5.7730   55.6820 N.am   34  GLY34      -0.1942
     10  CA        17.0780    7.0050   55.7750 C.3    34  GLY34       0.2014
     11  C         16.2660    7.2210   54.5160 C.2    34  GLY34       0.2638
     12  O         16.6790    6.8150   53.4280 O.2    34  GLY34      -0.2714
     13  N         15.1070    7.8560   54.6700 N.am   35  ARG35      -0.1977
     14  CA        14.2130    8.1290   53.5450 C.3    35  ARG35       0.1597
     15  C         13.8830    9.6110   53.4470 C.2    35  ARG35       0.2287
     16  O         13.3810   10.2070   54.3960 O.2    35  ARG35      -0.2864
     17  CB        12.9130    7.3260   53.6700 C.3    35  ARG35       0.0334
     18  CG        13.1020    5.8200   53.7410 C.3    35  ARG35       0.0492
     19  CD        11.7860    5.0860   53.5600 C.3    35  ARG35       0.2205
     20  NE        12.0000    3.6440   53.4520 N.pl3  35  ARG35      -0.0865
     21  CZ        12.2050    2.9910   52.3090 C.cat  35  ARG35       0.5346
     22  NH1       12.2250    3.6400   51.1480 N.pl3  35  ARG35       0.1354
     23  NH2       12.3940    1.6780   52.3290 N.pl3  35  ARG35       0.1354
     24  N         18.7760    6.9420   51.4570 N.3    41  VAL41      -0.1245
     25  CA        20.1900    6.9690   51.8260 C.3    41  VAL41       0.1561
     26  C         20.6560    5.5940   52.3360 C.2    41  VAL41       0.2260
     27  O         19.8870    4.8630   52.9690 O.2    41  VAL41      -0.2867
     28  CB        20.5580    8.2100   52.7430 C.3    41  VAL41       0.0252
     29  CG1       19.3370    8.7770   53.4650 C.3    41  VAL41       0.0019
     30  CG2       21.7160    7.9310   53.7080 C.3    41  VAL41       0.0019
     31  N         27.5660    7.8180   54.6950 N.3    51  ALA51      -0.1245
     32  CA        26.1730    7.7180   54.2790 C.3    51  ALA51       0.1562
     33  C         26.0410    8.2480   52.8610 C.2    51  ALA51       0.2260
     34  O         26.5220    9.3370   52.5430 O.2    51  ALA51      -0.2867
     35  CB        25.2660    8.4880   55.2270 C.3    51  ALA51       0.0290
     36  N         23.5840    9.3150   49.8410 N.3    53  LYS53      -0.1245
     37  CA        22.2390    9.7390   49.4940 C.3    53  LYS53       0.1561
     38  C         22.0060    9.7710   47.9870 C.2    53  LYS53       0.2260
     39  O         22.7460   10.4140   47.2350 O.2    53  LYS53      -0.2867
     40  CB        21.8990   11.0900   50.1250 C.3    53  LYS53       0.0271
     41  CG        20.6670   11.7050   49.5240 C.3    53  LYS53       0.0035
     42  CD        19.7810   12.3420   50.5420 C.3    53  LYS53       0.0206
     43  CE        18.3780   12.4260   49.9830 C.3    53  LYS53       0.1093
     44  NZ        17.8260   13.7650   50.2240 N.3    53  LYS53      -0.1314
     45  N         27.2330   19.3590   59.5140 N.3    83  LEU83      -0.1245
     46  CA        27.4840   18.1590   58.7170 C.3    83  LEU83       0.1561
     47  C         28.3000   18.4950   57.4750 C.2    83  LEU83       0.2260
     48  O         27.9380   19.3830   56.7090 O.2    83  LEU83      -0.2867
     49  CB        26.1710   17.4630   58.3230 C.3    83  LEU83       0.0270
     50  CG        26.2880   16.1020   57.6260 C.3    83  LEU83       0.0019
     51  CD1       26.7790   15.0210   58.5780 C.3    83  LEU83       0.0001
     52  CD2       24.9580   15.7050   57.0040 C.3    83  LEU83       0.0001
     53  N         28.2000   11.6140   52.4050 N.3    97  LEU97      -0.1231
     54  CA        28.2150   12.3460   53.6720 C.3    97  LEU97       0.1678
     55  C         28.8110   11.4850   54.7860 C.2    97  LEU97       0.2434
     56  O         28.6690   10.2600   54.7580 O.2    97  LEU97      -0.2733
     57  CB        26.7840   12.7410   54.0530 C.3    97  LEU97       0.0284
     58  CG        25.9100   13.4580   53.0200 C.3    97  LEU97       0.0019
     59  CD1       24.4330   13.2150   53.3040 C.3    97  LEU97       0.0001
     60  CD2       26.2260   14.9520   52.9610 C.3    97  LEU97       0.0001
     61  N         29.4680   12.1200   55.7820 N.am   98  PRO98      -0.2718
     62  CA        29.9430   11.3180   56.9100 C.3    98  PRO98       0.1535
     63  C         28.7820   10.5980   57.5750 C.2    98  PRO98       0.2599
     64  O         27.6950   11.1630   57.6990 O.2    98  PRO98      -0.2715
     65  CB        30.5600   12.3490   57.8690 C.3    98  PRO98       0.0310
     66  CG        30.2040   13.6930   57.3350 C.3    98  PRO98       0.0237
     67  CD        29.8650   13.5350   55.8890 C.3    98  PRO98       0.0939
     68  N         29.0130    9.3510   57.9720 N.am   99  TYR99      -0.1960
     69  CA        27.9940    8.5400   58.6120 C.3    99  TYR99       0.1771
     70  C         27.7120    9.0450   60.0270 C.2    99  TYR99       0.2619
     71  O         28.6330    9.2200   60.8280 O.2    99  TYR99      -0.2715
     72  CB        28.4370    7.0740   58.6310 C.3    99  TYR99       0.0574
     73  CG        27.4620    6.1230   59.2700 C.ar   99  TYR99      -0.0198
     74  CD1       27.7090    5.5910   60.5350 C.ar   99  TYR99      -0.0009
     75  CD2       26.2950    5.7440   58.6120 C.ar   99  TYR99      -0.0009
     76  CE1       26.8170    4.7080   61.1270 C.ar   99  TYR99       0.0417
     77  CE2       25.3990    4.8660   59.1940 C.ar   99  TYR99       0.0417
     78  CZ        25.6680    4.3480   60.4500 C.ar   99  TYR99       0.1957
     79  OH        24.7810    3.4740   61.0280 O.3    99  TYR99      -0.2866
     80  N         26.4350    9.2850   60.3130 N.am  100  MET100     -0.1963
     81  CA        25.9950    9.7410   61.6310 C.3   100  MET100      0.1736
     82  C         25.3220    8.5980   62.3830 C.2   100  MET100      0.2616
     83  O         24.1280    8.3560   62.2310 O.2   100  MET100     -0.2715
     84  CB        25.0560   10.9430   61.4890 C.3   100  MET100      0.0427
     85  CG        25.7170   12.1360   60.8200 C.3   100  MET100      0.0599
     86  SD        26.8340   12.9720   61.9630 S.3   100  MET100     -0.1393
     87  CE        28.4000   12.8710   61.1090 C.3   100  MET100      0.0692
     88  N         26.1100    7.9030   63.1970 N.am  101  LYS101     -0.1977
     89  CA        25.6840    6.6690   63.8590 C.3   101  LYS101      0.1596
     90  C         24.3410    6.7360   64.5930 C.2   101  LYS101      0.2287
     91  O         23.5420    5.8040   64.5110 O.2   101  LYS101     -0.2864
     92  CB        26.7810    6.1740   64.8080 C.3   101  LYS101      0.0298
     93  CG        26.4420    4.8790   65.5290 C.3   101  LYS101      0.0038
     94  CD        27.5430    4.4840   66.4850 C.3   101  LYS101      0.0206
     95  CE        27.0140    3.5680   67.5720 C.3   101  LYS101      0.1093
     96  NZ        28.0820    3.2560   68.5590 N.3   101  LYS101     -0.1314
     97  N         21.8370    8.8790   64.1750 N.3   103  GLY103     -0.1210
     98  CA        20.7380    9.4240   63.3810 C.3   103  GLY103      0.1956
     99  C         20.3410   10.8460   63.7350 C.2   103  GLY103      0.2611
    100  O         21.1500   11.6130   64.2580 O.2   103  GLY103     -0.2717
    101  N         19.0860   11.1920   63.4520 N.am  104  ASP104     -0.1973
    102  CA        18.6010   12.5490   63.6790 C.3   104  ASP104      0.1709
    103  C         18.3120   12.8280   65.1540 C.2   104  ASP104      0.2293
    104  O         17.9310   11.9310   65.9070 O.2   104  ASP104     -0.2864
    105  CB        17.3730   12.8640   62.8160 C.3   104  ASP104      0.1436
    106  CG        16.1270   12.1440   63.2840 C.2   104  ASP104      0.3671
    107  OD1       16.0260   10.9230   63.0480 O.co2 104  ASP104     -0.2456
    108  OD2       15.2440   12.8010   63.8840 O.co2 104  ASP104     -0.2456
    109  N         14.6580   11.8440   66.7650 N.3   107  ASN107     -0.1240
    110  CA        14.5220   10.4270   67.0730 C.3   107  ASN107      0.1653
    111  C         15.4050    9.9830   68.2390 C.2   107  ASN107      0.2266
    112  O         14.9830    9.1670   69.0620 O.2   107  ASN107     -0.2867
    113  CB        14.7630    9.5700   65.8290 C.3   107  ASN107      0.1155
    114  CG        13.5230    9.4620   64.9600 C.2   107  ASN107      0.2627
    115  OD1       12.4470    9.1020   65.4420 O.2   107  ASN107     -0.2716
    116  ND2       13.6660    9.7760   63.6760 N.am  107  ASN107     -0.0877
    117  N         14.5670   17.1930   63.7770 N.3   148  ARG148     -0.1231
    118  CA        14.5760   16.1260   62.7510 C.3   148  ARG148      0.1694
    119  C         15.7100   16.3210   61.7400 C.2   148  ARG148      0.2592
    120  O         16.1260   15.3760   61.0610 O.2   148  ARG148     -0.2718
    121  CB        13.2290   16.0770   62.0070 C.3   148  ARG148      0.0321
    122  CG        12.8740   17.3790   61.2820 C.3   148  ARG148      0.0489
    123  CD        11.6190   17.3090   60.4150 C.3   148  ARG148      0.2205
    124  NE        11.3640   18.6270   59.8300 N.pl3 148  ARG148     -0.0865
    125  CZ        10.6700   19.5940   60.4270 C.cat 148  ARG148      0.5346
    126  NH1       10.5260   20.7660   59.8330 N.pl3 148  ARG148      0.1354
    127  NH2       10.1120   19.3900   61.6190 N.pl3 148  ARG148      0.1354
    128  N         16.2070   17.5520   61.6570 N.am  149  ASN149     -0.1974
    129  CA        17.1580   17.9540   60.6270 C.3   149  ASN149      0.1688
    130  C         18.5900   18.1460   61.1150 C.2   149  ASN149      0.2292
    131  O         19.4520   18.5980   60.3650 O.2   149  ASN149     -0.2864
    132  CB        16.6350   19.1910   59.8970 C.3   149  ASN149      0.1181
    133  CG        15.5100   18.8510   58.9330 C.2   149  ASN149      0.2629
    134  OD1       15.4640   17.7480   58.3930 O.2   149  ASN149     -0.2716
    135  ND2       14.6050   19.7980   58.7070 N.am  149  ASN149     -0.0877
    136  N         21.7520   15.9550   63.2700 N.3   151  MET151     -0.1245
    137  CA        22.1410   14.5710   63.4970 C.3   151  MET151      0.1570
    138  C         23.2790   14.4260   64.5070 C.2   151  MET151      0.2261
    139  O         23.9990   15.3910   64.7750 O.2   151  MET151     -0.2867
    140  CB        22.4890   13.8990   62.1620 C.3   151  MET151      0.0387
    141  CG        21.3300   13.9210   61.1620 C.3   151  MET151      0.0595
    142  SD        21.6520   12.9620   59.6970 S.3   151  MET151     -0.1393
    143  CE        21.1110   11.3480   60.2430 C.3   151  MET151      0.0692
    144  N         22.4030   19.6750   59.9280 N.3   161  ALA161     -0.1231
    145  CA        22.4470   18.9420   58.6720 C.3   161  ALA161      0.1694
    146  C         21.3300   19.4460   57.7650 C.2   161  ALA161      0.2592
    147  O         20.9000   20.5960   57.8930 O.2   161  ALA161     -0.2718
    148  CB        22.3160   17.4500   58.9360 C.3   161  ALA161      0.0304
    149  N         20.8810   18.5970   56.8430 N.am  162  ASP162     -0.1974
    150  CA        19.7600   18.9170   55.9650 C.3   162  ASP162      0.1709
    151  C         19.9480   20.2530   55.2550 C.2   162  ASP162      0.2293
    152  O         19.0560   21.0950   55.2550 O.2   162  ASP162     -0.2864
    153  CB        18.4360   18.9000   56.7510 C.3   162  ASP162      0.1436
    154  CG        17.2420   19.3000   55.8950 C.2   162  ASP162      0.3671
    155  OD1       17.0830   18.7270   54.7930 O.co2 162  ASP162     -0.2456
    156  OD2       16.4760   20.1930   56.3210 O.co2 162  ASP162     -0.2456
    157  N         22.3570   17.8210   50.7920 N.3   166  ALA166     -0.1245
    158  CA        21.6660   16.9460   51.7390 C.3   166  ALA166      0.1562
    159  C         20.2290   17.3970   52.0550 C.2   166  ALA166      0.2260
    160  O         19.5000   16.7000   52.7620 O.2   166  ALA166     -0.2867
    161  CB        22.4840   16.7860   53.0200 C.3   166  ALA166      0.0290
    162  N         12.6820   14.9630   55.2880 N.3   170  TYR170     -0.1227
    163  CA        12.9530   13.6530   55.8810 C.3   170  TYR170      0.1736
    164  C         11.8180   13.1480   56.7700 C.2   170  TYR170      0.2595
    165  O         11.8150   11.9890   57.1700 O.2   170  TYR170     -0.2718
    166  CB        14.2840   13.6610   56.6420 C.3   170  TYR170      0.0548
    167  CG        15.4960   13.7960   55.7450 C.ar  170  TYR170     -0.0200
    168  CD1       15.9600   12.7090   54.9940 C.ar  170  TYR170     -0.0009
    169  CD2       16.1750   15.0080   55.6380 C.ar  170  TYR170     -0.0009
    170  CE1       17.0720   12.8290   54.1650 C.ar  170  TYR170      0.0417
    171  CE2       17.2880   15.1380   54.8090 C.ar  170  TYR170      0.0417
    172  CZ        17.7300   14.0450   54.0790 C.ar  170  TYR170      0.1957
    173  OH        18.8310   14.1740   53.2650 O.3   170  TYR170     -0.2866
    174  N         10.8690   14.0260   57.0850 N.am  171  ASP171     -0.1974
    175  CA         9.6350   13.6290   57.7710 C.3   171  ASP171      0.1709
    176  C          8.4590   14.4090   57.1860 C.2   171  ASP171      0.2293
    177  O          8.1560   15.5280   57.6170 O.2   171  ASP171     -0.2864
    178  CB         9.7370   13.8410   59.2900 C.3   171  ASP171      0.1436
    179  CG         8.6340   13.1200   60.0620 C.2   171  ASP171      0.3671
    180  OD1        7.5650   12.8240   59.4790 O.co2 171  ASP171     -0.2456
    181  OD2        8.8340   12.8480   61.2630 O.co2 171  ASP171     -0.2456
@<TRIPOS>BOND
     1    39    38    2
     2    38    37    1
     3    37    36    1
     4    37    40    1
     5    41    40    1
     6    41    42    1
     7    43    44    1
     8    43    42    1
     9   157   158    1
    10    22    21    1
    11    24    25    1
    12   158   159    1
    13   158   161    1
    14    25    26    1
    15    25    28    1
    16   159   160    2
    17    21    23    1
    18    21    20    2
    19    26    27    2
    20    53    54    1
    21    34    33    2
    22    28    29    1
    23    28    30    1
    24    33    32    1
    25    60    58    1
    26    58    59    1
    27    58    57    1
    28   173   172    1
    29    12    11    2
    30    15    14    1
    31    15    16    2
    32    20    19    1
    33    14    17    1
    34    14    13    1
    35    19    18    1
    36    17    18    1
    37    54    57    1
    38    54    55    1
    39   172   170   ar
    40   172   171   ar
    41   170   168   ar
    42    32    31    1
    43    32    35    1
    44    11    13   am
    45    11    10    1
    46    56    55    2
    47    55    61   am
    48   155   154   ar
    49   171   169   ar
    50   168   167   ar
    51     1     2    1
    52   152   151    2
    53   151   150    1
    54   162   163    1
    55   169   167   ar
    56     9    10    1
    57     9     3   am
    58   167   166    1
    59    61    67    1
    60    61    62    1
    61   163   166    1
    62   163   164    1
    63    67    66    1
    64   154   156   ar
    65   154   153    1
    66     6     8    1
    67     6     5    1
    68   150   153    1
    69   150   149    1
    70     2     3    1
    71     2     5    1
    72    48    47    2
    73     3     4    2
    74   164   174   am
    75   164   165    2
    76     7     5    1
    77   149   146   am
    78    62    63    1
    79    62    65    1
    80    52    50    1
    81   174   175    1
    82   176   177    2
    83   176   175    1
    84    66    65    1
    85    47    46    1
    86    63    64    2
    87    63    68   am
    88    50    49    1
    89    50    51    1
    90   146   147    2
    91   146   145    1
    92   175   178    1
    93    68    69    1
    94    49    46    1
    95   134   133    2
    96    69    72    1
    97    69    70    1
    98    75    77   ar
    99    75    73   ar
   100    72    73    1
   101   145   148    1
   102   145   144    1
   103   135   133   am
   104    46    45    1
   105   133   132    1
   106    77    78   ar
   107    73    74   ar
   108   178   179    1
   109   180   179   ar
   110   142   143    1
   111   142   141    1
   112   124   123    1
   113   124   125    2
   114   126   125    1
   115   132   129    1
   116    70    80   am
   117    70    71    2
   118   179   181   ar
   119    80    81    1
   120   131   130    2
   121   123   122    1
   122   125   127    1
   123    78    79    1
   124    78    76   ar
   125    74    76   ar
   126   129   130    1
   127   129   128    1
   128    85    84    1
   129    85    86    1
   130   120   119    2
   131    87    86    1
   132   141   140    1
   133   122   121    1
   134    84    81    1
   135    81    82    1
   136   128   119   am
   137   119   118    1
   138   121   118    1
   139   140   137    1
   140    83    82    2
   141    82    88   am
   142   118   117    1
   143   105   106    1
   144   105   102    1
   145   107   106   ar
   146    88    89    1
   147   136   137    1
   148   106   108   ar
   149    98    99    1
   150    98    97    1
   151   101   102    1
   152   101    99   am
   153   137   138    1
   154   116   114   am
   155   102   103    1
   156    99   100    2
   157    89    90    1
   158    89    92    1
   159   138   139    2
   160    91    90    2
   161    92    93    1
   162   114   115    2
   163   114   113    1
   164   103   104    2
   165    93    94    1
   166   113   110    1
   167    94    95    1
   168   109   110    1
   169   110   111    1
   170    95    96    1
   171   111   112    2
