@<TRIPOS>MOLECULE
tmp/4dehA00.pdb
 161 151 0 0 0
SMALL
GASTEIGER

@<TRIPOS>ATOM
      1  N         18.7670    2.5390   54.9160 N.3    32  ILE32      -0.1231
      2  CA        18.9420    3.0010   56.2970 C.3    32  ILE32       0.1692
      3  C         18.2990    4.3630   56.5380 C.2    32  ILE32       0.2592
      4  O         18.3070    4.8660   57.6600 O.2    32  ILE32      -0.2718
      5  CB        20.4280    3.0350   56.7280 C.3    32  ILE32       0.0266
      6  CG1       21.2520    3.9060   55.7740 C.3    32  ILE32       0.0019
      7  CG2       20.9690    1.6180   56.8280 C.3    32  ILE32       0.0020
      8  CD1       22.6430    4.2650   56.2780 C.3    32  ILE32       0.0001
      9  N         17.7520    4.9520   55.4760 N.am   33  GLY33      -0.1957
     10  CA        17.0760    6.2430   55.5520 C.3    33  GLY33       0.1869
     11  C         16.2020    6.5020   54.3400 C.2    33  GLY33       0.2309
     12  O         16.4900    6.0220   53.2430 O.2    33  GLY33      -0.2863
     13  N         18.7600    6.3210   51.3860 N.3    40  VAL40      -0.1245
     14  CA        20.1550    6.3320   51.7960 C.3    40  VAL40       0.1561
     15  C         20.5920    4.9410   52.2620 C.2    40  VAL40       0.2260
     16  O         19.7890    4.1750   52.8050 O.2    40  VAL40      -0.2867
     17  CB        20.4910    7.5170   52.7910 C.3    40  VAL40       0.0252
     18  CG1       19.2250    8.1970   53.3330 C.3    40  VAL40       0.0019
     19  CG2       21.4720    7.1140   53.9110 C.3    40  VAL40       0.0019
     20  N         27.2730    7.2950   55.0000 N.3    50  ALA50      -0.1245
     21  CA        25.8930    7.2100   54.5420 C.3    50  ALA50       0.1562
     22  C         25.8120    7.7740   53.1350 C.2    50  ALA50       0.2260
     23  O         26.2180    8.9090   52.8800 O.2    50  ALA50      -0.2867
     24  CB        24.9560    7.9700   55.4820 C.3    50  ALA50       0.0290
     25  N         23.4910    8.8390   50.0800 N.3    52  LYS52      -0.1245
     26  CA        22.1390    9.2000   49.7000 C.3    52  LYS52       0.1561
     27  C         21.9710    9.2750   48.1890 C.2    52  LYS52       0.2260
     28  O         22.6550   10.0420   47.5020 O.2    52  LYS52      -0.2867
     29  CB        21.6860   10.5050   50.3450 C.3    52  LYS52       0.0271
     30  CG        20.1720   10.6000   50.3860 C.3    52  LYS52       0.0035
     31  CD        19.6830   12.0120   50.3250 C.3    52  LYS52       0.0206
     32  CE        18.1650   12.0200   50.3320 C.3    52  LYS52       0.1093
     33  NZ        17.6760   13.3990   50.1990 N.3    52  LYS52      -0.1314
     34  N         27.0040   18.9020   59.8830 N.3    82  LEU82      -0.1245
     35  CA        27.2520   17.7000   59.0840 C.3    82  LEU82       0.1561
     36  C         28.0690   18.0620   57.8430 C.2    82  LEU82       0.2260
     37  O         27.7460   19.0140   57.1280 O.2    82  LEU82      -0.2867
     38  CB        25.9390   17.0100   58.6810 C.3    82  LEU82       0.0270
     39  CG        26.0670   15.6750   57.9350 C.3    82  LEU82       0.0019
     40  CD1       26.6260   14.6050   58.8710 C.3    82  LEU82       0.0001
     41  CD2       24.7390   15.2370   57.3480 C.3    82  LEU82       0.0001
     42  N         27.8730   11.1700   52.6380 N.3    97  LEU97      -0.1231
     43  CA        27.8770   11.8820   53.9160 C.3    97  LEU97       0.1678
     44  C         28.4080   10.9710   55.0260 C.2    97  LEU97       0.2434
     45  O         28.3440    9.7430   54.8960 O.2    97  LEU97      -0.2733
     46  CB        26.4570   12.3290   54.2770 C.3    97  LEU97       0.0284
     47  CG        25.6050   13.1150   53.2810 C.3    97  LEU97       0.0019
     48  CD1       24.1250   12.9360   53.6170 C.3    97  LEU97       0.0001
     49  CD2       25.9900   14.5980   53.2360 C.3    97  LEU97       0.0001
     50  N         28.9310   11.5650   56.1240 N.am   98  PRO98      -0.2718
     51  CA        29.3760   10.7360   57.2450 C.3    98  PRO98       0.1535
     52  C         28.2560    9.8850   57.8190 C.2    98  PRO98       0.2599
     53  O         27.0850   10.2870   57.7950 O.2    98  PRO98      -0.2715
     54  CB        29.8490   11.7510   58.2970 C.3    98  PRO98       0.0310
     55  CG        29.6020   13.0940   57.7430 C.3    98  PRO98       0.0237
     56  CD        29.3350   12.9740   56.2840 C.3    98  PRO98       0.0939
     57  N         28.6160    8.7070   58.3190 N.am   99  TYR99      -0.1960
     58  CA        27.6530    7.8590   58.9850 C.3    99  TYR99       0.1771
     59  C         27.4070    8.4060   60.3900 C.2    99  TYR99       0.2619
     60  O         28.3500    8.6340   61.1520 O.2    99  TYR99      -0.2715
     61  CB        28.1310    6.4070   59.0370 C.3    99  TYR99       0.0574
     62  CG        27.1310    5.4670   59.6660 C.ar   99  TYR99      -0.0198
     63  CD1       27.3100    4.9900   60.9690 C.ar   99  TYR99      -0.0009
     64  CD2       26.0000    5.0590   58.9690 C.ar   99  TYR99      -0.0009
     65  CE1       26.3840    4.1150   61.5540 C.ar   99  TYR99       0.0417
     66  CE2       25.0660    4.1950   59.5460 C.ar   99  TYR99       0.0417
     67  CZ        25.2650    3.7270   60.8330 C.ar   99  TYR99       0.1957
     68  OH        24.3440    2.8660   61.3940 O.3    99  TYR99      -0.2866
     69  N         26.1370    8.6340   60.7050 N.am  100  MET100     -0.1977
     70  CA        25.7340    9.1480   62.0120 C.3   100  MET100      0.1605
     71  C         25.1100    8.0220   62.8270 C.2   100  MET100      0.2287
     72  O         23.9170    7.7490   62.7210 O.2   100  MET100     -0.2864
     73  CB        24.7750   10.3310   61.8360 C.3   100  MET100      0.0413
     74  CG        25.4270   11.5250   61.1470 C.3   100  MET100      0.0598
     75  SD        26.5220   12.4050   62.2790 S.3   100  MET100     -0.1393
     76  CE        28.0580   12.4480   61.3690 C.3   100  MET100      0.0692
     77  N         21.6800    8.5060   64.7290 N.3   103  GLY103     -0.1210
     78  CA        20.5360    9.0110   63.9730 C.3   103  GLY103      0.1956
     79  C         20.1330   10.4460   64.2470 C.2   103  GLY103      0.2611
     80  O         20.9620   11.2830   64.5980 O.2   103  GLY103     -0.2717
     81  N         18.8450   10.7260   64.0830 N.am  104  ASP104     -0.1973
     82  CA        18.3360   12.0710   64.2380 C.3   104  ASP104      0.1709
     83  C         18.1020   12.4140   65.7110 C.2   104  ASP104      0.2293
     84  O         17.8210   11.5340   66.5350 O.2   104  ASP104     -0.2864
     85  CB        17.0720   12.2820   63.3960 C.3   104  ASP104      0.1436
     86  CG        15.8650   11.5700   63.9560 C.2   104  ASP104      0.3671
     87  OD1       15.8320   10.3200   63.9210 O.co2 104  ASP104     -0.2456
     88  OD2       14.9360   12.2640   64.4210 O.co2 104  ASP104     -0.2456
     89  N         14.4450   11.5310   67.3720 N.3   107  ASN107     -0.1240
     90  CA        14.3200   10.1240   67.7510 C.3   107  ASN107      0.1653
     91  C         15.2400    9.7360   68.8980 C.2   107  ASN107      0.2266
     92  O         14.8620    8.9370   69.7590 O.2   107  ASN107     -0.2867
     93  CB        14.5430    9.2100   66.5500 C.3   107  ASN107      0.1155
     94  CG        13.2950    9.0620   65.6920 C.2   107  ASN107      0.2627
     95  OD1       12.2410    8.6550   66.1810 O.2   107  ASN107     -0.2716
     96  ND2       13.4100    9.3880   64.4080 N.am  107  ASN107     -0.0877
     97  N         14.4310   16.8500   64.2690 N.3   148  ARG148     -0.1231
     98  CA        14.4500   15.8130   63.2300 C.3   148  ARG148      0.1694
     99  C         15.5720   16.0690   62.2150 C.2   148  ARG148      0.2592
    100  O         16.0510   15.1410   61.5670 O.2   148  ARG148     -0.2718
    101  CB        13.0910   15.7260   62.5050 C.3   148  ARG148      0.0321
    102  CG        12.7510   16.9780   61.6970 C.3   148  ARG148      0.0489
    103  CD        11.5020   16.8690   60.8350 C.3   148  ARG148      0.2205
    104  NE        11.2270   18.1680   60.2110 N.pl3 148  ARG148     -0.0865
    105  CZ        10.4810   19.1240   60.7600 C.cat 148  ARG148      0.5346
    106  NH1       10.3150   20.2870   60.1400 N.pl3 148  ARG148      0.1354
    107  NH2        9.9040   18.9230   61.9400 N.pl3 148  ARG148      0.1354
    108  N         15.9890   17.3270   62.0970 N.am  149  ASN149     -0.1974
    109  CA        16.9770   17.7190   61.1010 C.3   149  ASN149      0.1688
    110  C         18.4090   17.8930   61.6160 C.2   149  ASN149      0.2292
    111  O         19.2780   18.3930   60.9030 O.2   149  ASN149     -0.2864
    112  CB        16.4840   18.9300   60.3110 C.3   149  ASN149      0.1181
    113  CG        15.3760   18.5590   59.3400 C.2   149  ASN149      0.2629
    114  OD1       15.3120   17.4220   58.8680 O.2   149  ASN149     -0.2716
    115  ND2       14.5080   19.5070   59.0340 N.am  149  ASN149     -0.0877
    116  N         21.5730   15.5490   63.7050 N.3   151  MET151     -0.1245
    117  CA        21.9610   14.1580   63.9200 C.3   151  MET151      0.1570
    118  C         23.0760   14.0120   64.9660 C.2   151  MET151      0.2261
    119  O         23.7220   14.9930   65.3300 O.2   151  MET151     -0.2867
    120  CB        22.3630   13.4950   62.5920 C.3   151  MET151      0.0387
    121  CG        21.3020   13.6070   61.4890 C.3   151  MET151      0.0595
    122  SD        21.7340   12.6690   60.0080 S.3   151  MET151     -0.1393
    123  CE        21.2030   11.0330   60.5130 C.3   151  MET151      0.0692
    124  N         22.1660   19.0520   60.2820 N.3   161  ALA161     -0.1231
    125  CA        22.1670   18.3570   59.0020 C.3   161  ALA161      0.1694
    126  C         21.0960   18.9700   58.1060 C.2   161  ALA161      0.2592
    127  O         20.7710   20.1570   58.2440 O.2   161  ALA161     -0.2718
    128  CB        21.9260   16.8790   59.2160 C.3   161  ALA161      0.0304
    129  N         20.5640   18.1630   57.1880 N.am  162  ASP162     -0.1974
    130  CA        19.4460   18.5620   56.3240 C.3   162  ASP162      0.1709
    131  C         19.6540   19.8900   55.5960 C.2   162  ASP162      0.2293
    132  O         18.7810   20.7490   55.5860 O.2   162  ASP162     -0.2864
    133  CB        18.1260   18.5710   57.1130 C.3   162  ASP162      0.1436
    134  CG        16.9420   18.9640   56.2570 C.2   162  ASP162      0.3671
    135  OD1       16.8010   18.3930   55.1580 O.co2 162  ASP162     -0.2456
    136  OD2       16.1750   19.8650   56.6630 O.co2 162  ASP162     -0.2456
    137  N         22.2090   17.4560   51.1450 N.3   166  ALA166     -0.1245
    138  CA        21.5390   16.5360   52.0810 C.3   166  ALA166      0.1562
    139  C         20.0990   16.9690   52.3860 C.2   166  ALA166      0.2260
    140  O         19.3410   16.2320   53.0320 O.2   166  ALA166     -0.2867
    141  CB        22.3400   16.4070   53.3740 C.3   166  ALA166      0.0290
    142  N         12.5520   14.3850   55.4380 N.3   170  TYR170     -0.1227
    143  CA        12.8080   13.0480   55.9590 C.3   170  TYR170      0.1736
    144  C         11.6770   12.5330   56.8450 C.2   170  TYR170      0.2595
    145  O         11.6030   11.3360   57.1280 O.2   170  TYR170     -0.2718
    146  CB        14.1400   13.0240   56.7030 C.3   170  TYR170      0.0548
    147  CG        15.3450   13.2390   55.8100 C.ar  170  TYR170     -0.0200
    148  CD1       15.8790   12.1840   55.0680 C.ar  170  TYR170     -0.0009
    149  CD2       15.9540   14.4900   55.7120 C.ar  170  TYR170     -0.0009
    150  CE1       16.9860   12.3690   54.2500 C.ar  170  TYR170      0.0417
    151  CE2       17.0670   14.6850   54.8960 C.ar  170  TYR170      0.0417
    152  CZ        17.5730   13.6170   54.1690 C.ar  170  TYR170      0.1957
    153  OH        18.6690   13.7900   53.3620 O.3   170  TYR170     -0.2866
    154  N         10.8090   13.4440   57.2800 N.am  171  ASP171     -0.1974
    155  CA         9.5730   13.1010   57.9860 C.3   171  ASP171      0.1709
    156  C          8.4490   13.9630   57.4200 C.2   171  ASP171      0.2293
    157  O          8.2060   15.0750   57.8960 O.2   171  ASP171     -0.2864
    158  CB         9.7160   13.3150   59.5050 C.3   171  ASP171      0.1436
    159  CG         8.6030   12.6390   60.3130 C.2   171  ASP171      0.3671
    160  OD1        7.4510   12.5370   59.8240 O.co2 171  ASP171     -0.2456
    161  OD2        8.8810   12.2090   61.4550 O.co2 171  ASP171     -0.2456
@<TRIPOS>BOND
     1    28    27    2
     2    27    26    1
     3    26    25    1
     4    26    29    1
     5    33    32    1
     6    31    32    1
     7    31    30    1
     8    29    30    1
     9   137   138    1
    10    13    14    1
    11    14    15    1
    12    14    17    1
    13   138   139    1
    14   138   141    1
    15    15    16    2
    16   139   140    2
    17    42    43    1
    18    17    18    1
    19    17    19    1
    20    23    22    2
    21    22    21    1
    22    49    47    1
    23    12    11    2
    24    47    48    1
    25    47    46    1
    26   153   152    1
    27    43    46    1
    28    43    44    1
    29   152   150   ar
    30   152   151   ar
    31   150   148   ar
    32    11    10    1
    33    21    20    1
    34    21    24    1
    35    45    44    2
    36   151   149   ar
    37     1     2    1
    38    44    50   am
    39   148   147   ar
    40   135   134   ar
    41   142   143    1
    42     9    10    1
    43     9     3   am
    44   132   131    2
    45   131   130    1
    46   149   147   ar
    47     6     8    1
    48     6     5    1
    49   147   146    1
    50   143   146    1
    51   143   144    1
    52    50    56    1
    53    50    51    1
    54   134   136   ar
    55   134   133    1
    56    56    55    1
    57     2     3    1
    58     2     5    1
    59   130   133    1
    60   130   129    1
    61     3     4    2
    62     5     7    1
    63   144   145    2
    64   144   154   am
    65    37    36    2
    66   129   126   am
    67    51    52    1
    68    51    54    1
    69   154   155    1
    70    41    39    1
    71   156   157    2
    72   156   155    1
    73    55    54    1
    74    53    52    2
    75    52    57   am
    76    36    35    1
    77    39    38    1
    78    39    40    1
    79   155   158    1
    80   126   127    2
    81   126   125    1
    82    57    58    1
    83    38    35    1
    84   114   113    2
    85    64    66   ar
    86    64    62   ar
    87    58    61    1
    88    58    59    1
    89   125   128    1
    90   125   124    1
    91   115   113   am
    92    61    62    1
    93    35    34    1
    94   113   112    1
    95   158   159    1
    96    66    67   ar
    97    62    63   ar
    98   160   159   ar
    99   122   123    1
   100   122   121    1
   101   106   105    1
   102   104   105    2
   103   104   103    1
   104   112   109    1
   105   159   161   ar
   106    59    69   am
   107    59    60    2
   108    69    70    1
   109   105   107    1
   110    67    68    1
   111    67    65   ar
   112   103   102    1
   113   111   110    2
   114    63    65   ar
   115   109   110    1
   116   109   108    1
   117    74    73    1
   118    74    75    1
   119    76    75    1
   120   121   120    1
   121   100    99    2
   122   102   101    1
   123    73    70    1
   124    70    71    1
   125   108    99   am
   126    99    98    1
   127   101    98    1
   128   120   117    1
   129    72    71    2
   130    98    97    1
   131    85    86    1
   132    85    82    1
   133   116   117    1
   134   117   118    1
   135    87    86   ar
   136    86    88   ar
   137    78    79    1
   138    78    77    1
   139    81    82    1
   140    81    79   am
   141    82    83    1
   142    79    80    2
   143    96    94   am
   144   118   119    2
   145    94    95    2
   146    94    93    1
   147    83    84    2
   148    93    90    1
   149    89    90    1
   150    90    91    1
   151    91    92    2
