@<TRIPOS>MOLECULE
tmp/4deiA00.pdb
 191 181 0 0 0
SMALL
GASTEIGER

@<TRIPOS>ATOM
      1  N         23.0050   39.6680   55.3440 N.3    32  ILE32      -0.1231
      2  CA        22.8500   39.0000   56.6410 C.3    32  ILE32       0.1692
      3  C         23.5480   37.6400   56.7110 C.2    32  ILE32       0.2593
      4  O         23.5590   36.9920   57.7610 O.2    32  ILE32      -0.2718
      5  CB        21.3570   38.8450   57.0390 C.3    32  ILE32       0.0266
      6  CG1       20.5390   38.2540   55.8810 C.3    32  ILE32       0.0019
      7  CG2       20.7940   40.1850   57.4990 C.3    32  ILE32       0.0020
      8  CD1       19.1780   37.7020   56.2810 C.3    32  ILE32       0.0001
      9  N         24.1270   37.2090   55.5930 N.am   33  GLY33      -0.1942
     10  CA        24.8240   35.9300   55.5370 C.3    33  GLY33       0.2014
     11  C         25.8180   35.8430   54.3970 C.2    33  GLY33       0.2638
     12  O         25.5610   36.3360   53.2970 O.2    33  GLY33      -0.2714
     13  N         26.9570   35.2110   54.6670 N.am   34  ARG34      -0.1977
     14  CA        28.0060   35.0240   53.6650 C.3    34  ARG34       0.1597
     15  C         28.3460   33.5450   53.5200 C.2    34  ARG34       0.2287
     16  O         28.8500   32.9190   54.4550 O.2    34  ARG34      -0.2864
     17  CB        29.2660   35.8190   54.0280 C.3    34  ARG34       0.0334
     18  CG        29.0550   37.3190   54.1900 C.3    34  ARG34       0.0492
     19  CD        30.3770   38.0670   54.1220 C.3    34  ARG34       0.2205
     20  NE        30.2140   39.5050   54.3440 N.pl3  34  ARG34      -0.0865
     21  CZ        29.9080   40.3900   53.3980 C.cat  34  ARG34       0.5346
     22  NH1       29.7210   40.0000   52.1410 N.pl3  34  ARG34       0.1354
     23  NH2       29.7840   41.6740   53.7110 N.pl3  34  ARG34       0.1354
     24  N         23.2430   35.9320   51.4110 N.3    40  VAL40      -0.1245
     25  CA        21.8330   35.9030   51.7960 C.3    40  VAL40       0.1561
     26  C         21.4060   37.2830   52.2990 C.2    40  VAL40       0.2260
     27  O         22.1710   37.9650   52.9840 O.2    40  VAL40      -0.2867
     28  CB        21.4910   34.7170   52.7780 C.3    40  VAL40       0.0252
     29  CG1       22.7380   34.1660   53.4660 C.3    40  VAL40       0.0019
     30  CG2       20.3960   35.0860   53.7900 C.3    40  VAL40       0.0019
     31  N         17.9730   40.2060   53.4610 N.3    42  HIS42      -0.1241
     32  CA        16.6330   40.4280   54.0160 C.3    42  HIS42       0.1621
     33  C         15.5950   40.2780   52.9110 C.2    42  HIS42       0.2264
     34  O         15.8800   40.5600   51.7450 O.2    42  HIS42      -0.2867
     35  CB        16.5140   41.8310   54.6230 C.3    42  HIS42       0.0745
     36  CG        17.0340   41.9420   56.0260 C.ar   42  HIS42       0.0817
     37  ND1       16.2970   41.5570   57.1250 N.ar   42  HIS42      -0.2268
     38  CD2       18.2050   42.4200   56.5100 C.ar   42  HIS42       0.1154
     39  CE1       16.9960   41.7800   58.2240 C.ar   42  HIS42       0.1986
     40  NE2       18.1580   42.3040   57.8790 N.ar   42  HIS42      -0.2212
     41  N         14.5270   35.1950   54.7630 N.3    52  ALA52      -0.1245
     42  CA        15.9080   35.3050   54.3040 C.3    52  ALA52       0.1562
     43  C         16.0100   34.7560   52.8940 C.2    52  ALA52       0.2260
     44  O         15.5520   33.6440   52.6130 O.2    52  ALA52      -0.2867
     45  CB        16.8550   34.5640   55.2390 C.3    52  ALA52       0.0290
     46  N         18.4490   33.6550   49.8860 N.3    54  LYS54      -0.1245
     47  CA        19.8020   33.2290   49.5560 C.3    54  LYS54       0.1561
     48  C         20.0310   33.1720   48.0470 C.2    54  LYS54       0.2260
     49  O         19.2360   32.5870   47.3060 O.2    54  LYS54      -0.2867
     50  CB        20.1090   31.8640   50.1780 C.3    54  LYS54       0.0271
     51  CG        21.5430   31.4060   49.9540 C.3    54  LYS54       0.0035
     52  CD        21.7180   29.9190   50.2180 C.3    54  LYS54       0.0206
     53  CE        23.1120   29.4440   49.8120 C.3    54  LYS54       0.1093
     54  NZ        24.1910   30.2770   50.4130 N.3    54  LYS54      -0.1314
     55  N         14.8330   23.5940   59.7530 N.3    81  LEU81      -0.1245
     56  CA        14.6190   24.8290   59.0020 C.3    81  LEU81       0.1561
     57  C         13.8110   24.5400   57.7380 C.2    81  LEU81       0.2260
     58  O         14.1920   23.6890   56.9340 O.2    81  LEU81      -0.2867
     59  CB        15.9580   25.4890   58.6420 C.3    81  LEU81       0.0270
     60  CG        15.9060   26.8510   57.9430 C.3    81  LEU81       0.0019
     61  CD1       15.4930   27.9550   58.9060 C.3    81  LEU81       0.0001
     62  CD2       17.2400   27.1830   57.2950 C.3    81  LEU81       0.0001
     63  N         13.8730   31.3390   52.6950 N.3    98  LEU98      -0.1231
     64  CA        13.8610   30.6490   53.9820 C.3    98  LEU98       0.1678
     65  C         13.2470   31.5570   55.0390 C.2    98  LEU98       0.2434
     66  O         13.3230   32.7810   54.9110 O.2    98  LEU98      -0.2733
     67  CB        15.2890   30.2790   54.3870 C.3    98  LEU98       0.0284
     68  CG        16.0160   29.4600   53.3210 C.3    98  LEU98       0.0019
     69  CD1       17.2990   30.1450   52.8990 C.3    98  LEU98       0.0001
     70  CD2       16.2370   28.0290   53.7500 C.3    98  LEU98       0.0001
     71  N         12.6350   30.9680   56.0880 N.am   99  PRO99      -0.2718
     72  CA        12.1440   31.8130   57.1780 C.3    99  PRO99       0.1535
     73  C         13.2880   32.5810   57.8290 C.2    99  PRO99       0.2599
     74  O         14.4180   32.0820   57.8850 O.2    99  PRO99      -0.2715
     75  CB        11.5210   30.8180   58.1670 C.3    99  PRO99       0.0310
     76  CG        11.9170   29.4650   57.7080 C.3    99  PRO99       0.0237
     77  CD        12.2510   29.5560   56.2600 C.3    99  PRO99       0.0939
     78  N         12.9980   33.7950   58.2900 N.am  100  TYR100     -0.1960
     79  CA        14.0050   34.6330   58.9260 C.3   100  TYR100      0.1771
     80  C         14.2740   34.1420   60.3450 C.2   100  TYR100      0.2619
     81  O         13.3490   33.9800   61.1450 O.2   100  TYR100     -0.2715
     82  CB        13.5690   36.0990   58.9390 C.3   100  TYR100      0.0574
     83  CG        14.5940   37.0450   59.5210 C.ar  100  TYR100     -0.0198
     84  CD1       14.6290   37.3130   60.8900 C.ar  100  TYR100     -0.0009
     85  CD2       15.5270   37.6770   58.7060 C.ar  100  TYR100     -0.0009
     86  CE1       15.5710   38.1890   61.4300 C.ar  100  TYR100      0.0417
     87  CE2       16.4730   38.5520   59.2360 C.ar  100  TYR100      0.0417
     88  CZ        16.4890   38.8010   60.5970 C.ar  100  TYR100      0.1957
     89  OH        17.4200   39.6650   61.1240 O.3   100  TYR100     -0.2866
     90  N         15.5510   33.9140   60.6350 N.am  101  MET101     -0.1963
     91  CA        16.0040   33.4160   61.9310 C.3   101  MET101      0.1736
     92  C         16.6990   34.5250   62.7100 C.2   101  MET101      0.2616
     93  O         17.8860   34.7890   62.5070 O.2   101  MET101     -0.2715
     94  CB        16.9490   32.2330   61.7240 C.3   101  MET101      0.0427
     95  CG        16.2930   31.0600   61.0370 C.3   101  MET101      0.0599
     96  SD        15.2350   30.2060   62.2100 S.3   101  MET101     -0.1393
     97  CE        13.7000   30.1090   61.3110 C.3   101  MET101      0.0692
     98  N         15.9500   35.1480   63.6170 N.am  102  LYS102     -0.1977
     99  CA        16.3700   36.3760   64.3020 C.3   102  LYS102      0.1596
    100  C         17.7270   36.3120   65.0020 C.2   102  LYS102      0.2287
    101  O         18.4880   37.2810   64.9620 O.2   102  LYS102     -0.2864
    102  CB        15.2980   36.8270   65.3030 C.3   102  LYS102      0.0298
    103  CG        15.5020   38.2280   65.8510 C.3   102  LYS102      0.0038
    104  CD        14.6170   38.4740   67.0620 C.3   102  LYS102      0.0206
    105  CE        14.9970   39.7670   67.7630 C.3   102  LYS102      0.1093
    106  NZ        14.3520   39.8530   69.1020 N.3   102  LYS102     -0.1314
    107  N         20.4230   34.3040   64.5840 N.3   104  GLY104     -0.1210
    108  CA        21.5920   33.8090   63.8590 C.3   104  GLY104      0.1956
    109  C         21.8760   32.3350   64.0760 C.2   104  GLY104      0.2611
    110  O         20.9840   31.5670   64.4460 O.2   104  GLY104     -0.2717
    111  N         23.1230   31.9420   63.8350 N.am  105  ASP105     -0.1973
    112  CA        23.5180   30.5500   63.9830 C.3   105  ASP105      0.1709
    113  C         23.8010   30.2130   65.4470 C.2   105  ASP105      0.2293
    114  O         24.2480   31.0670   66.2160 O.2   105  ASP105     -0.2864
    115  CB        24.7220   30.2220   63.0940 C.3   105  ASP105      0.1436
    116  CG        25.9980   30.8930   63.5630 C.2   105  ASP105      0.3671
    117  OD1       26.1440   32.1150   63.3540 O.co2 105  ASP105     -0.2456
    118  OD2       26.8630   30.1890   64.1290 O.co2 105  ASP105     -0.2456
    119  N         27.4310   31.1010   67.1170 N.3   108  ASN108     -0.1240
    120  CA        27.6240   32.5010   67.4700 C.3   108  ASN108      0.1653
    121  C         26.7470   32.9370   68.6410 C.2   108  ASN108      0.2266
    122  O         27.1640   33.7630   69.4510 O.2   108  ASN108     -0.2867
    123  CB        27.4260   33.4030   66.2590 C.3   108  ASN108      0.1155
    124  CG        28.6730   33.5030   65.4090 C.2   108  ASN108      0.2627
    125  OD1       29.7710   33.7400   65.9240 O.2   108  ASN108     -0.2716
    126  ND2       28.5150   33.3170   64.1020 N.am  108  ASN108     -0.0877
    127  N         27.4400   25.8020   64.0400 N.3   149  ARG149     -0.1231
    128  CA        27.4250   26.8840   63.0480 C.3   149  ARG149      0.1694
    129  C         26.2790   26.7040   62.0560 C.2   149  ARG149      0.2592
    130  O         25.7910   27.6720   61.4790 O.2   149  ARG149     -0.2718
    131  CB        28.7620   26.9490   62.2930 C.3   149  ARG149      0.0321
    132  CG        29.0810   25.6850   61.5030 C.3   149  ARG149      0.0489
    133  CD        30.3590   25.7810   60.6770 C.3   149  ARG149      0.2205
    134  NE        30.6080   24.4900   60.0300 N.pl3 149  ARG149     -0.0865
    135  CZ        31.3290   23.5080   60.5660 C.cat 149  ARG149      0.5346
    136  NH1       31.4800   22.3670   59.9170 N.pl3 149  ARG149      0.1354
    137  NH2       31.9020   23.6700   61.7500 N.pl3 149  ARG149      0.1354
    138  N         25.8500   25.4560   61.8880 N.am  150  ASN150     -0.1974
    139  CA        24.8570   25.0810   60.8910 C.3   150  ASN150      0.1688
    140  C         23.4340   24.8920   61.4320 C.2   150  ASN150      0.2292
    141  O         22.5410   24.4550   60.7100 O.2   150  ASN150     -0.2864
    142  CB        25.3320   23.8330   60.1440 C.3   150  ASN150      0.1181
    143  CG        26.5460   24.1140   59.2660 C.2   150  ASN150      0.2629
    144  OD1       26.7310   25.2340   58.7840 O.2   150  ASN150     -0.2716
    145  ND2       27.3710   23.0990   59.0530 N.am  150  ASN150     -0.0877
    146  N         20.2720   27.1330   63.3700 N.3   152  MET152     -0.1245
    147  CA        19.8780   28.5250   63.6140 C.3   152  MET152      0.1570
    148  C         18.6940   28.7090   64.5750 C.2   152  MET152      0.2261
    149  O         17.9060   27.7880   64.7920 O.2   152  MET152     -0.2867
    150  CB        19.6790   29.2680   62.2900 C.3   152  MET152      0.0387
    151  CG        21.0100   29.4380   61.5580 C.3   152  MET152      0.0595
    152  SD        21.0610   30.6050   60.2240 S.3   152  MET152     -0.1393
    153  CE        20.5760   32.1490   60.9840 C.3   152  MET152      0.0692
    154  N         19.6930   23.4370   60.2070 N.3   162  ALA162     -0.1231
    155  CA        19.6750   24.1860   58.9600 C.3   162  ALA162      0.1694
    156  C         20.7450   23.6490   58.0210 C.2   162  ALA162      0.2592
    157  O         21.1720   22.4940   58.1490 O.2   162  ALA162     -0.2718
    158  CB        19.8940   25.6630   59.2480 C.3   162  ALA162      0.0304
    159  N         21.1670   24.4850   57.0730 N.am  163  ASP163     -0.1974
    160  CA        22.2840   24.1650   56.1860 C.3   163  ASP163      0.1709
    161  C         22.1380   22.7920   55.5260 C.2   163  ASP163      0.2293
    162  O         23.0250   21.9470   55.6210 O.2   163  ASP163     -0.2864
    163  CB        23.6180   24.2740   56.9440 C.3   163  ASP163      0.1436
    164  CG        24.8220   24.0030   56.0570 C.2   163  ASP163      0.3671
    165  OD1       24.9120   24.6000   54.9610 O.co2 163  ASP163     -0.2456
    166  OD2       25.6760   23.1850   56.4550 O.co2 163  ASP163     -0.2456
    167  N         19.7150   25.1790   50.9930 N.3   167  ALA167     -0.1245
    168  CA        20.3570   26.0870   51.9410 C.3   167  ALA167      0.1562
    169  C         21.7940   25.6640   52.2710 C.2   167  ALA167      0.2260
    170  O         22.5070   26.3770   52.9800 O.2   167  ALA167     -0.2867
    171  CB        19.5230   26.1870   53.2200 C.3   167  ALA167      0.0290
    172  N         29.4860   28.1580   55.4550 N.3   171  TYR171     -0.1227
    173  CA        29.2090   29.4600   56.0620 C.3   171  TYR171      0.1736
    174  C         30.3310   29.9600   56.9740 C.2   171  TYR171      0.2595
    175  O         30.3030   31.1050   57.4300 O.2   171  TYR171     -0.2718
    176  CB        27.8750   29.4270   56.8160 C.3   171  TYR171      0.0548
    177  CG        26.6600   29.2670   55.9290 C.ar  171  TYR171     -0.0200
    178  CD1       26.1280   30.3580   55.2370 C.ar  171  TYR171     -0.0009
    179  CD2       26.0330   28.0290   55.7910 C.ar  171  TYR171     -0.0009
    180  CE1       25.0060   30.2150   54.4180 C.ar  171  TYR171      0.0417
    181  CE2       24.9110   27.8800   54.9840 C.ar  171  TYR171      0.0417
    182  CZ        24.4050   28.9740   54.3010 C.ar  171  TYR171      0.1957
    183  OH        23.2970   28.8240   53.5030 O.3   171  TYR171     -0.2866
    184  N         31.3070   29.0930   57.2360 N.am  172  ASP172     -0.1974
    185  CA        32.5410   29.4650   57.9310 C.3   172  ASP172      0.1709
    186  C         33.6720   28.6240   57.3420 C.2   172  ASP172      0.2293
    187  O         33.9450   27.5190   57.8120 O.2   172  ASP172     -0.2864
    188  CB        32.4070   29.2390   59.4470 C.3   172  ASP172      0.1436
    189  CG        33.5350   29.8860   60.2540 C.2   172  ASP172      0.3671
    190  OD1       34.5810   30.2620   59.6790 O.co2 172  ASP172     -0.2456
    191  OD2       33.3700   30.0140   61.4840 O.co2 172  ASP172     -0.2456
@<TRIPOS>BOND
     1    49    48    2
     2    48    47    1
     3    47    46    1
     4    47    50    1
     5    53    52    1
     6    53    54    1
     7    51    50    1
     8    51    52    1
     9   167   168    1
    10    24    25    1
    11    34    33    2
    12    25    26    1
    13    25    28    1
    14   168   169    1
    15   168   171    1
    16    22    21    1
    17   169   170    2
    18    26    27    2
    19    44    43    2
    20    63    64    1
    21    28    29    1
    22    28    30    1
    23    43    42    1
    24    69    68    1
    25    33    32    1
    26    12    11    2
    27    68    70    1
    28    68    67    1
    29    21    23    1
    30    21    20    2
    31    31    32    1
    32   183   182    1
    33    15    14    1
    34    15    16    2
    35    14    17    1
    36    14    13    1
    37    64    67    1
    38    64    65    1
    39    32    35    1
    40    17    18    1
    41    19    18    1
    42    19    20    1
    43   182   180   ar
    44   182   181   ar
    45    42    41    1
    46    42    45    1
    47    11    13   am
    48    11    10    1
    49   180   178   ar
    50    35    36    1
    51    66    65    2
    52   165   164   ar
    53   181   179   ar
    54    65    71   am
    55   178   177   ar
    56     1     2    1
    57   172   173    1
    58   161   162    2
    59   161   160    1
    60    10     9    1
    61     9     3   am
    62   179   177   ar
    63     6     8    1
    64     6     5    1
    65   177   176    1
    66    36    38   ar
    67    36    37   ar
    68   164   166   ar
    69   164   163    1
    70   173   176    1
    71   173   174    1
    72    71    77    1
    73    71    72    1
    74   160   163    1
    75   160   159    1
    76    77    76    1
    77    38    40   ar
    78     2     3    1
    79     2     5    1
    80     3     4    2
    81    58    57    2
    82   174   184   am
    83   174   175    2
    84     5     7    1
    85   159   156   am
    86    37    39   ar
    87    72    73    1
    88    72    75    1
    89   184   185    1
    90    62    60    1
    91   186   187    2
    92   186   185    1
    93    76    75    1
    94    57    56    1
    95    73    74    2
    96    73    78   am
    97    40    39   ar
    98   185   188    1
    99    60    59    1
   100    60    61    1
   101   156   157    2
   102   156   155    1
   103    78    79    1
   104    59    56    1
   105    85    87   ar
   106    85    83   ar
   107   144   143    2
   108    79    82    1
   109    79    80    1
   110    82    83    1
   111   155   158    1
   112   155   154    1
   113    56    55    1
   114   145   143   am
   115    87    88   ar
   116   143   142    1
   117   188   189    1
   118    83    84   ar
   119   190   189   ar
   120   136   135    1
   121   134   135    2
   122   134   133    1
   123   142   139    1
   124   152   153    1
   125   152   151    1
   126   189   191   ar
   127    80    90   am
   128    80    81    2
   129   135   137    1
   130    88    89    1
   131    88    86   ar
   132    90    91    1
   133   133   132    1
   134   141   140    2
   135    84    86   ar
   136   139   140    1
   137   139   138    1
   138    95    94    1
   139    95    96    1
   140    97    96    1
   141   130   129    2
   142   132   131    1
   143   151   150    1
   144    94    91    1
   145   138   129   am
   146    91    92    1
   147   129   128    1
   148   150   147    1
   149   131   128    1
   150    93    92    2
   151    92    98   am
   152   128   127    1
   153   115   116    1
   154   115   112    1
   155   117   116   ar
   156   146   147    1
   157   116   118   ar
   158   147   148    1
   159    98    99    1
   160   111   112    1
   161   111   109   am
   162   108   109    1
   163   108   107    1
   164   112   113    1
   165   109   110    2
   166   126   124   am
   167    99   100    1
   168    99   102    1
   169   148   149    2
   170   101   100    2
   171   102   103    1
   172   124   125    2
   173   124   123    1
   174   113   114    2
   175   103   104    1
   176   123   120    1
   177   104   105    1
   178   119   120    1
   179   120   121    1
   180   105   106    1
   181   121   122    2
