@<TRIPOS>MOLECULE
tmp/4delA00.pdb
 103 100 0 0 0
SMALL
GASTEIGER

@<TRIPOS>ATOM
      1  N          3.5160   45.9060   24.3710 N.3    26  ASN26      -0.1240
      2  CA         4.4020   47.0640   24.5390 C.3    26  ASN26       0.1653
      3  C          3.6280   48.3370   24.2390 C.2    26  ASN26       0.2266
      4  O          2.9620   48.4250   23.2000 O.2    26  ASN26      -0.2867
      5  CB         5.6270   46.9920   23.6410 C.3    26  ASN26       0.1155
      6  CG         6.6260   45.9650   24.1210 C.2    26  ASN26       0.2627
      7  OD1        6.4480   44.7640   23.8870 O.2    26  ASN26      -0.2716
      8  ND2        7.6660   46.4280   24.8040 N.am   26  ASN26      -0.0877
      9  N         10.0930   45.7710   30.0800 N.3    94  ASP94      -0.1225
     10  CA        10.6840   44.8290   29.1310 C.3    94  ASP94       0.1805
     11  C         12.2270   44.9090   29.1570 C.2    94  ASP94       0.2597
     12  O         12.8000   45.6640   29.9580 O.2    94  ASP94      -0.2718
     13  CB        10.1410   45.1560   27.7280 C.3    94  ASP94       0.1424
     14  CG        10.1310   43.9600   26.7750 C.2    94  ASP94       0.3668
     15  OD1       10.4150   42.8080   27.1740 O.co2  94  ASP94      -0.2456
     16  OD2        9.8380   44.1660   25.5760 O.co2  94  ASP94      -0.2456
     17  N         12.8780   44.1140   28.2950 N.am   95  HIS95      -0.1975
     18  CA        14.3520   43.9220   28.2380 C.3    95  HIS95       0.1656
     19  C         15.2120   45.0030   28.8950 C.2    95  HIS95       0.2291
     20  O         15.3300   46.1180   28.3860 O.2    95  HIS95      -0.2864
     21  CB        14.8460   43.7540   26.7900 C.3    95  HIS95       0.0771
     22  CG        14.1790   42.6490   26.0340 C.ar   95  HIS95       0.0820
     23  ND1       14.6810   41.3670   25.9870 N.ar   95  HIS95      -0.2267
     24  CD2       13.0550   42.6420   25.2770 C.ar   95  HIS95       0.1154
     25  CE1       13.9000   40.6200   25.2260 C.ar   95  HIS95       0.1986
     26  NE2       12.8970   41.3690   24.7920 N.ar   95  HIS95      -0.2212
     27  N         16.0630   45.3620   18.3540 N.3   168  GLU168     -0.1245
     28  CA        15.2810   45.9230   19.4370 C.3   168  GLU168      0.1567
     29  C         15.9530   47.1400   19.9310 C.2   168  GLU168      0.2260
     30  O         16.9210   47.0920   20.6540 O.2   168  GLU168     -0.2867
     31  CB        14.9940   44.9440   20.5310 C.3   168  GLU168      0.0388
     32  CG        13.6490   44.3710   20.4200 C.3   168  GLU168      0.1160
     33  CD        12.6690   45.2900   19.7270 C.2   168  GLU168      0.3649
     34  OE1       12.2120   46.2340   20.3450 O.co2 168  GLU168     -0.2457
     35  OE2       12.3790   45.0980   18.5490 O.co2 168  GLU168     -0.2457
     36  N         12.4060   39.0770   17.3500 N.3   211  HIS211     -0.1226
     37  CA        11.6410   40.3210   17.4780 C.3   211  HIS211      0.1752
     38  C         11.3550   40.8370   16.0740 C.2   211  HIS211      0.2596
     39  O         12.2570   40.8660   15.2250 O.2   211  HIS211     -0.2718
     40  CB        12.4610   41.3600   18.2330 C.3   211  HIS211      0.0759
     41  CG        12.5320   41.1330   19.7130 C.ar  211  HIS211      0.0818
     42  ND1       13.7180   41.2070   20.4160 N.ar  211  HIS211     -0.2268
     43  CD2       11.5720   40.8370   20.6220 C.ar  211  HIS211      0.1154
     44  CE1       13.4780   40.9960   21.7010 C.ar  211  HIS211      0.1986
     45  NE2       12.1870   40.7630   21.8480 N.ar  211  HIS211     -0.2212
     46  N         10.1180   41.2600   15.8370 N.am  212  GLY212     -0.1957
     47  CA         9.7270   41.8350   14.5420 C.3   212  GLY212      0.1869
     48  C          8.7990   40.9320   13.7520 C.2   212  GLY212      0.2309
     49  O          8.3360   39.8930   14.2650 O.2   212  GLY212     -0.2863
     50  N          8.7200   35.4820   23.7150 N.3   251  HIS251     -0.1226
     51  CA         9.1360   36.7480   23.0790 C.3   251  HIS251      0.1752
     52  C          8.9890   36.6950   21.5620 C.2   251  HIS251      0.2597
     53  O          8.9010   35.6220   20.9590 O.2   251  HIS251     -0.2718
     54  CB        10.5770   37.1510   23.4520 C.3   251  HIS251      0.0759
     55  CG        10.7040   37.7260   24.8280 C.ar  251  HIS251      0.0818
     56  ND1       11.0270   39.0450   25.0720 N.ar  251  HIS251     -0.2268
     57  CD2       10.5410   37.1510   26.0460 C.ar  251  HIS251      0.1154
     58  CE1       11.0460   39.2610   26.3750 C.ar  251  HIS251      0.1986
     59  NE2       10.7590   38.1250   26.9880 N.ar  251  HIS251     -0.2212
     60  N          8.9590   37.8690   20.9360 N.am  252  GLY252     -0.1942
     61  CA         8.8170   37.9410   19.4900 C.3   252  GLY252      0.2014
     62  C          7.4990   37.3860   18.9940 C.2   252  GLY252      0.2639
     63  O          7.4370   36.8230   17.8990 O.2   252  GLY252     -0.2714
     64  N          6.4340   37.5690   19.7770 N.am  253  GLY253     -0.1939
     65  CA         5.1070   37.0280   19.4470 C.3   253  GLY253      0.2014
     66  C          4.5140   37.4400   18.1010 C.2   253  GLY253      0.2639
     67  O          3.8970   36.6340   17.4060 O.2   253  GLY253     -0.2714
     68  N          4.7380   38.6870   17.7060 N.am  254  SER254     -0.1949
     69  CA         4.1620   39.1840   16.4470 C.3   254  SER254      0.1924
     70  C          4.6180   38.3420   15.2710 C.2   254  SER254      0.2314
     71  O          5.7840   37.9670   15.2020 O.2   254  SER254     -0.2863
     72  CB         4.6060   40.6210   16.1960 C.3   254  SER254      0.2116
     73  OG         4.1520   41.4930   17.2240 O.3   254  SER254     -0.2180
     74  N          4.7230   38.1630   24.5070 N.3   273  ASN273     -0.1225
     75  CA         4.9940   39.5740   24.2500 C.3   273  ASN273      0.1785
     76  C          4.6030   39.9000   22.8150 C.2   273  ASN273      0.2597
     77  O          4.9590   39.1600   21.8860 O.2   273  ASN273     -0.2718
     78  CB         6.4890   39.8730   24.4440 C.3   273  ASN273      0.1169
     79  CG         6.9490   39.8180   25.9090 C.2   273  ASN273      0.2627
     80  OD1        8.0600   40.2810   26.2280 O.2   273  ASN273     -0.2716
     81  ND2        6.1270   39.2730   26.7830 N.am  273  ASN273     -0.0877
     82  N          3.8570   40.9850   22.6200 N.am  274  VAL274     -0.1966
     83  CA         3.5580   41.4580   21.2580 C.3   274  VAL274      0.1727
     84  C          3.7140   42.9670   21.1740 C.2   274  VAL274      0.2616
     85  O          3.1160   43.7140   21.9570 O.2   274  VAL274     -0.2715
     86  CB         2.1680   40.9930   20.7470 C.3   274  VAL274      0.0290
     87  CG1        1.0910   41.3010   21.7430 C.3   274  VAL274      0.0023
     88  CG2        1.8330   41.6080   19.3870 C.3   274  VAL274      0.0023
     89  N          4.5370   43.3920   20.2180 N.am  275  ASP275     -0.1957
     90  CA         4.8750   44.8110   20.0240 C.3   275  ASP275      0.1840
     91  C          4.7110   45.1620   18.5510 C.2   275  ASP275      0.2622
     92  O          3.8550   45.9850   18.2040 O.2   275  ASP275     -0.2715
     93  CB         6.3050   45.1130   20.5160 C.3   275  ASP275      0.1450
     94  CG         6.6010   46.6050   20.6310 C.2   275  ASP275      0.3671
     95  OD1        5.7240   47.4380   20.2710 O.co2 275  ASP275     -0.2456
     96  OD2        7.7130   46.9470   21.1210 O.co2 275  ASP275     -0.2456
     97  N          5.4870   44.5010   17.6860 N.am  276  THR276     -0.1951
     98  CA         5.5110   44.8630   16.2580 C.3   276  THR276      0.1897
     99  C          4.1170   44.8470   15.5930 C.2   276  THR276      0.2313
    100  O          3.7690   45.7770   14.8460 O.2   276  THR276     -0.2863
    101  CB         6.5060   43.9900   15.4760 C.3   276  THR276      0.1794
    102  OG1        7.7990   44.0800   16.0880 O.3   276  THR276     -0.2208
    103  CG2        6.6360   44.4910   14.0380 C.3   276  THR276      0.0378
@<TRIPOS>BOND
     1    48    49    2
     2    48    47    1
     3   103   101    1
     4    47    46    1
     5   100    99    2
     6    71    70    2
     7    39    38    2
     8    70    69    1
     9   101   102    1
    10   101    98    1
    11    99    98    1
    12    46    38   am
    13    38    37    1
    14    72    69    1
    15    72    73    1
    16    98    97    1
    17    69    68    1
    18    36    37    1
    19    67    66    2
    20    37    40    1
    21    97    91   am
    22    68    66   am
    23    63    62    2
    24    66    65    1
    25    92    91    2
    26    40    41    1
    27    27    28    1
    28    35    33   ar
    29    91    90    1
    30    62    61    1
    31    62    64   am
    32    88    86    1
    33    28    29    1
    34    28    31    1
    35    65    64    1
    36    61    60    1
    37    41    42   ar
    38    41    43   ar
    39    33    34   ar
    40    33    32    1
    41    29    30    2
    42    90    89    1
    43    90    93    1
    44    89    84   am
    45    95    94   ar
    46    42    44   ar
    47    32    31    1
    48    93    94    1
    49    43    45   ar
    50    94    96   ar
    51    86    83    1
    52    86    87    1
    53    60    52   am
    54    53    52    2
    55    84    83    1
    56    84    85    2
    57    83    82    1
    58    52    51    1
    59    44    45   ar
    60    77    76    2
    61    82    76   am
    62    76    75    1
    63    51    54    1
    64    51    50    1
    65     4     3    2
    66    54    55    1
    67     5     6    1
    68     5     2    1
    69     7     6    2
    70     6     8   am
    71     3     2    1
    72    75    78    1
    73    75    74    1
    74     1     2    1
    75    78    79    1
    76    26    25   ar
    77    26    24   ar
    78    55    56   ar
    79    55    57   ar
    80    56    58   ar
    81    25    23   ar
    82    24    22   ar
    83    16    14   ar
    84    79    80    2
    85    79    81   am
    86    23    22   ar
    87    22    21    1
    88    57    59   ar
    89    58    59   ar
    90    14    15   ar
    91    14    13    1
    92    21    18    1
    93    13    10    1
    94    18    17    1
    95    18    19    1
    96    17    11   am
    97    20    19    2
    98    10    11    1
    99    10     9    1
   100    11    12    2
