@<TRIPOS>MOLECULE
tmp/4delA01.pdb
 119 115 0 0 0
SMALL
GASTEIGER

@<TRIPOS>ATOM
      1  N         -1.1630   39.9480   44.5340 N.3     6  GLU6       -0.1245
      2  CA        -1.9210   38.7290   44.8150 C.3     6  GLU6        0.1567
      3  C         -2.8030   38.3150   43.6310 C.2     6  GLU6        0.2260
      4  O         -2.8610   37.1310   43.2780 O.2     6  GLU6       -0.2867
      5  CB        -2.7420   38.9090   46.0930 C.3     6  GLU6        0.0388
      6  CG        -1.8890   39.1080   47.3670 C.3     6  GLU6        0.1160
      7  CD        -1.4420   40.5490   47.6220 C.2     6  GLU6        0.3649
      8  OE1       -1.7190   41.4530   46.7930 O.co2   6  GLU6       -0.2457
      9  OE2       -0.8120   40.7800   48.6780 O.co2   6  GLU6       -0.2457
     10  N         -0.4690   37.0230   40.7540 N.3     9  ALA9       -0.1231
     11  CA        -0.0640   35.6350   41.0080 C.3     9  ALA9        0.1694
     12  C         -1.2180   34.6660   40.7130 C.2     9  ALA9        0.2591
     13  O         -1.0170   33.6140   40.0980 O.2     9  ALA9       -0.2718
     14  CB         0.4330   35.4740   42.4390 C.3     9  ALA9        0.0304
     15  N         -2.4330   35.0430   41.1110 N.am   10  GLU10      -0.1979
     16  CA        -3.6150   34.2530   40.7770 C.3    10  GLU10       0.1602
     17  C         -3.8290   34.1550   39.2560 C.2    10  GLU10       0.2287
     18  O         -4.0980   33.0650   38.7350 O.2    10  GLU10      -0.2864
     19  CB        -4.8450   34.8190   41.4770 C.3    10  GLU10       0.0415
     20  CG        -6.0690   33.9210   41.4430 C.3    10  GLU10       0.1163
     21  CD        -5.9350   32.6720   42.3170 C.2    10  GLU10       0.3649
     22  OE1       -6.5970   31.6640   41.9890 O.co2  10  GLU10      -0.2457
     23  OE2       -5.1830   32.7010   43.3240 O.co2  10  GLU10      -0.2457
     24  N         -1.2990   31.7260   37.8210 N.3    13  GLY13      -0.1210
     25  CA        -1.6420   30.3690   38.2780 C.3    13  GLY13       0.1956
     26  C         -2.7870   29.7540   37.4990 C.2    13  GLY13       0.2611
     27  O         -2.7460   28.5650   37.1310 O.2    13  GLY13      -0.2717
     28  N         -3.8040   30.5710   37.2320 N.am   14  GLN14      -0.1979
     29  CA        -4.9550   30.1710   36.4350 C.3    14  GLN14       0.1601
     30  C         -4.5570   29.8700   34.9870 C.2    14  GLN14       0.2287
     31  O         -4.9630   28.8640   34.4120 O.2    14  GLN14      -0.2864
     32  CB        -6.0100   31.2770   36.4580 C.3    14  GLN14       0.0394
     33  CG        -6.8370   31.3130   37.7330 C.3    14  GLN14       0.0908
     34  CD        -7.9920   30.3410   37.6570 C.2    14  GLN14       0.2608
     35  OE1       -7.7870   29.1370   37.6000 O.2    14  GLN14      -0.2717
     36  NE2       -9.2100   30.8650   37.6040 N.am   14  GLN14      -0.0878
     37  N         -1.5740   29.0290   33.9110 N.3    16  LYS16      -0.1231
     38  CA        -0.7320   27.8400   33.9210 C.3    16  LYS16       0.1693
     39  C         -1.5560   26.5480   34.0140 C.2    16  LYS16       0.2591
     40  O         -1.3330   25.5920   33.2610 O.2    16  LYS16      -0.2718
     41  CB         0.2400   27.9200   35.0910 C.3    16  LYS16       0.0285
     42  CG         1.2420   26.8000   35.1110 C.3    16  LYS16       0.0035
     43  CD         2.2820   26.9920   34.0290 C.3    16  LYS16       0.0206
     44  CE         3.4590   26.0640   34.2240 C.3    16  LYS16       0.1093
     45  NZ         4.2350   26.4030   35.4630 N.3    16  LYS16      -0.1314
     46  N         -2.5050   26.5500   34.9460 N.am   17  GLN17      -0.1979
     47  CA        -3.3720   25.4060   35.2430 C.3    17  GLN17       0.1601
     48  C         -4.2230   25.0160   34.0400 C.2    17  GLN17       0.2287
     49  O         -4.4930   23.8280   33.8100 O.2    17  GLN17      -0.2864
     50  CB        -4.2680   25.8230   36.4000 C.3    17  GLN17       0.0394
     51  CG        -5.0780   24.7780   37.0730 C.3    17  GLN17       0.0908
     52  CD        -5.4590   25.2550   38.4610 C.2    17  GLN17       0.2608
     53  OE1       -4.8720   24.8220   39.4480 O.2    17  GLN17      -0.2717
     54  NE2       -6.3990   26.1940   38.5380 N.am   17  GLN17      -0.0878
     55  N         12.2120   26.9760   42.3120 N.3   195  ALA195     -0.1231
     56  CA        11.0160   26.8010   41.4940 C.3   195  ALA195      0.1694
     57  C          9.8560   27.6410   42.0280 C.2   195  ALA195      0.2592
     58  O          8.6830   27.2590   41.9210 O.2   195  ALA195     -0.2718
     59  CB        10.6520   25.3290   41.4310 C.3   195  ALA195      0.0304
     60  N         10.2010   28.7770   42.6320 N.am  196  GLY196     -0.1957
     61  CA         9.2130   29.7070   43.1710 C.3   196  GLY196      0.1869
     62  C          9.3910   30.0090   44.6430 C.2   196  GLY196      0.2309
     63  O          8.9690   31.0600   45.1230 O.2   196  GLY196     -0.2863
     64  N          9.0490   34.4700   43.2430 N.3   200  LYS200     -0.1231
     65  CA         8.3350   34.1140   42.0310 C.3   200  LYS200      0.1693
     66  C          8.9980   34.7200   40.7990 C.2   200  LYS200      0.2592
     67  O          9.3440   35.9120   40.7910 O.2   200  LYS200     -0.2718
     68  CB         6.9120   34.6190   42.1520 C.3   200  LYS200      0.0285
     69  CG         5.9990   34.1470   41.0870 C.3   200  LYS200      0.0035
     70  CD         4.5530   34.3440   41.5160 C.3   200  LYS200      0.0206
     71  CE         3.5910   33.7180   40.5280 C.3   200  LYS200      0.1093
     72  NZ         3.8970   32.2730   40.3210 N.3   200  LYS200     -0.1314
     73  N          9.1920   33.9010   39.7700 N.am  201  TYR201     -0.1976
     74  CA         9.8230   34.3890   38.5460 C.3   201  TYR201      0.1639
     75  C          9.2280   33.7910   37.2850 C.2   201  TYR201      0.2290
     76  O          8.5880   32.7330   37.3090 O.2   201  TYR201     -0.2864
     77  CB        11.3420   34.1800   38.5910 C.3   201  TYR201      0.0560
     78  CG        11.7980   32.7470   38.4920 C.ar  201  TYR201     -0.0198
     79  CD1       12.0610   32.1610   37.2530 C.ar  201  TYR201     -0.0009
     80  CD2       11.9840   31.9790   39.6480 C.ar  201  TYR201     -0.0009
     81  CE1       12.4990   30.8380   37.1580 C.ar  201  TYR201      0.0417
     82  CE2       12.4270   30.6650   39.5670 C.ar  201  TYR201      0.0417
     83  CZ        12.6700   30.0990   38.3280 C.ar  201  TYR201      0.1957
     84  OH        13.1050   28.7910   38.2460 O.3   201  TYR201     -0.2866
     85  N          5.3490   20.8270   35.0800 N.3   244  LYS244     -0.1231
     86  CA         5.7620   22.0580   34.3990 C.3   244  LYS244      0.1678
     87  C          6.2460   23.0940   35.4200 C.2   244  LYS244      0.2434
     88  O          5.5100   24.0160   35.7670 O.2   244  LYS244     -0.2733
     89  CB         4.6010   22.6410   33.5860 C.3   244  LYS244      0.0284
     90  CG         4.0390   21.7340   32.5150 C.3   244  LYS244      0.0035
     91  CD         2.8530   22.4000   31.8300 C.3   244  LYS244      0.0206
     92  CE         1.9880   21.3780   31.1110 C.3   244  LYS244      0.1093
     93  NZ         2.7040   20.7290   29.9880 N.3   244  LYS244     -0.1314
     94  N          7.4840   22.9370   35.9220 N.am  245  PRO245     -0.2718
     95  CA         7.9710   23.8490   36.9650 C.3   245  PRO245      0.1535
     96  C          8.2080   25.2950   36.5200 C.2   245  PRO245      0.2599
     97  O          8.1930   26.1860   37.3640 O.2   245  PRO245     -0.2715
     98  CB         9.2980   23.2160   37.4050 C.3   245  PRO245      0.0310
     99  CG         9.2740   21.8210   36.8540 C.3   245  PRO245      0.0237
    100  CD         8.4920   21.9070   35.5970 C.3   245  PRO245      0.0939
    101  N          8.4430   25.5080   35.2230 N.am  246  PHE246     -0.1960
    102  CA         8.6740   26.8590   34.6760 C.3   246  PHE246      0.1771
    103  C          7.3970   27.5370   34.1950 C.2   246  PHE246      0.2619
    104  O          6.5310   26.8930   33.6020 O.2   246  PHE246     -0.2715
    105  CB         9.6260   26.8100   33.4850 C.3   246  PHE246      0.0574
    106  CG        11.0290   26.3970   33.8290 C.ar  246  PHE246     -0.0200
    107  CD1       11.7770   27.1140   34.7600 C.ar  246  PHE246     -0.0042
    108  CD2       11.6070   25.3130   33.1850 C.ar  246  PHE246     -0.0042
    109  CE1       13.0870   26.7420   35.0610 C.ar  246  PHE246     -0.0003
    110  CE2       12.9270   24.9360   33.4640 C.ar  246  PHE246     -0.0003
    111  CZ        13.6610   25.6450   34.4040 C.ar  246  PHE246     -0.0000
    112  N          7.3040   28.8430   34.4640 N.am  247  ASP247     -0.1971
    113  CA         6.3390   29.7240   33.7930 C.3   247  ASP247      0.1709
    114  C          7.0990   30.3980   32.6540 C.2   247  ASP247      0.2293
    115  O          7.9950   31.2100   32.9000 O.2   247  ASP247     -0.2864
    116  CB         5.8620   30.8120   34.7450 C.3   247  ASP247      0.1436
    117  CG         4.7300   30.3730   35.6540 C.2   247  ASP247      0.3671
    118  OD1        4.2570   31.2550   36.3950 O.co2 247  ASP247     -0.2456
    119  OD2        4.3010   29.1900   35.6380 O.co2 247  ASP247     -0.2456
@<TRIPOS>BOND
     1    93    92    1
     2    92    91    1
     3    91    90    1
     4    90    89    1
     5   114   115    2
     6   114   113    1
     7   108   110   ar
     8   108   106   ar
     9    40    39    2
    10   110   111   ar
    11   105   106    1
    12   105   102    1
    13    89    86    1
    14   104   103    2
    15   113   112    1
    16   113   116    1
    17    49    48    2
    18   106   107   ar
    19    37    38    1
    20    38    39    1
    21    38    41    1
    22    39    46   am
    23    43    44    1
    24    43    42    1
    25    48    47    1
    26   103   112   am
    27   103   102    1
    28    44    45    1
    29    86    85    1
    30    86    87    1
    31   111   109   ar
    32    31    30    2
    33   102   101    1
    34   116   117    1
    35   107   109   ar
    36    46    47    1
    37    30    29    1
    38    41    42    1
    39   101    96   am
    40    47    50    1
    41    87    88    2
    42    87    94   am
    43   100    94    1
    44   100    99    1
    45   119   117   ar
    46   117   118   ar
    47    94    95    1
    48    50    51    1
    49    29    32    1
    50    29    28    1
    51    32    33    1
    52    96    95    1
    53    96    97    2
    54    99    98    1
    55    95    98    1
    56    51    52    1
    57    27    26    2
    58    81    79   ar
    59    81    83   ar
    60    28    26   am
    61    79    78   ar
    62    75    76    2
    63    75    74    1
    64    26    25    1
    65    35    34    2
    66    36    34   am
    67    34    33    1
    68    24    25    1
    69    84    83    1
    70    83    82   ar
    71    52    54   am
    72    52    53    2
    73    78    77    1
    74    78    80   ar
    75    74    77    1
    76    74    73    1
    77    18    17    2
    78    17    16    1
    79    82    80   ar
    80    73    66   am
    81    13    12    2
    82    72    71    1
    83    71    70    1
    84    12    11    1
    85    12    15   am
    86    10    11    1
    87    16    15    1
    88    16    19    1
    89    67    66    2
    90    66    65    1
    91    11    14    1
    92    69    70    1
    93    69    68    1
    94    59    56    1
    95    20    19    1
    96    20    21    1
    97    56    57    1
    98    56    55    1
    99    58    57    2
   100    22    21   ar
   101    57    60   am
   102    65    68    1
   103    65    64    1
   104    21    23   ar
   105    60    61    1
   106    61    62    1
   107     4     3    2
   108     3     2    1
   109     1     2    1
   110    62    63    2
   111     2     5    1
   112     5     6    1
   113     8     7   ar
   114     6     7    1
   115     7     9   ar
