@<TRIPOS>MOLECULE
tmp/4devE01.pdb
 87 87 0 0 0
SMALL
GASTEIGER

@<TRIPOS>ATOM
      1  N         -6.2630  -76.7890   35.9190 N.3    17  LEU17      -0.1231
      2  CA        -6.7420  -75.4360   36.1470 C.3    17  LEU17       0.1693
      3  C         -7.5980  -74.9850   34.9790 C.2    17  LEU17       0.2593
      4  O         -7.1740  -75.0580   33.8250 O.2    17  LEU17      -0.2718
      5  CB        -5.5610  -74.4830   36.3640 C.3    17  LEU17       0.0284
      6  CG        -4.5960  -74.9080   37.4770 C.3    17  LEU17       0.0019
      7  CD1       -3.3690  -74.0100   37.5120 C.3    17  LEU17       0.0001
      8  CD2       -5.2960  -74.9250   38.8310 C.3    17  LEU17       0.0001
      9  N         -8.8130  -74.5490   35.2770 N.am   18  GLY18      -0.1942
     10  CA        -9.7230  -74.0770   34.2400 C.3    18  GLY18       0.2014
     11  C        -10.8100  -75.0440   33.8330 C.2    18  GLY18       0.2638
     12  O        -10.6920  -76.2500   34.0550 O.2    18  GLY18      -0.2714
     13  N        -11.8590  -74.5050   33.2140 N.am   19  ARG19      -0.1977
     14  CA       -12.9940  -75.2980   32.7560 C.3    19  ARG19       0.1597
     15  C        -12.5490  -76.3840   31.7820 C.2    19  ARG19       0.2287
     16  O        -11.7860  -76.1240   30.8420 O.2    19  ARG19      -0.2864
     17  CB       -14.0450  -74.4170   32.0800 C.3    19  ARG19       0.0334
     18  CG       -14.8910  -73.5690   33.0170 C.3    19  ARG19       0.0492
     19  CD       -16.0770  -73.0170   32.2490 C.3    19  ARG19       0.2205
     20  NE       -16.9260  -72.1340   33.0460 N.pl3  19  ARG19      -0.0865
     21  CZ       -18.0560  -71.5900   32.6010 C.cat  19  ARG19       0.5346
     22  NH1      -18.4840  -71.8470   31.3740 N.pl3  19  ARG19       0.1354
     23  NH2      -18.7720  -70.8010   33.3910 N.pl3  19  ARG19       0.1354
     24  N         -9.1330  -71.5520   28.3680 N.3    31  PHE31      -0.1227
     25  CA        -9.1540  -70.1930   28.9190 C.3    31  PHE31       0.1736
     26  C         -7.7900  -69.6960   29.3950 C.2    31  PHE31       0.2595
     27  O         -6.9210  -70.4870   29.7600 O.2    31  PHE31      -0.2718
     28  CB       -10.1260  -70.1190   30.0940 C.3    31  PHE31       0.0547
     29  CG       -11.5800  -70.2170   29.7130 C.ar   31  PHE31      -0.0202
     30  CD1      -12.2840  -69.0900   29.3020 C.ar   31  PHE31      -0.0042
     31  CD2      -12.2560  -71.4390   29.7960 C.ar   31  PHE31      -0.0042
     32  CE1      -13.6300  -69.1790   28.9730 C.ar   31  PHE31      -0.0003
     33  CE2      -13.5980  -71.5310   29.4730 C.ar   31  PHE31      -0.0003
     34  CZ       -14.2860  -70.4030   29.0590 C.ar   31  PHE31      -0.0000
     35  N         -7.6280  -68.3710   29.4060 N.am   32  ASN32      -0.1960
     36  CA        -6.5230  -67.7220   30.1110 C.3    32  ASN32       0.1819
     37  C         -6.4720  -68.2220   31.5610 C.2    32  ASN32       0.2622
     38  O         -7.5160  -68.3910   32.1940 O.2    32  ASN32      -0.2715
     39  CB        -6.6740  -66.1820   30.0700 C.3    32  ASN32       0.1195
     40  CG        -8.1070  -65.7080   30.3370 C.2    32  ASN32       0.2630
     41  OD1       -9.0720  -66.2290   29.7690 O.2    32  ASN32      -0.2716
     42  ND2       -8.2460  -64.6960   31.1890 N.am   32  ASN32      -0.0877
     43  N         -5.2660  -68.4750   32.0680 N.am   33  GLY33      -0.1940
     44  CA        -5.0790  -68.9670   33.4360 C.3    33  GLY33       0.2014
     45  C         -5.3410  -70.4570   33.5760 C.2    33  GLY33       0.2639
     46  O         -5.0960  -71.0420   34.6310 O.2    33  GLY33      -0.2714
     47  N         -5.8580  -71.0630   32.5080 N.am   34  GLY34      -0.1954
     48  CA        -6.0750  -72.5090   32.4600 C.3    34  GLY34       0.1869
     49  C         -4.7610  -73.2120   32.1880 C.2    34  GLY34       0.2309
     50  O         -3.8760  -72.6520   31.5480 O.2    34  GLY34      -0.2863
     51  N         -9.0250  -71.4440   40.7550 N.3   178  TYR178     -0.1227
     52  CA        -9.6980  -70.3450   40.0740 C.3   178  TYR178      0.1736
     53  C        -10.0950  -70.7080   38.6470 C.2   178  TYR178      0.2595
     54  O         -9.4130  -71.4940   37.9860 O.2   178  TYR178     -0.2718
     55  CB        -8.7990  -69.0940   40.0610 C.3   178  TYR178      0.0548
     56  CG        -7.5550  -69.2970   39.2340 C.ar  178  TYR178     -0.0200
     57  CD1       -7.5330  -68.9460   37.8830 C.ar  178  TYR178     -0.0009
     58  CD2       -6.4070  -69.8740   39.7870 C.ar  178  TYR178     -0.0009
     59  CE1       -6.4030  -69.1530   37.1080 C.ar  178  TYR178      0.0417
     60  CE2       -5.2710  -70.0850   39.0170 C.ar  178  TYR178      0.0417
     61  CZ        -5.2810  -69.7210   37.6750 C.ar  178  TYR178      0.1957
     62  OH        -4.1670  -69.9280   36.8940 O.3   178  TYR178     -0.2866
     63  N        -11.1820  -70.1070   38.1760 N.am  179  HIS179     -0.1961
     64  CA       -11.5660  -70.1670   36.7670 C.3   179  HIS179      0.1787
     65  C        -11.6940  -68.7650   36.2450 C.2   179  HIS179      0.2620
     66  O        -12.3510  -67.9400   36.8730 O.2   179  HIS179     -0.2715
     67  CB       -12.8960  -70.9020   36.5900 C.3   179  HIS179      0.0785
     68  CG       -12.7870  -72.4130   36.6850 C.ar  179  HIS179      0.0821
     69  ND1      -13.7870  -73.2340   36.3030 N.ar  179  HIS179     -0.2267
     70  CD2      -11.7490  -73.2340   37.1200 C.ar  179  HIS179      0.1154
     71  CE1      -13.4140  -74.5150   36.4970 C.ar  179  HIS179      0.1986
     72  NE2      -12.1680  -74.5140   37.0010 N.ar  179  HIS179     -0.2212
     73  N        -11.0650  -68.4890   35.1010 N.am  180  LEU180     -0.1963
     74  CA       -11.1890  -67.2010   34.4180 C.3   180  LEU180      0.1728
     75  C        -12.0410  -67.3430   33.1670 C.2   180  LEU180      0.2616
     76  O        -11.7890  -68.2170   32.3270 O.2   180  LEU180     -0.2715
     77  CB        -9.8090  -66.6730   34.0280 C.3   180  LEU180      0.0311
     78  CG        -8.9590  -65.8350   34.9840 C.3   180  LEU180      0.0022
     79  CD1       -9.2170  -66.1100   36.4600 C.3   180  LEU180      0.0001
     80  CD2       -7.4820  -65.9740   34.6390 C.3   180  LEU180      0.0001
     81  N        -13.0510  -66.4870   33.0490 N.am  181  VAL181     -0.1977
     82  CA       -13.9110  -66.4450   31.8710 C.3   181  VAL181      0.1596
     83  C        -13.9980  -64.9910   31.4310 C.2   181  VAL181      0.2287
     84  O        -14.7300  -64.1950   32.0230 O.2   181  VAL181     -0.2864
     85  CB       -15.3310  -66.9760   32.1590 C.3   181  VAL181      0.0276
     86  CG1      -16.1550  -67.0040   30.8780 C.3   181  VAL181      0.0022
     87  CG2      -15.2870  -68.3570   32.8000 C.3   181  VAL181      0.0022
@<TRIPOS>BOND
     1    24    25    1
     2    25    26    1
     3    25    28    1
     4    32    34   ar
     5    32    30   ar
     6    34    33   ar
     7    30    29   ar
     8    26    35   am
     9    26    27    2
    10    35    36    1
    11    33    31   ar
    12    29    31   ar
    13    29    28    1
    14    41    40    2
    15    39    36    1
    16    39    40    1
    17    36    37    1
    18    40    42   am
    19    16    15    2
    20    86    85    1
    21    22    21    1
    22    83    82    1
    23    83    84    2
    24    50    49    2
    25    37    43   am
    26    37    38    2
    27    15    14    1
    28    82    85    1
    29    82    81    1
    30    43    44    1
    31    17    14    1
    32    17    18    1
    33    85    87    1
    34    49    48    1
    35    19    18    1
    36    19    20    1
    37    76    75    2
    38    48    47    1
    39    47    45   am
    40    21    20    2
    41    21    23    1
    42    14    13    1
    43    81    75   am
    44    75    74    1
    45    13    11   am
    46    44    45    1
    47    45    46    2
    48     4     3    2
    49    11    12    2
    50    11    10    1
    51    77    74    1
    52    77    78    1
    53    10     9    1
    54    74    73    1
    55    80    78    1
    56     3     9   am
    57     3     2    1
    58    78    79    1
    59    73    65   am
    60     1     2    1
    61     2     5    1
    62    65    64    1
    63    65    66    2
    64    69    71   ar
    65    69    68   ar
    66     5     6    1
    67    71    72   ar
    68    67    68    1
    69    67    64    1
    70    68    70   ar
    71    64    63    1
    72    62    61    1
    73    72    70   ar
    74    59    61   ar
    75    59    57   ar
    76     6     7    1
    77     6     8    1
    78    61    60   ar
    79    57    56   ar
    80    54    53    2
    81    63    53   am
    82    53    52    1
    83    60    58   ar
    84    56    58   ar
    85    56    55    1
    86    55    52    1
    87    52    51    1
