@<TRIPOS>MOLECULE
tmp/4devG00.pdb
 91 88 0 0 0
SMALL
GASTEIGER

@<TRIPOS>ATOM
      1  N         -6.6540    1.3150  -43.2190 N.3    12  SER12      -0.1217
      2  CA        -7.3040    1.0890  -41.9290 C.3    12  SER12       0.1889
      3  C         -6.5590    0.1060  -41.0240 C.2    12  SER12       0.2288
      4  O         -6.6530    0.2040  -39.8080 O.2    12  SER12      -0.2866
      5  CB        -8.7630    0.6610  -42.1130 C.3    12  SER12       0.2089
      6  OG        -8.8510   -0.5690  -42.8090 O.3    12  SER12      -0.2183
      7  N         -3.7400    2.1490  -38.9230 N.3    15  ILE15      -0.1231
      8  CA        -4.1260    3.2390  -38.0200 C.3    15  ILE15       0.1692
      9  C         -5.3310    2.8560  -37.1590 C.2    15  ILE15       0.2592
     10  O         -6.2880    2.2470  -37.6390 O.2    15  ILE15      -0.2718
     11  CB        -4.3630    4.5850  -38.7710 C.3    15  ILE15       0.0266
     12  CG1       -4.5610    5.7450  -37.7800 C.3    15  ILE15       0.0019
     13  CG2       -5.5250    4.4890  -39.7530 C.3    15  ILE15       0.0020
     14  CD1       -4.2860    7.1170  -38.3650 C.3    15  ILE15       0.0001
     15  N         -5.2540    3.1920  -35.8750 N.am   16  ASN16      -0.1960
     16  CA        -6.3770    3.0550  -34.9710 C.3    16  ASN16       0.1819
     17  C         -6.8890    4.4570  -34.6530 C.2    16  ASN16       0.2621
     18  O         -6.1720    5.2730  -34.0790 O.2    16  ASN16      -0.2715
     19  CB        -5.9580    2.3290  -33.6800 C.3    16  ASN16       0.1195
     20  CG        -5.8830    0.8130  -33.8370 C.2    16  ASN16       0.2630
     21  OD1       -4.9700    0.1770  -33.3040 O.2    16  ASN16      -0.2716
     22  ND2       -6.8460    0.2250  -34.5480 N.am   16  ASN16      -0.0877
     23  N         -8.1180    4.7480  -35.0590 N.am   17  ILE17      -0.1963
     24  CA        -8.7430    6.0020  -34.6860 C.3    17  ILE17       0.1727
     25  C         -9.4940    5.7710  -33.3810 C.2    17  ILE17       0.2616
     26  O        -10.3800    4.9180  -33.3010 O.2    17  ILE17      -0.2715
     27  CB        -9.6710    6.5450  -35.7930 C.3    17  ILE17       0.0290
     28  CG1       -8.8470    6.8510  -37.0530 C.3    17  ILE17       0.0022
     29  CG2      -10.3910    7.7980  -35.3140 C.3    17  ILE17       0.0023
     30  CD1       -9.6800    7.1270  -38.2910 C.3    17  ILE17       0.0001
     31  N         -9.1120    6.5190  -32.3520 N.am   18  LEU18      -0.1977
     32  CA        -9.7240    6.3770  -31.0460 C.3    18  LEU18       0.1596
     33  C        -10.8180    7.4160  -30.8680 C.2    18  LEU18       0.2287
     34  O        -10.5760    8.6110  -31.0170 O.2    18  LEU18      -0.2864
     35  CB        -8.6650    6.4850  -29.9400 C.3    18  LEU18       0.0297
     36  CG        -7.4780    5.5110  -30.0410 C.3    18  LEU18       0.0022
     37  CD1       -6.4790    5.7550  -28.9230 C.3    18  LEU18       0.0001
     38  CD2       -7.9490    4.0620  -30.0260 C.3    18  LEU18       0.0001
     39  N         -7.9000   -4.2040  -31.7460 N.3   130  TYR130     -0.1241
     40  CA        -8.6570   -4.2500  -30.4980 C.3   130  TYR130      0.1605
     41  C        -10.0460   -4.7810  -30.7700 C.2   130  TYR130      0.2264
     42  O        -10.9320   -4.0210  -31.1630 O.2   130  TYR130     -0.2867
     43  CB        -8.7530   -2.8650  -29.8490 C.3   130  TYR130      0.0534
     44  CG        -7.4180   -2.2160  -29.5990 C.ar  130  TYR130     -0.0201
     45  CD1       -7.0160   -1.1020  -30.3350 C.ar  130  TYR130     -0.0009
     46  CD2       -6.5480   -2.7220  -28.6370 C.ar  130  TYR130     -0.0009
     47  CE1       -5.7860   -0.5090  -30.1130 C.ar  130  TYR130      0.0417
     48  CE2       -5.3190   -2.1330  -28.4100 C.ar  130  TYR130      0.0417
     49  CZ        -4.9450   -1.0300  -29.1520 C.ar  130  TYR130      0.1957
     50  OH        -3.7220   -0.4570  -28.9230 O.3   130  TYR130     -0.2866
     51  N        -13.9310   -3.7140  -26.8410 N.3   133  LYS133     -0.1245
     52  CA       -14.3960   -2.3390  -26.9810 C.3   133  LYS133      0.1561
     53  C        -15.2340   -1.9460  -25.7720 C.2   133  LYS133      0.2260
     54  O        -16.1360   -2.6870  -25.3510 O.2   133  LYS133     -0.2867
     55  CB       -15.2330   -2.1610  -28.2570 C.3   133  LYS133      0.0271
     56  CG       -14.4990   -2.3660  -29.5800 C.3   133  LYS133      0.0035
     57  CD       -15.4640   -2.2080  -30.7530 C.3   133  LYS133      0.0206
     58  CE       -15.2380   -3.2470  -31.8410 C.3   133  LYS133      0.1093
     59  NZ       -13.8600   -3.2170  -32.4010 N.3   133  LYS133     -0.1314
     60  N        -10.1170   -1.0730  -27.0120 N.3   178  ASP178     -0.1239
     61  CA       -10.5160    0.1820  -27.6380 C.3   178  ASP178      0.1674
     62  C        -11.5860    0.8150  -26.7410 C.2   178  ASP178      0.2266
     63  O        -12.3230    0.1050  -26.0570 O.2   178  ASP178     -0.2867
     64  CB       -11.0750   -0.0990  -29.0350 C.3   178  ASP178      0.1410
     65  CG       -11.1780    1.1470  -29.9050 C.2   178  ASP178      0.3668
     66  OD1      -10.8990    2.2800  -29.4370 O.co2 178  ASP178     -0.2456
     67  OD2      -11.5530    0.9830  -31.0840 O.co2 178  ASP178     -0.2456
     68  N        -14.3110    4.4650  -26.0740 N.3   180  HIS180     -0.1241
     69  CA       -14.9490    5.7480  -26.3730 C.3   180  HIS180      0.1621
     70  C        -15.3520    6.3930  -25.0740 C.2   180  HIS180      0.2264
     71  O        -15.9610    5.7450  -24.2140 O.2   180  HIS180     -0.2867
     72  CB       -16.1980    5.5430  -27.2360 C.3   180  HIS180      0.0745
     73  CG       -15.9070    5.1880  -28.6800 C.ar  180  HIS180      0.0817
     74  ND1      -16.8690    5.1560  -29.6200 N.ar  180  HIS180     -0.2268
     75  CD2      -14.7180    4.8620  -29.3300 C.ar  180  HIS180      0.1154
     76  CE1      -16.3300    4.8190  -30.8080 C.ar  180  HIS180      0.1986
     77  NE2      -15.0150    4.6410  -30.6300 N.ar  180  HIS180     -0.2212
     78  N        -19.4270    0.6670  -34.5220 N.3   231  TRP231     -0.1241
     79  CA       -18.5840    0.4600  -33.3460 C.3   231  TRP231      0.1605
     80  C        -19.4470   -0.0170  -32.2190 C.2   231  TRP231      0.2264
     81  O        -20.1430    0.7720  -31.5770 O.2   231  TRP231     -0.2867
     82  CB       -17.8440    1.7500  -32.9890 C.3   231  TRP231      0.0550
     83  CG       -16.6550    1.5660  -32.0720 C.ar  231  TRP231      0.0003
     84  CD1      -15.3260    1.3620  -32.4340 C.ar  231  TRP231      0.0946
     85  CD2      -16.6500    1.5830  -30.6010 C.ar  231  TRP231      0.0152
     86  NE1      -14.5250    1.2520  -31.3210 N.ar  231  TRP231     -0.2442
     87  CE2      -15.2570    1.3780  -30.1920 C.ar  231  TRP231      0.0810
     88  CE3      -17.6250    1.7500  -29.6190 C.ar  231  TRP231      0.0012
     89  CZ2      -14.8810    1.3410  -28.8530 C.ar  231  TRP231      0.0191
     90  CZ3      -17.2330    1.7060  -28.2730 C.ar  231  TRP231      0.0001
     91  CH2      -15.8940    1.5090  -27.9040 C.ar  231  TRP231      0.0015
@<TRIPOS>BOND
     1     1     2    1
     2     6     5    1
     3     5     2    1
     4     2     3    1
     5     3     4    2
     6    13    11    1
     7     7     8    1
     8    11     8    1
     9    11    12    1
    10    14    12    1
    11    30    28    1
    12     8     9    1
    13    10     9    2
    14     9    15   am
    15    28    27    1
    16    15    16    1
    17    27    29    1
    18    27    24    1
    19    23    24    1
    20    23    17   am
    21    16    17    1
    22    16    19    1
    23    24    25    1
    24    17    18    2
    25    22    20   am
    26    78    79    1
    27    20    19    1
    28    20    21    2
    29    25    26    2
    30    25    31   am
    31    79    82    1
    32    79    80    1
    33    82    83    1
    34    84    83   ar
    35    84    86   ar
    36    59    58    1
    37    31    32    1
    38    80    81    2
    39    83    85   ar
    40    58    57    1
    41    39    40    1
    42    86    87   ar
    43    42    41    2
    44    67    65   ar
    45    32    33    1
    46    32    35    1
    47    34    33    2
    48    76    77   ar
    49    76    74   ar
    50    41    40    1
    51    57    56    1
    52    77    75   ar
    53    85    87   ar
    54    85    88   ar
    55    40    43    1
    56    45    47   ar
    57    45    44   ar
    58    87    89   ar
    59    47    49   ar
    60    36    38    1
    61    36    35    1
    62    36    37    1
    63    65    66   ar
    64    65    64    1
    65    43    44    1
    66    74    73   ar
    67    88    90   ar
    68    44    46   ar
    69    56    55    1
    70    75    73   ar
    71    49    50    1
    72    49    48   ar
    73    64    61    1
    74    89    91   ar
    75    73    72    1
    76    46    48   ar
    77    90    91   ar
    78    55    52    1
    79    61    60    1
    80    61    62    1
    81    72    69    1
    82    52    51    1
    83    52    53    1
    84    62    63    2
    85    69    68    1
    86    69    70    1
    87    53    54    2
    88    70    71    2
