@<TRIPOS>MOLECULE
tmp/4devH00.pdb
 85 81 0 0 0
SMALL
GASTEIGER

@<TRIPOS>ATOM
      1  N         27.7170  -63.2030   42.7000 N.3   140  SER140     -0.1217
      2  CA        26.3970  -63.7220   42.3190 C.3   140  SER140      0.1889
      3  C         25.3010  -62.6560   42.3600 C.2   140  SER140      0.2288
      4  O         24.2840  -62.7880   41.6800 O.2   140  SER140     -0.2866
      5  CB        26.0020  -64.9230   43.1770 C.3   140  SER140      0.2089
      6  OG        25.5390  -64.5040   44.4520 O.3   140  SER140     -0.2183
      7  N         21.8000  -63.9340   40.8570 N.3   145  GLU145     -0.1245
      8  CA        21.4730  -65.2640   41.3540 C.3   145  GLU145      0.1567
      9  C         20.4870  -65.1100   42.5020 C.2   145  GLU145      0.2260
     10  O         20.7740  -64.4210   43.4740 O.2   145  GLU145     -0.2867
     11  CB        22.7400  -65.9930   41.8100 C.3   145  GLU145      0.0388
     12  CG        22.5250  -67.4650   42.1220 C.3   145  GLU145      0.1160
     13  CD        23.5650  -68.3640   41.4790 C.2   145  GLU145      0.3649
     14  OE1       23.2230  -69.5240   41.1720 O.co2 145  GLU145     -0.2457
     15  OE2       24.7200  -67.9250   41.2760 O.co2 145  GLU145     -0.2457
     16  N         21.7260  -74.8970   42.2360 N.3   156  TRP156     -0.1241
     17  CA        22.5860  -73.9160   41.5600 C.3   156  TRP156      0.1605
     18  C         22.4950  -74.0600   40.0740 C.2   156  TRP156      0.2264
     19  O         23.3880  -74.6170   39.4350 O.2   156  TRP156     -0.2867
     20  CB        24.0340  -74.0470   42.0290 C.3   156  TRP156      0.0550
     21  CG        24.1540  -73.8650   43.5140 C.ar  156  TRP156      0.0003
     22  CD1       24.3410  -74.8500   44.4800 C.ar  156  TRP156      0.0946
     23  CD2       24.0470  -72.6070   44.2630 C.ar  156  TRP156      0.0152
     24  NE1       24.3750  -74.3020   45.7370 N.ar  156  TRP156     -0.2442
     25  CE2       24.2030  -72.9600   45.6800 C.ar  156  TRP156      0.0810
     26  CE3       23.8550  -71.2730   43.9160 C.ar  156  TRP156      0.0012
     27  CZ2       24.1660  -72.0030   46.6850 C.ar  156  TRP156      0.0191
     28  CZ3       23.8220  -70.3170   44.9380 C.ar  156  TRP156      0.0001
     29  CH2       23.9680  -70.6750   46.2880 C.ar  156  TRP156      0.0015
     30  N         29.4250  -65.8410   40.3560 N.3   185  GLY185     -0.1210
     31  CA        28.8830  -66.2830   41.6320 C.3   185  GLY185      0.1956
     32  C         29.8990  -67.0390   42.4580 C.2   185  GLY185      0.2612
     33  O         30.6260  -67.8820   41.9320 O.2   185  GLY185     -0.2717
     34  N         29.9560  -66.7210   43.7490 N.am  186  GLY186     -0.1956
     35  CA        30.8730  -67.3830   44.6750 C.3   186  GLY186      0.1869
     36  C         32.2700  -66.7840   44.7370 C.2   186  GLY186      0.2309
     37  O         33.0220  -67.0760   45.6600 O.2   186  GLY186     -0.2863
     38  N         34.0700  -68.0090   48.2260 N.3   193  TRP193     -0.1241
     39  CA        33.4250  -68.2630   49.5230 C.3   193  TRP193      0.1605
     40  C         33.9430  -69.5120   50.1930 C.2   193  TRP193      0.2264
     41  O         33.8850  -69.6390   51.4160 O.2   193  TRP193     -0.2867
     42  CB        31.9140  -68.3790   49.3390 C.3   193  TRP193      0.0550
     43  CG        31.5130  -69.6420   48.6110 C.ar  193  TRP193      0.0003
     44  CD1       31.5440  -69.8800   47.2410 C.ar  193  TRP193      0.0946
     45  CD2       31.0410  -70.8990   49.2020 C.ar  193  TRP193      0.0152
     46  NE1       31.1210  -71.1530   46.9510 N.ar  193  TRP193     -0.2442
     47  CE2       30.8050  -71.8180   48.0790 C.ar  193  TRP193      0.0810
     48  CE3       30.7890  -71.3390   50.4970 C.ar  193  TRP193      0.0012
     49  CZ2       30.3390  -73.1140   48.2720 C.ar  193  TRP193      0.0191
     50  CZ3       30.3170  -72.6480   50.6770 C.ar  193  TRP193      0.0001
     51  CH2       30.0990  -73.5120   49.5910 C.ar  193  TRP193      0.0015
     52  N         31.8050  -62.7170   49.3090 N.3   243  ASN243     -0.1240
     53  CA        32.4200  -64.0420   49.3440 C.3   243  ASN243      0.1653
     54  C         33.7290  -64.0980   50.1200 C.2   243  ASN243      0.2266
     55  O         34.0440  -65.1130   50.7380 O.2   243  ASN243     -0.2867
     56  CB        32.5870  -64.5800   47.9270 C.3   243  ASN243      0.1155
     57  CG        31.2540  -64.8580   47.2680 C.2   243  ASN243      0.2627
     58  OD1       30.3660  -65.4580   47.8790 O.2   243  ASN243     -0.2716
     59  ND2       31.0980  -64.4190   46.0290 N.am  243  ASN243     -0.0877
     60  N         32.7490  -64.4210   53.7860 N.3   246  THR246     -0.1218
     61  CA        32.2050  -65.7680   53.9780 C.3   246  THR246      0.1862
     62  C         33.3070  -66.8130   54.1990 C.2   246  THR246      0.2287
     63  O         33.1630  -67.7030   55.0450 O.2   246  THR246     -0.2866
     64  CB        31.3160  -66.1760   52.7820 C.3   246  THR246      0.1770
     65  OG1       30.2100  -65.2690   52.6840 O.3   246  THR246     -0.2211
     66  CG2       30.7840  -67.6010   52.9320 C.3   246  THR246      0.0375
     67  N         34.3630  -70.7000   56.5280 N.3   250  GLN250     -0.1245
     68  CA        34.2600  -71.9200   55.7270 C.3   250  GLN250      0.1566
     69  C         35.4880  -72.8170   55.8780 C.2   250  GLN250      0.2260
     70  O         36.5800  -72.3200   56.1510 O.2   250  GLN250     -0.2867
     71  CB        34.0460  -71.5720   54.2490 C.3   250  GLN250      0.0367
     72  CG        32.6610  -71.0250   53.9310 C.3   250  GLN250      0.0905
     73  CD        31.5530  -72.0400   54.1360 C.2   250  GLN250      0.2608
     74  OE1       30.5250  -71.7320   54.7340 O.2   250  GLN250     -0.2717
     75  NE2       31.7540  -73.2530   53.6380 N.am  250  GLN250     -0.0878
     76  N         17.8650  -68.9740   47.0010 N.3   347  HIS347     -0.1241
     77  CA        19.2680  -69.1410   47.4240 C.3   347  HIS347      0.1621
     78  C         19.6750  -68.2430   48.5620 C.2   347  HIS347      0.2264
     79  O         20.8610  -67.9790   48.7360 O.2   347  HIS347     -0.2867
     80  CB        20.2370  -68.8920   46.2600 C.3   347  HIS347      0.0745
     81  CG        20.2550  -69.9820   45.2190 C.ar  347  HIS347      0.0817
     82  ND1       19.9260  -69.7550   43.9330 N.ar  347  HIS347     -0.2268
     83  CD2       20.5990  -71.3290   45.3050 C.ar  347  HIS347      0.1154
     84  CE1       20.0420  -70.8960   43.2310 C.ar  347  HIS347      0.1986
     85  NE2       20.4530  -71.8600   44.0700 N.ar  347  HIS347     -0.2212
@<TRIPOS>BOND
     1    19    18    2
     2    18    17    1
     3    30    31    1
     4     7     8    1
     5    14    13   ar
     6    15    13   ar
     7     8    11    1
     8     8     9    1
     9    13    12    1
    10    17    20    1
    11    17    16    1
    12    31    32    1
    13     4     3    2
    14    11    12    1
    15    33    32    2
    16    20    21    1
    17     2     3    1
    18     2     1    1
    19     2     5    1
    20    32    34   am
    21     9    10    2
    22     5     6    1
    23    84    82   ar
    24    84    85   ar
    25    21    23   ar
    26    21    22   ar
    27    34    35    1
    28    26    23   ar
    29    26    28   ar
    30    82    81   ar
    31    85    83   ar
    32    23    25   ar
    33    22    24   ar
    34    35    36    1
    35    36    37    2
    36    28    29   ar
    37    81    83   ar
    38    81    80    1
    39    25    24   ar
    40    25    27   ar
    41    59    57   am
    42    80    77    1
    43    29    27   ar
    44    46    44   ar
    45    46    47   ar
    46    76    77    1
    47    44    43   ar
    48    57    58    2
    49    57    56    1
    50    77    78    1
    51    56    53    1
    52    47    49   ar
    53    47    45   ar
    54    38    39    1
    55    49    51   ar
    56    78    79    2
    57    43    45   ar
    58    43    42    1
    59    45    48   ar
    60    52    53    1
    61    42    39    1
    62    53    54    1
    63    39    40    1
    64    51    50   ar
    65    54    55    2
    66    40    41    2
    67    48    50   ar
    68    65    64    1
    69    64    66    1
    70    64    61    1
    71    75    73   am
    72    60    61    1
    73    72    73    1
    74    72    71    1
    75    61    62    1
    76    73    74    2
    77    62    63    2
    78    71    68    1
    79    68    69    1
    80    68    67    1
    81    69    70    2
