@<TRIPOS>MOLECULE
tmp/4df1B00.pdb
 184 176 0 0 0
SMALL
GASTEIGER

@<TRIPOS>ATOM
      1  N         23.9020   -8.2840    7.8860 N.3     7  ALA7       -0.1245
      2  CA        22.8340   -8.1780    8.8790 C.3     7  ALA7        0.1562
      3  C         21.8330   -9.3110    8.6920 C.2     7  ALA7        0.2260
      4  O         21.0890   -9.3300    7.7100 O.2     7  ALA7       -0.2867
      5  CB        22.1190   -6.8180    8.7520 C.3     7  ALA7        0.0290
      6  N         18.9160  -10.1100    9.4920 N.3     9  ASP9       -0.1239
      7  CA        17.5830   -9.6970    9.9280 C.3     9  ASP9        0.1674
      8  C         16.5690  -10.6560    9.3120 C.2     9  ASP9        0.2266
      9  O         15.8410  -10.2990    8.3800 O.2     9  ASP9       -0.2867
     10  CB        17.2990   -8.2660    9.4680 C.3     9  ASP9        0.1410
     11  CG        18.2090   -7.2410   10.1400 C.2     9  ASP9        0.3668
     12  OD1       18.5030   -7.3900   11.3480 O.co2   9  ASP9       -0.2456
     13  OD2       18.6150   -6.2760    9.4560 O.co2   9  ASP9       -0.2456
     14  N         25.7040   -9.5290   11.7510 N.3    30  LYS30      -0.1245
     15  CA        25.0000   -8.7630   12.7730 C.3    30  LYS30       0.1561
     16  C         23.7130   -9.5030   13.1070 C.2    30  LYS30       0.2260
     17  O         22.9000   -9.8120   12.2240 O.2    30  LYS30      -0.2867
     18  CB        24.7240   -7.3320   12.2960 C.3    30  LYS30       0.0271
     19  CG        24.1990   -6.3960   13.3880 C.3    30  LYS30       0.0035
     20  CD        24.1040   -4.9510   12.9020 C.3    30  LYS30       0.0206
     21  CE        22.8890   -4.7030   12.0110 C.3    30  LYS30       0.1093
     22  NZ        21.5800   -4.8610   12.7560 N.3    30  LYS30      -0.1314
     23  N         17.0790   -8.3370   16.5090 N.3    33  TRP33      -0.1241
     24  CA        15.7360   -8.5860   17.0060 C.3    33  TRP33       0.1605
     25  C         15.1260   -9.8760   16.4620 C.2    33  TRP33       0.2264
     26  O         14.6000  -10.7000   17.2140 O.2    33  TRP33      -0.2867
     27  CB        14.8220   -7.4240   16.5740 C.3    33  TRP33       0.0550
     28  CG        15.3660   -6.0070   16.7890 C.ar   33  TRP33       0.0003
     29  CD1       16.1650   -5.2710   15.9380 C.ar   33  TRP33       0.0946
     30  CD2       15.1030   -5.1630   17.9130 C.ar   33  TRP33       0.0152
     31  NE1       16.4200   -4.0200   16.4850 N.ar   33  TRP33      -0.2442
     32  CE2       15.7780   -3.9320   17.6920 C.ar   33  TRP33       0.0810
     33  CE3       14.3610   -5.3240   19.0840 C.ar   33  TRP33       0.0012
     34  CZ2       15.7270   -2.8780   18.6030 C.ar   33  TRP33       0.0191
     35  CZ3       14.3180   -4.2750   19.9920 C.ar   33  TRP33       0.0001
     36  CH2       14.9980   -3.0690   19.7430 C.ar   33  TRP33       0.0015
     37  N         23.2160   -6.6700   17.7290 N.3    56  ASP56      -0.1239
     38  CA        22.6350   -5.3400   17.6010 C.3    56  ASP56       0.1674
     39  C         21.1960   -5.3470   18.0660 C.2    56  ASP56       0.2266
     40  O         20.2920   -5.6800   17.3150 O.2    56  ASP56      -0.2867
     41  CB        22.7110   -4.8530   16.1510 C.3    56  ASP56       0.1410
     42  CG        22.1170   -3.4530   15.9610 C.2    56  ASP56       0.3668
     43  OD1       21.8360   -2.7720   16.9720 O.co2  56  ASP56      -0.2456
     44  OD2       21.9380   -3.0390   14.7950 O.co2  56  ASP56      -0.2456
     45  N         20.3980   -2.4670   19.6790 N.3    58  LYS58      -0.1245
     46  CA        20.3060   -1.0160   19.8660 C.3    58  LYS58       0.1561
     47  C         20.1890   -0.6920   21.3500 C.2    58  LYS58       0.2260
     48  O         19.3000    0.0600   21.7750 O.2    58  LYS58      -0.2867
     49  CB        19.1050   -0.4470   19.1050 C.3    58  LYS58       0.0271
     50  CG        19.1770   -0.6420   17.5760 C.3    58  LYS58       0.0035
     51  CD        20.2970    0.1890   16.9470 C.3    58  LYS58       0.0206
     52  CE        20.1330    0.2860   15.4370 C.3    58  LYS58       0.1093
     53  NZ        20.0660   -1.0750   14.8050 N.3    58  LYS58      -0.1314
     54  N         26.2120   -3.2640   19.7180 N.3    82  ILE82      -0.1245
     55  CA        25.8920   -1.8920   19.3740 C.3    82  ILE82       0.1561
     56  C         24.9830   -1.2960   20.4400 C.2    82  ILE82       0.2260
     57  O         23.9970   -1.9250   20.8620 O.2    82  ILE82      -0.2867
     58  CB        25.2280   -1.7970   17.9930 C.3    82  ILE82       0.0252
     59  CG1       26.2460   -2.2090   16.9180 C.3    82  ILE82       0.0019
     60  CG2       24.7030   -0.3550   17.7380 C.3    82  ILE82       0.0019
     61  CD1       25.6550   -2.3340   15.5460 C.3    82  ILE82       0.0001
     62  N         26.4010    3.9400   18.3710 N.3   100  LEU100     -0.1245
     63  CA        25.6340    4.5660   17.2880 C.3   100  LEU100      0.1561
     64  C         25.4390    6.0470   17.6070 C.2   100  LEU100      0.2260
     65  O         24.8720    6.3750   18.6560 O.2   100  LEU100     -0.2867
     66  CB        24.2650    3.8680   17.1980 C.3   100  LEU100      0.0270
     67  CG        23.2240    4.3090   16.1640 C.3   100  LEU100      0.0019
     68  CD1       23.8230    4.3570   14.7810 C.3   100  LEU100      0.0001
     69  CD2       22.0210    3.3440   16.1970 C.3   100  LEU100      0.0001
     70  N         24.5840    8.5040   14.8740 N.3   102  LYS102     -0.1231
     71  CA        23.6790    9.1160   13.8990 C.3   102  LYS102      0.1693
     72  C         23.0780    7.9750   13.0970 C.2   102  LYS102      0.2592
     73  O         23.7290    6.9590   12.8780 O.2   102  LYS102     -0.2718
     74  CB        24.4270   10.1050   12.9870 C.3   102  LYS102      0.0285
     75  CG        23.5100   11.0890   12.2130 C.3   102  LYS102      0.0035
     76  CD        24.3240   11.9300   11.2140 C.3   102  LYS102      0.0206
     77  CE        23.5440   13.1330   10.6670 C.3   102  LYS102      0.1093
     78  NZ        22.3170   12.7500    9.8770 N.3   102  LYS102     -0.1314
     79  N         21.8240    8.1200   12.6840 N.am  103  MET103     -0.1965
     80  CA        21.1390    7.0100   12.0410 C.3   103  MET103      0.1736
     81  C         20.8360    7.2890   10.5670 C.2   103  MET103      0.2617
     82  O         20.9140    8.4280   10.1050 O.2   103  MET103     -0.2715
     83  CB        19.8640    6.6510   12.8130 C.3   103  MET103      0.0427
     84  CG        20.1450    6.2530   14.2740 C.3   103  MET103      0.0599
     85  SD        18.6870    5.7730   15.2200 S.3   103  MET103     -0.1393
     86  CE        18.3600    4.1430   14.5590 C.3   103  MET103      0.0692
     87  N         20.5040    6.2310    9.8360 N.am  104  THR104     -0.1951
     88  CA        20.2060    6.3400    8.4140 C.3   104  THR104      0.1897
     89  C         18.8290    6.9640    8.1860 C.2   104  THR104      0.2313
     90  O         18.4610    7.2640    7.0520 O.2   104  THR104     -0.2863
     91  CB        20.2560    4.9560    7.7550 C.3   104  THR104      0.1794
     92  OG1       19.4580    4.0400    8.5180 O.3   104  THR104     -0.2208
     93  CG2       21.7050    4.4420    7.7050 C.3   104  THR104      0.0378
     94  N         28.9670    3.6950   14.9820 N.3   127  VAL127     -0.1245
     95  CA        28.1090    3.3920   13.8430 C.3   127  VAL127      0.1561
     96  C         27.6420    4.7250   13.2570 C.2   127  VAL127      0.2260
     97  O         27.0970    5.5770   13.9760 O.2   127  VAL127     -0.2867
     98  CB        26.8980    2.5240   14.2530 C.3   127  VAL127      0.0252
     99  CG1       26.1530    2.0160   13.0190 C.3   127  VAL127      0.0019
    100  CG2       27.3480    1.3550   15.1430 C.3   127  VAL127      0.0019
    101  N         25.8770    6.5710    9.4930 N.3   129  PRO129     -0.2116
    102  CA        25.0050    6.2040    8.3650 C.3   129  PRO129      0.1372
    103  C         25.7180    6.2000    7.0140 C.2   129  PRO129      0.2244
    104  O         26.1940    7.2320    6.5290 O.2   129  PRO129     -0.2868
    105  CB        23.9050    7.2790    8.4010 C.3   129  PRO129      0.0268
    106  CG        24.5660    8.4610    9.0740 C.3   129  PRO129      0.0207
    107  CD        25.4970    7.8560   10.0990 C.3   129  PRO129      0.0892
    108  N         25.6940    1.2070    8.1460 N.3   152  PRO152     -0.2102
    109  CA        24.5520    0.5750    7.4760 C.3   152  PRO152      0.1504
    110  C         23.8860    1.5590    6.5080 C.2   152  PRO152      0.2576
    111  O         24.3010    2.7240    6.4220 O.2   152  PRO152     -0.2718
    112  CB        23.5930    0.3040    8.6360 C.3   152  PRO152      0.0282
    113  CG        23.8020    1.5370    9.5370 C.3   152  PRO152      0.0208
    114  CD        25.3160    1.8300    9.4320 C.3   152  PRO152      0.0893
    115  N         22.8480    1.1020    5.8140 N.am  153  GLY153     -0.1943
    116  CA        22.0980    1.9640    4.9090 C.3   153  GLY153      0.2014
    117  C         22.4650    1.7900    3.4440 C.2   153  GLY153      0.2638
    118  O         22.2730    2.7070    2.6360 O.2   153  GLY153     -0.2714
    119  N         22.9900    0.6170    3.1050 N.am  154  ILE154     -0.1977
    120  CA        23.4080    0.3060    1.7450 C.3   154  ILE154      0.1596
    121  C         22.2670   -0.4340    1.0390 C.2   154  ILE154      0.2287
    122  O         21.7410   -1.4200    1.5610 O.2   154  ILE154     -0.2864
    123  CB        24.6750   -0.5890    1.7380 C.3   154  ILE154      0.0276
    124  CG1       25.8160    0.0570    2.5350 C.3   154  ILE154      0.0022
    125  CG2       25.0860   -0.9620    0.3050 C.3   154  ILE154      0.0022
    126  CD1       26.1120    1.5010    2.1700 C.3   154  ILE154      0.0001
    127  N         18.4610   -0.5560   -0.2020 N.3   156  PRO156     -0.2102
    128  CA        17.1150    0.0180   -0.0820 C.3   156  PRO156      0.1504
    129  C         17.1030    1.3780    0.6160 C.2   156  PRO156      0.2575
    130  O         16.2590    2.2200    0.2870 O.2   156  PRO156     -0.2718
    131  CB        16.3710   -1.0160    0.7640 C.3   156  PRO156      0.0282
    132  CG        17.0720   -2.3010    0.4770 C.3   156  PRO156      0.0208
    133  CD        18.5220   -1.9440    0.2890 C.3   156  PRO156      0.0893
    134  N         18.0180    1.6070    1.5570 N.am  157  GLN157     -0.1980
    135  CA        18.0130    2.8850    2.2690 C.3   157  GLN157      0.1601
    136  C         18.7710    4.0020    1.5480 C.2   157  GLN157      0.2287
    137  O         18.8350    5.1290    2.0470 O.2   157  GLN157     -0.2864
    138  CB        18.5300    2.7350    3.6980 C.3   157  GLN157      0.0394
    139  CG        17.6450    1.8710    4.5920 C.3   157  GLN157      0.0908
    140  CD        18.1010    1.9320    6.0230 C.2   157  GLN157      0.2608
    141  OE1       17.9790    2.9680    6.6760 O.2   157  GLN157     -0.2717
    142  NE2       18.6480    0.8270    6.5200 N.am  157  GLN157     -0.0878
    143  N         27.5190   -2.4030    6.7920 N.3   173  ILE173     -0.1231
    144  CA        26.5540   -3.3490    7.3300 C.3   173  ILE173      0.1692
    145  C         25.4200   -3.4370    6.3200 C.2   173  ILE173      0.2592
    146  O         24.8220   -2.4200    5.9670 O.2   173  ILE173     -0.2718
    147  CB        25.9680   -2.8500    8.6630 C.3   173  ILE173      0.0266
    148  CG1       27.0820   -2.7380    9.7170 C.3   173  ILE173      0.0019
    149  CG2       24.8470   -3.7790    9.1340 C.3   173  ILE173      0.0020
    150  CD1       26.6810   -1.9170   10.9450 C.3   173  ILE173      0.0001
    151  N         25.1390   -4.6440    5.8480 N.am  174  VAL174     -0.1966
    152  CA        24.1940   -4.8300    4.7570 C.3   174  VAL174      0.1727
    153  C         23.2410   -5.9740    5.0510 C.2   174  VAL174      0.2617
    154  O         23.6710   -7.0840    5.3160 O.2   174  VAL174     -0.2715
    155  CB        24.9220   -5.0900    3.4300 C.3   174  VAL174      0.0290
    156  CG1       23.9200   -5.0470    2.2860 C.3   174  VAL174      0.0023
    157  CG2       26.0230   -4.0390    3.2210 C.3   174  VAL174      0.0023
    158  N         21.9440   -5.6810    5.0190 N.am  175  GLY175     -0.1940
    159  CA        20.9160   -6.6660    5.3050 C.3   175  GLY175      0.2014
    160  C         20.2170   -7.1740    4.0540 C.2   175  GLY175      0.2639
    161  O         20.7240   -8.0720    3.3650 O.2   175  GLY175     -0.2714
    162  N         19.0610   -6.5810    3.7590 N.am  176  ARG176     -0.1963
    163  CA        18.1870   -7.0410    2.6800 C.3   176  ARG176      0.1729
    164  C         18.8780   -7.2590    1.3360 C.2   176  ARG176      0.2616
    165  O         18.5800   -8.2240    0.6290 O.2   176  ARG176     -0.2715
    166  CB        17.0130   -6.0720    2.5010 C.3   176  ARG176      0.0348
    167  CG        15.9870   -6.1100    3.6420 C.3   176  ARG176      0.0492
    168  CD        15.0530   -4.9120    3.5660 C.3   176  ARG176      0.2205
    169  NE        15.7360   -3.6910    4.0000 N.pl3 176  ARG176     -0.0865
    170  CZ        15.1920   -2.4810    3.9680 C.cat 176  ARG176      0.5346
    171  NH1       13.9490   -2.3330    3.5170 N.pl3 176  ARG176      0.1354
    172  NH2       15.8760   -1.4280    4.4090 N.pl3 176  ARG176      0.1354
    173  N         19.7750   -6.3490    0.9710 N.am  177  TYR177     -0.1974
    174  CA        20.4570   -6.4110   -0.3220 C.3   177  TYR177      0.1639
    175  C         21.2100   -7.7250   -0.4850 C.2   177  TYR177      0.2290
    176  O         21.1520   -8.3650   -1.5380 O.2   177  TYR177     -0.2864
    177  CB        21.4210   -5.2370   -0.4490 C.3   177  TYR177      0.0560
    178  CG        22.0330   -5.0240   -1.8200 C.ar  177  TYR177     -0.0198
    179  CD1       21.2510   -4.6300   -2.9000 C.ar  177  TYR177     -0.0009
    180  CD2       23.4020   -5.1690   -2.0190 C.ar  177  TYR177     -0.0009
    181  CE1       21.8130   -4.4090   -4.1410 C.ar  177  TYR177      0.0417
    182  CE2       23.9760   -4.9490   -3.2590 C.ar  177  TYR177      0.0417
    183  CZ        23.1730   -4.5700   -4.3160 C.ar  177  TYR177      0.1957
    184  OH        23.7310   -4.3450   -5.5520 O.3   177  TYR177     -0.2866
@<TRIPOS>BOND
     1   184   183    1
     2   183   181   ar
     3   183   182   ar
     4   181   179   ar
     5   182   180   ar
     6   179   178   ar
     7   180   178   ar
     8   178   177    1
     9   176   175    2
    10   175   174    1
    11   177   174    1
    12   174   173    1
    13   127   128    1
    14   127   133    1
    15   128   129    1
    16   128   131    1
    17   130   129    2
    18   133   132    1
    19   125   123    1
    20   132   131    1
    21   129   134   am
    22   165   164    2
    23   173   164   am
    24   121   122    2
    25   121   120    1
    26   164   163    1
    27   136   137    2
    28   136   135    1
    29   134   135    1
    30   123   120    1
    31   123   124    1
    32   120   119    1
    33   126   124    1
    34   135   138    1
    35   156   155    1
    36   166   163    1
    37   166   167    1
    38   118   117    2
    39   163   162    1
    40   119   117   am
    41   157   155    1
    42   161   160    2
    43   155   152    1
    44   117   116    1
    45   171   170    1
    46   168   167    1
    47   168   169    1
    48   138   139    1
    49   162   160   am
    50   170   169    2
    51   170   172    1
    52   160   159    1
    53   139   140    1
    54   152   153    1
    55   152   151    1
    56   116   115    1
    57   158   153   am
    58   158   159    1
    59   153   154    2
    60   115   110   am
    61   151   145   am
    62   146   145    2
    63   140   142   am
    64   140   141    2
    65   145   144    1
    66   111   110    2
    67   110   109    1
    68   104   103    2
    69   143   144    1
    70   103   102    1
    71    90    89    2
    72   144   147    1
    73   109   108    1
    74   109   112    1
    75    93    91    1
    76     4     3    2
    77    91    88    1
    78    91    92    1
    79     1     2    1
    80   108   114    1
    81    89    88    1
    82   102   105    1
    83   102   101    1
    84     9     8    2
    85   105   106    1
    86    88    87    1
    87   112   113    1
    88   147   149    1
    89   147   148    1
    90     3     2    1
    91     5     2    1
    92   106   107    1
    93     8     7    1
    94   114   113    1
    95    13    11   ar
    96    10     7    1
    97    10    11    1
    98     6     7    1
    99   101   107    1
   100   148   150    1
   101    87    81   am
   102    78    77    1
   103    82    81    2
   104    11    12   ar
   105    81    80    1
   106    77    76    1
   107    76    75    1
   108    14    15    1
   109    21    22    1
   110    21    20    1
   111    80    79    1
   112    80    83    1
   113    75    74    1
   114    17    16    2
   115    18    15    1
   116    18    19    1
   117    79    72   am
   118    15    16    1
   119    83    84    1
   120    73    72    2
   121    20    19    1
   122    74    71    1
   123    99    98    1
   124    72    71    1
   125    96    95    1
   126    96    97    2
   127    95    98    1
   128    95    94    1
   129    71    70    1
   130    98   100    1
   131    84    85    1
   132    86    85    1
   133    68    67    1
   134    44    42   ar
   135    53    52    1
   136    52    51    1
   137    61    59    1
   138    29    31   ar
   139    29    28   ar
   140    42    41    1
   141    42    43   ar
   142    41    38    1
   143    67    69    1
   144    67    66    1
   145    25    24    1
   146    25    26    2
   147    31    32   ar
   148    23    24    1
   149    27    28    1
   150    27    24    1
   151    28    30   ar
   152    59    58    1
   153    51    50    1
   154    66    63    1
   155    63    64    1
   156    63    62    1
   157    40    39    2
   158    50    49    1
   159    38    37    1
   160    38    39    1
   161    64    65    2
   162    32    30   ar
   163    32    34   ar
   164    60    58    1
   165    30    33   ar
   166    58    55    1
   167    34    36   ar
   168    33    35   ar
   169    49    46    1
   170    55    54    1
   171    55    56    1
   172    45    46    1
   173    36    35   ar
   174    46    47    1
   175    56    57    2
   176    47    48    2
