@<TRIPOS>MOLECULE
tmp/4df2A03.pdb
 119 114 0 0 0
SMALL
GASTEIGER

@<TRIPOS>ATOM
      1  N        -32.6700   25.2540  126.1250 N.3    34  THR34      -0.1218
      2  CA       -33.0230   26.2850  125.1580 C.3    34  THR34       0.1862
      3  C        -31.8440   26.5830  124.2330 C.2    34  THR34       0.2287
      4  O        -30.7350   26.8410  124.7080 O.2    34  THR34      -0.2866
      5  CB       -33.4440   27.5600  125.9180 C.3    34  THR34       0.1770
      6  OG1      -34.7250   27.3380  126.5190 O.3    34  THR34      -0.2211
      7  CG2      -33.5110   28.7730  125.0070 C.3    34  THR34       0.0375
      8  N        -32.6640   28.0890  120.7230 N.3    36  PHE36      -0.1241
      9  CA       -33.1570   29.0890  119.7630 C.3    36  PHE36       0.1605
     10  C        -32.9480   28.7220  118.2840 C.2    36  PHE36       0.2264
     11  O        -32.6800   29.5920  117.4540 O.2    36  PHE36      -0.2867
     12  CB       -32.5650   30.4800  120.0510 C.3    36  PHE36       0.0534
     13  CG       -32.9600   31.0500  121.3850 C.ar   36  PHE36      -0.0203
     14  CD1      -34.2930   31.0820  121.7800 C.ar   36  PHE36      -0.0042
     15  CD2      -31.9980   31.5540  122.2500 C.ar   36  PHE36      -0.0042
     16  CE1      -34.6550   31.6090  123.0040 C.ar   36  PHE36      -0.0003
     17  CE2      -32.3560   32.0810  123.4820 C.ar   36  PHE36      -0.0003
     18  CZ       -33.6860   32.1100  123.8580 C.ar   36  PHE36      -0.0000
     19  N        -37.3050   24.3990  126.6580 N.3    67  ALA67      -0.1245
     20  CA       -38.5150   25.1450  127.0050 C.3    67  ALA67       0.1562
     21  C        -39.3570   25.4360  125.7620 C.2    67  ALA67       0.2260
     22  O        -38.8480   25.9460  124.7720 O.2    67  ALA67      -0.2867
     23  CB       -38.1350   26.4510  127.6980 C.3    67  ALA67       0.0290
     24  N        -39.3710   35.6300  124.1810 N.3    77  TYR77      -0.1241
     25  CA       -37.9360   35.6060  123.8770 C.3    77  TYR77       0.1605
     26  C        -37.6610   36.3340  122.5670 C.2    77  TYR77       0.2264
     27  O        -38.4960   36.3220  121.6630 O.2    77  TYR77      -0.2867
     28  CB       -37.4560   34.1740  123.7040 C.3    77  TYR77       0.0534
     29  CG       -37.1370   33.4600  124.9840 C.ar   77  TYR77      -0.0201
     30  CD1      -36.3560   34.0630  125.9620 C.ar   77  TYR77      -0.0009
     31  CD2      -37.6140   32.1760  125.2130 C.ar   77  TYR77      -0.0009
     32  CE1      -36.0570   33.4080  127.1280 C.ar   77  TYR77       0.0417
     33  CE2      -37.3200   31.5100  126.3780 C.ar   77  TYR77       0.0417
     34  CZ       -36.5420   32.1330  127.3320 C.ar   77  TYR77       0.1957
     35  OH       -36.2430   31.4820  128.4980 O.3    77  TYR77      -0.2866
     36  N        -40.9520   20.1630  127.7540 N.3   110  GLN110     -0.1245
     37  CA       -41.0700   21.1270  128.8450 C.3   110  GLN110      0.1566
     38  C        -41.8970   22.3450  128.4150 C.2   110  GLN110      0.2260
     39  O        -41.5110   23.0890  127.5130 O.2   110  GLN110     -0.2867
     40  CB       -39.6980   21.5830  129.3570 C.3   110  GLN110      0.0367
     41  CG       -39.7990   22.4770  130.6020 C.3   110  GLN110      0.0905
     42  CD       -38.4810   23.1230  130.9910 C.2   110  GLN110      0.2608
     43  OE1      -37.8800   23.8540  130.2050 O.2   110  GLN110     -0.2717
     44  NE2      -38.0240   22.8550  132.2140 N.am  110  GLN110     -0.0878
     45  N        -43.2160   25.9130  128.9810 N.3   112  ILE112     -0.1245
     46  CA       -42.8130   27.1200  129.6960 C.3   112  ILE112      0.1561
     47  C        -43.8140   28.2380  129.4480 C.2   112  ILE112      0.2260
     48  O        -44.5560   28.2040  128.4610 O.2   112  ILE112     -0.2867
     49  CB       -41.3860   27.5740  129.2880 C.3   112  ILE112      0.0252
     50  CG1      -40.7820   28.5390  130.3260 C.3   112  ILE112      0.0019
     51  CG2      -41.3930   28.1860  127.8820 C.3   112  ILE112      0.0019
     52  CD1      -39.3890   29.0820  129.9150 C.3   112  ILE112      0.0001
     53  N        -42.8070   23.6850  133.7050 N.3   187  HIS187     -0.1241
     54  CA       -41.6150   24.4460  134.0670 C.3   187  HIS187      0.1621
     55  C        -41.9500   25.3370  135.2580 C.2   187  HIS187      0.2264
     56  O        -42.5380   26.4090  135.0980 O.2   187  HIS187     -0.2867
     57  CB       -41.1440   25.2980  132.8780 C.3   187  HIS187      0.0745
     58  CG       -39.7660   25.8760  133.0390 C.ar  187  HIS187      0.0817
     59  ND1      -39.2570   26.2800  134.2540 N.ar  187  HIS187     -0.2268
     60  CD2      -38.7950   26.1230  132.1240 C.ar  187  HIS187      0.1154
     61  CE1      -38.0280   26.7380  134.0850 C.ar  187  HIS187      0.1986
     62  NE2      -37.7280   26.6620  132.8020 N.ar  187  HIS187     -0.2212
     63  N        -36.5430   28.4820  137.8530 N.3   190  HIS190     -0.1241
     64  CA       -35.7520   29.5370  137.2240 C.3   190  HIS190      0.1621
     65  C        -36.4420   30.8950  137.0540 C.2   190  HIS190      0.2264
     66  O        -36.1030   31.6690  136.1490 O.2   190  HIS190     -0.2867
     67  CB       -35.2160   29.0240  135.8880 C.3   190  HIS190      0.0745
     68  CG       -34.3380   27.8180  136.0270 C.ar  190  HIS190      0.0817
     69  ND1      -34.1920   26.8800  135.0270 N.ar  190  HIS190     -0.2268
     70  CD2      -33.5660   27.3940  137.0550 C.ar  190  HIS190      0.1154
     71  CE1      -33.3620   25.9340  135.4320 C.ar  190  HIS190      0.1986
     72  NE2      -32.9730   26.2180  136.6610 N.ar  190  HIS190     -0.2212
     73  N        -39.4500   31.6840  136.0820 N.3   192  TYR192     -0.1241
     74  CA       -40.4980   31.8610  135.0680 C.3   192  TYR192      0.1605
     75  C        -41.8830   31.8700  135.7280 C.2   192  TYR192      0.2264
     76  O        -41.9720   31.9500  136.9550 O.2   192  TYR192     -0.2867
     77  CB       -40.3610   30.8420  133.9240 C.3   192  TYR192      0.0534
     78  CG       -39.0730   31.0610  133.1330 C.ar  192  TYR192     -0.0201
     79  CD1      -38.9640   32.1010  132.2160 C.ar  192  TYR192     -0.0009
     80  CD2      -37.9660   30.2460  133.3240 C.ar  192  TYR192     -0.0009
     81  CE1      -37.7880   32.3140  131.4930 C.ar  192  TYR192      0.0417
     82  CE2      -36.7890   30.4590  132.6220 C.ar  192  TYR192      0.0417
     83  CZ       -36.7090   31.4910  131.7040 C.ar  192  TYR192      0.1957
     84  OH       -35.5420   31.6840  130.9980 O.3   192  TYR192     -0.2866
     85  N        -31.8090   32.7640  139.8260 N.3   246  PHE246     -0.1241
     86  CA       -31.9550   33.1540  138.4220 C.3   246  PHE246      0.1605
     87  C        -33.1560   34.0820  138.2590 C.2   246  PHE246      0.2264
     88  O        -34.2000   33.8710  138.8810 O.2   246  PHE246     -0.2867
     89  CB       -32.1250   31.8920  137.5570 C.3   246  PHE246      0.0534
     90  CG       -31.8700   32.1040  136.0870 C.ar  246  PHE246     -0.0203
     91  CD1      -30.6000   32.4440  135.6230 C.ar  246  PHE246     -0.0042
     92  CD2      -32.8880   31.9320  135.1650 C.ar  246  PHE246     -0.0042
     93  CE1      -30.3620   32.6190  134.2630 C.ar  246  PHE246     -0.0003
     94  CE2      -32.6640   32.1010  133.8100 C.ar  246  PHE246     -0.0003
     95  CZ       -31.3980   32.4500  133.3550 C.ar  246  PHE246     -0.0000
     96  N        -30.0780   28.3630  137.1960 N.3   291  GLY291     -0.1210
     97  CA       -30.4330   28.6930  135.8230 C.3   291  GLY291      0.1956
     98  C        -29.3700   28.1440  134.8880 C.2   291  GLY291      0.2611
     99  O        -29.2370   26.9300  134.7350 O.2   291  GLY291     -0.2717
    100  N        -28.6080   29.0370  134.2610 N.am  292  ASN292     -0.1974
    101  CA       -27.4710   28.6320  133.4400 C.3   292  ASN292      0.1688
    102  C        -26.1460   29.0900  134.0650 C.2   292  ASN292      0.2292
    103  O        -25.1160   29.1390  133.3940 O.2   292  ASN292     -0.2864
    104  CB       -27.6140   29.1870  132.0210 C.3   292  ASN292      0.1181
    105  CG       -27.8220   30.6980  132.0000 C.2   292  ASN292      0.2629
    106  OD1      -27.6130   31.3800  133.0010 O.2   292  ASN292     -0.2716
    107  ND2      -28.2260   31.2230  130.8510 N.am  292  ASN292     -0.0877
    108  N        -26.7490   30.0780  122.1730 N.3   373  TYR373     -0.1241
    109  CA       -27.9820   30.8020  121.8390 C.3   373  TYR373      0.1605
    110  C        -28.0190   31.5080  120.4770 C.2   373  TYR373      0.2264
    111  O        -28.9200   32.3200  120.2340 O.2   373  TYR373     -0.2867
    112  CB       -28.2920   31.8410  122.9250 C.3   373  TYR373      0.0534
    113  CG       -28.2540   31.2880  124.3170 C.ar  373  TYR373     -0.0201
    114  CD1      -29.2440   30.4200  124.7650 C.ar  373  TYR373     -0.0009
    115  CD2      -27.2240   31.6270  125.1920 C.ar  373  TYR373     -0.0009
    116  CE1      -29.2120   29.9120  126.0360 C.ar  373  TYR373      0.0417
    117  CE2      -27.1820   31.1130  126.4760 C.ar  373  TYR373      0.0417
    118  CZ       -28.1810   30.2590  126.8920 C.ar  373  TYR373      0.1957
    119  OH       -28.1480   29.7440  128.1710 O.3   373  TYR373     -0.2866
@<TRIPOS>BOND
     1    11    10    2
     2    10     9    1
     3     9    12    1
     4     9     8    1
     5    12    13    1
     6   111   110    2
     7   110   109    1
     8    13    14   ar
     9    13    15   ar
    10    27    26    2
    11    14    16   ar
    12   109   108    1
    13   109   112    1
    14    15    17   ar
    15    26    25    1
    16   112   113    1
    17    16    18   ar
    18    17    18   ar
    19    28    25    1
    20    28    29    1
    21    25    24    1
    22     3     4    2
    23     3     2    1
    24   113   114   ar
    25   113   115   ar
    26   114   116   ar
    27    22    21    2
    28    29    31   ar
    29    29    30   ar
    30     7     5    1
    31     2     5    1
    32     2     1    1
    33   115   117   ar
    34    31    33   ar
    35    21    20    1
    36     5     6    1
    37    30    32   ar
    38   116   118   ar
    39    33    34   ar
    40   117   118   ar
    41    19    20    1
    42   118   119    1
    43    20    23    1
    44    32    34   ar
    45    34    35    1
    46    39    38    2
    47    36    37    1
    48    51    49    1
    49    38    37    1
    50    48    47    2
    51    37    40    1
    52    45    46    1
    53    49    46    1
    54    49    50    1
    55    40    41    1
    56    47    46    1
    57    52    50    1
    58    43    42    2
    59    41    42    1
    60   107   105   am
    61    42    44   am
    62    84    83    1
    63    81    83   ar
    64    81    79   ar
    65    83    82   ar
    66   105   104    1
    67   105   106    2
    68   104   101    1
    69    60    62   ar
    70    60    58   ar
    71    79    78   ar
    72    82    80   ar
    73    62    61   ar
    74    57    58    1
    75    57    54    1
    76    58    59   ar
    77    78    80   ar
    78    78    77    1
    79    95    94   ar
    80    95    93   ar
    81   103   102    2
    82   101   102    1
    83   101   100    1
    84    53    54    1
    85    94    92   ar
    86    77    74    1
    87    54    55    1
    88    61    59   ar
    89   100    98   am
    90    93    91   ar
    91    99    98    2
    92    98    97    1
    93    69    71   ar
    94    69    68   ar
    95    74    75    1
    96    74    73    1
    97    56    55    2
    98    92    90   ar
    99    71    72   ar
   100    91    90   ar
   101    75    76    2
   102    97    96    1
   103    67    68    1
   104    67    64    1
   105    68    70   ar
   106    90    89    1
   107    66    65    2
   108    72    70   ar
   109    65    64    1
   110    64    63    1
   111    89    86    1
   112    87    86    1
   113    87    88    2
   114    86    85    1
