@<TRIPOS>MOLECULE
tmp/4df3B00.pdb
 201 194 0 0 0
SMALL
GASTEIGER

@<TRIPOS>ATOM
      1  N         37.5090   47.7980   -3.4470 N.3    59  ARG59      -0.1231
      2  CA        36.5970   46.9470   -4.2070 C.3    59  ARG59       0.1694
      3  C         37.2160   45.7410   -4.9130 C.2    59  ARG59       0.2593
      4  O         36.5090   44.8030   -5.2030 O.2    59  ARG59      -0.2718
      5  CB        35.8530   47.7620   -5.2430 C.3    59  ARG59       0.0321
      6  CG        35.1120   48.9510   -4.6610 C.3    59  ARG59       0.0489
      7  CD        33.8330   48.5000   -3.9750 C.3    59  ARG59       0.2205
      8  NE        32.9550   49.6630   -3.8300 N.pl3  59  ARG59      -0.0865
      9  CZ        33.0740   50.5990   -2.8790 C.cat  59  ARG59       0.5346
     10  NH1       34.0230   50.5030   -1.9350 N.pl3  59  ARG59       0.1354
     11  NH2       32.2310   51.6370   -2.8710 N.pl3  59  ARG59       0.1354
     12  N         38.4980   45.8050   -5.2420 N.am   60  SER60      -0.1938
     13  CA        39.1110   44.7690   -6.0570 C.3    60  SER60       0.2055
     14  C         40.3120   44.2150   -5.3200 C.2    60  SER60       0.2642
     15  O         41.2220   44.9840   -5.0200 O.2    60  SER60      -0.2714
     16  CB        39.5770   45.3780   -7.3650 C.3    60  SER60       0.2130
     17  OG        40.4090   44.4620   -8.0770 O.3    60  SER60      -0.2179
     18  N         40.2880   42.8900   -5.0600 N.am   61  LYS61      -0.1977
     19  CA        41.3330   42.2650   -4.2320 C.3    61  LYS61       0.1596
     20  C         42.7140   42.3630   -4.9250 C.2    61  LYS61       0.2287
     21  O         43.7540   42.5160   -4.2620 O.2    61  LYS61      -0.2864
     22  CB        41.0110   40.8070   -3.9370 C.3    61  LYS61       0.0298
     23  CG        39.8530   40.6180   -2.9430 C.3    61  LYS61       0.0038
     24  CD        39.5140   39.0390   -2.8470 C.3    61  LYS61       0.0206
     25  CE        38.1370   38.8860   -2.1650 C.3    61  LYS61       0.1093
     26  NZ        37.1150   39.1240   -3.2230 N.3    61  LYS61      -0.1314
     27  N         39.9690   33.0140  -15.3580 N.3    83  TYR83      -0.1241
     28  CA        39.5050   33.7230  -14.1100 C.3    83  TYR83       0.1605
     29  C         38.3610   32.9000  -13.5360 C.2    83  TYR83       0.2264
     30  O         37.2620   32.8640  -14.1310 O.2    83  TYR83      -0.2867
     31  CB        39.0520   35.1600  -14.5110 C.3    83  TYR83       0.0534
     32  CG        38.7910   36.1150  -13.3610 C.ar   83  TYR83      -0.0201
     33  CD1       39.1630   37.4360  -13.4620 C.ar   83  TYR83      -0.0009
     34  CD2       38.1180   35.6970  -12.1790 C.ar   83  TYR83      -0.0009
     35  CE1       38.9130   38.3240  -12.4450 C.ar   83  TYR83       0.0417
     36  CE2       37.9040   36.5710  -11.0960 C.ar   83  TYR83       0.0417
     37  CZ        38.3190   37.8980  -11.2560 C.ar   83  TYR83       0.1957
     38  OH        38.1210   38.8560  -10.2700 O.3    83  TYR83      -0.2866
     39  N         35.5300   32.6480  -11.0840 N.3    85  GLY85      -0.1210
     40  CA        34.7180   33.4950  -10.2080 C.3    85  GLY85       0.1956
     41  C         34.6920   34.9670  -10.6150 C.2    85  GLY85       0.2612
     42  O         34.7570   35.8650   -9.7540 O.2    85  GLY85      -0.2717
     43  N         34.5560   35.2220  -11.9010 N.am   86  ILE86      -0.1965
     44  CA        34.6600   36.5790  -12.4350 C.3    86  ILE86       0.1727
     45  C         33.5190   37.4830  -11.8710 C.2    86  ILE86       0.2616
     46  O         33.6290   38.7230  -11.8750 O.2    86  ILE86      -0.2715
     47  CB        34.6530   36.5200  -13.9750 C.3    86  ILE86       0.0290
     48  CG1       34.8000   37.9200  -14.5820 C.3    86  ILE86       0.0022
     49  CG2       33.2950   35.8680  -14.4770 C.3    86  ILE86       0.0023
     50  CD1       35.1880   37.9040  -16.1680 C.3    86  ILE86       0.0001
     51  N         32.4080   36.8750  -11.4030 N.am   87  ALA87      -0.1963
     52  CA        31.2760   37.6790  -10.9030 C.3    87  ALA87       0.1728
     53  C         30.8500   38.7420  -11.9200 C.2    87  ALA87       0.2616
     54  O         30.6860   38.3900  -13.0910 O.2    87  ALA87      -0.2715
     55  CB        31.5820   38.2490   -9.4900 C.3    87  ALA87       0.0334
     56  N         30.6650   40.0000  -11.5390 N.am   88  SER88      -0.1950
     57  CA        30.0870   40.9640  -12.4730 C.3    88  SER88       0.1924
     58  C         31.1880   41.7950  -13.1930 C.2    88  SER88       0.2314
     59  O         30.8810   42.7130  -13.9730 O.2    88  SER88      -0.2863
     60  CB        29.0370   41.8390  -11.7690 C.3    88  SER88       0.2116
     61  OG        29.6790   42.5670  -10.7370 O.3    88  SER88      -0.2180
     62  N         34.2010   43.3880  -11.9580 N.3    90  THR90      -0.1203
     63  CA        35.0180   44.4340  -11.3740 C.3    90  THR90       0.1994
     64  C         36.5220   44.3040  -11.6020 C.2    90  THR90       0.2618
     65  O         37.1890   45.1340  -12.3030 O.2    90  THR90      -0.2717
     66  CB        34.6580   44.5750   -9.8890 C.3    90  THR90       0.1784
     67  OG1       33.2990   45.0510   -9.8300 O.3    90  THR90      -0.2211
     68  CG2       35.6290   45.5490   -9.1800 C.3    90  THR90       0.0376
     69  N         37.0630   43.2380  -11.0490 N.am   91  THR91      -0.1952
     70  CA        38.4640   43.0170  -11.2000 C.3    91  THR91       0.1897
     71  C         38.8490   42.6440  -12.6530 C.2    91  THR91       0.2313
     72  O         39.8850   43.1220  -13.1940 O.2    91  THR91      -0.2863
     73  CB        38.9730   42.0170  -10.2310 C.3    91  THR91       0.1794
     74  OG1       38.7380   42.5370   -8.9360 O.3    91  THR91      -0.2208
     75  CG2       40.5440   41.6940  -10.4530 C.3    91  THR91       0.0378
     76  N         34.9620   32.4420  -15.7700 N.3   108  VAL108     -0.1231
     77  CA        34.0390   31.3810  -15.3460 C.3   108  VAL108      0.1692
     78  C         33.1580   31.8670  -14.2090 C.2   108  VAL108      0.2592
     79  O         33.6490   32.3550  -13.1660 O.2   108  VAL108     -0.2718
     80  CB        34.8430   30.1610  -14.8670 C.3   108  VAL108      0.0266
     81  CG1       33.9340   29.0780  -14.3800 C.3   108  VAL108      0.0020
     82  CG2       35.6980   29.6430  -15.9700 C.3   108  VAL108      0.0020
     83  N         31.8250   31.7690  -14.3700 N.am  109  GLU109     -0.1966
     84  CA        30.9590   32.2190  -13.3160 C.3   109  GLU109      0.1733
     85  C         29.7390   31.3040  -13.3580 C.2   109  GLU109      0.2616
     86  O         29.2390   31.0390  -14.4310 O.2   109  GLU109     -0.2715
     87  CB        30.5660   33.6770  -13.5680 C.3   109  GLU109      0.0429
     88  CG        29.3740   34.1850  -12.7690 C.3   109  GLU109      0.1163
     89  CD        29.6000   34.1300  -11.2500 C.2   109  GLU109      0.3649
     90  OE1       30.6130   34.6800  -10.7430 O.co2 109  GLU109     -0.2457
     91  OE2       28.7810   33.4960  -10.5360 O.co2 109  GLU109     -0.2457
     92  N         29.2900   30.8350  -12.2100 N.am  110  PHE110     -0.1960
     93  CA        28.2250   29.8340  -12.2870 C.3   110  PHE110      0.1771
     94  C         26.8580   30.3540  -11.9590 C.2   110  PHE110      0.2619
     95  O         25.8730   29.6650  -12.2320 O.2   110  PHE110     -0.2715
     96  CB        28.5960   28.5310  -11.5300 C.3   110  PHE110      0.0574
     97  CG        28.3830   28.5630  -10.0130 C.ar  110  PHE110     -0.0200
     98  CD1       28.4060   27.3620   -9.3030 C.ar  110  PHE110     -0.0042
     99  CD2       28.1900   29.7500   -9.3060 C.ar  110  PHE110     -0.0042
    100  CE1       28.2520   27.3320   -7.8860 C.ar  110  PHE110     -0.0003
    101  CE2       27.9970   29.7420   -7.9200 C.ar  110  PHE110     -0.0003
    102  CZ        28.0220   28.5300   -7.2020 C.ar  110  PHE110     -0.0000
    103  N         26.7710   31.5450  -11.3890 N.am  111  ALA111     -0.1977
    104  CA        25.4410   32.1020  -11.0730 C.3   111  ALA111      0.1597
    105  C         24.7660   32.8950  -12.2540 C.2   111  ALA111      0.2287
    106  O         25.2540   33.9660  -12.6700 O.2   111  ALA111     -0.2864
    107  CB        25.4610   32.8530   -9.7710 C.3   111  ALA111      0.0319
    108  N         24.2370   36.5960  -11.8810 N.3   114  VAL114     -0.1245
    109  CA        25.5360   37.2690  -11.8910 C.3   114  VAL114      0.1561
    110  C         26.0710   37.3390  -13.3350 C.2   114  VAL114      0.2260
    111  O         26.4940   38.4090  -13.7890 O.2   114  VAL114     -0.2867
    112  CB        26.5370   36.5780  -10.9670 C.3   114  VAL114      0.0252
    113  CG1       27.8550   37.3830  -10.9490 C.3   114  VAL114      0.0019
    114  CG2       25.9560   36.4730   -9.5460 C.3   114  VAL114      0.0019
    115  N         29.5340   28.3710  -15.9630 N.3   133  GLY133     -0.1210
    116  CA        29.8140   26.9780  -15.6060 C.3   133  GLY133      0.1956
    117  C         30.3800   26.9710  -14.2300 C.2   133  GLY133      0.2612
    118  O         30.7120   28.0320  -13.7050 O.2   133  GLY133     -0.2717
    119  N         30.4490   25.7760  -13.6490 N.am  134  ASP134     -0.1959
    120  CA        30.9940   25.5820  -12.2940 C.3   134  ASP134      0.1840
    121  C         32.4790   25.2650  -12.3490 C.2   134  ASP134      0.2622
    122  O         32.9120   24.3060  -13.0290 O.2   134  ASP134     -0.2715
    123  CB        30.2280   24.4300  -11.5870 C.3   134  ASP134      0.1450
    124  CG        30.4780   24.3490  -10.1040 C.2   134  ASP134      0.3671
    125  OD1       31.6030   24.3780   -9.6160 O.co2 134  ASP134     -0.2456
    126  OD2       29.5150   24.1180   -9.3810 O.co2 134  ASP134     -0.2456
    127  N         33.2870   26.0720  -11.6180 N.am  135  ALA135     -0.1963
    128  CA        34.7740   25.9110  -11.6430 C.3   135  ALA135      0.1728
    129  C         35.2520   24.5700  -11.0860 C.2   135  ALA135      0.2616
    130  O         36.4020   24.2010  -11.2970 O.2   135  ALA135     -0.2715
    131  CB        35.4620   27.1010  -10.8500 C.3   135  ALA135      0.0334
    132  N         34.3990   23.8640  -10.3220 N.am  136  ARG136     -0.1977
    133  CA        34.7960   22.5300   -9.8080 C.3   136  ARG136      0.1597
    134  C         34.8680   21.5040  -10.9080 C.2   136  ARG136      0.2287
    135  O         35.4970   20.4370  -10.7340 O.2   136  ARG136     -0.2864
    136  CB        33.7970   22.0180   -8.7660 C.3   136  ARG136      0.0334
    137  CG        33.8610   22.7560   -7.4740 C.3   136  ARG136      0.0492
    138  CD        32.7510   22.3110   -6.5010 C.3   136  ARG136      0.2205
    139  NE        31.4770   22.9180   -6.8560 N.pl3 136  ARG136     -0.0865
    140  CZ        30.3240   22.5620   -6.3050 C.cat 136  ARG136      0.5346
    141  NH1       30.2930   21.5840   -5.3720 N.pl3 136  ARG136      0.1354
    142  NH2       29.2070   23.1850   -6.6870 N.pl3 136  ARG136      0.1354
    143  N         43.5870   33.1470  -12.3030 N.3   152  TYR152     -0.1241
    144  CA        43.1770   33.9800  -11.1330 C.3   152  TYR152      0.1605
    145  C         41.9540   33.3570  -10.4970 C.2   152  TYR152      0.2264
    146  O         40.9820   33.0800  -11.2160 O.2   152  TYR152     -0.2867
    147  CB        42.8720   35.3940  -11.6440 C.3   152  TYR152      0.0534
    148  CG        42.5720   36.3680  -10.5280 C.ar  152  TYR152     -0.0201
    149  CD1       43.5760   37.1600   -9.9880 C.ar  152  TYR152     -0.0009
    150  CD2       41.2470   36.5080  -10.0680 C.ar  152  TYR152     -0.0009
    151  CE1       43.2660   38.0920   -8.9280 C.ar  152  TYR152      0.0417
    152  CE2       40.9240   37.4460   -9.0260 C.ar  152  TYR152      0.0417
    153  CZ        41.9510   38.2110   -8.5040 C.ar  152  TYR152      0.1957
    154  OH        41.6910   39.1390   -7.5150 O.3   152  TYR152     -0.2866
    155  N         38.9940   33.5550   -7.3730 N.3   154  ASP154     -0.1225
    156  CA        38.3300   34.1560   -6.2430 C.3   154  ASP154      0.1805
    157  C         36.8690   33.6110   -6.2860 C.2   154  ASP154      0.2598
    158  O         35.9470   34.3510   -6.6550 O.2   154  ASP154     -0.2718
    159  CB        38.3690   35.6600   -6.4520 C.3   154  ASP154      0.1424
    160  CG        37.7970   36.4480   -5.2870 C.2   154  ASP154      0.3668
    161  OD1       37.4570   37.6470   -5.5320 O.co2 154  ASP154     -0.2456
    162  OD2       37.6230   35.9050   -4.1900 O.co2 154  ASP154     -0.2456
    163  N         36.6780   32.3600   -5.9330 N.am  155  VAL155     -0.1966
    164  CA        35.2980   31.8250   -5.9650 C.3   155  VAL155      0.1727
    165  C         34.6360   31.7800   -4.5750 C.2   155  VAL155      0.2616
    166  O         33.4630   31.4380   -4.4860 O.2   155  VAL155     -0.2715
    167  CB        35.1550   30.4680   -6.6940 C.3   155  VAL155      0.0290
    168  CG1       35.5390   30.6330   -8.1460 C.3   155  VAL155      0.0023
    169  CG2       36.0560   29.3850   -6.0480 C.3   155  VAL155      0.0023
    170  N         35.3780   32.1340   -3.5220 N.am  156  ALA156     -0.1963
    171  CA        34.7720   32.3250   -2.1700 C.3   156  ALA156      0.1728
    172  C         34.0980   31.0190   -1.7230 C.2   156  ALA156      0.2616
    173  O         33.0080   31.0410   -1.1770 O.2   156  ALA156     -0.2715
    174  CB        33.7620   33.4790   -2.1780 C.3   156  ALA156      0.0334
    175  N         34.7870   29.9030   -1.9500 N.am  157  GLN157     -0.1977
    176  CA        34.2960   28.5770   -1.6060 C.3   157  GLN157      0.1601
    177  C         35.3470   27.8890   -0.7290 C.2   157  GLN157      0.2287
    178  O         36.5330   28.2350   -0.7870 O.2   157  GLN157     -0.2864
    179  CB        34.0450   27.7540   -2.8780 C.3   157  GLN157      0.0394
    180  CG        32.9170   28.3050   -3.7580 C.3   157  GLN157      0.0908
    181  CD        31.4840   28.0660   -3.2120 C.2   157  GLN157      0.2608
    182  OE1       31.2230   28.1280   -1.9910 O.2   157  GLN157     -0.2717
    183  NE2       30.5490   27.8180   -4.1290 N.am  157  GLN157     -0.0878
    184  N         40.1350   23.2320   -6.3500 N.3   163  ILE163     -0.1245
    185  CA        39.5170   23.7710   -7.5850 C.3   163  ILE163      0.1561
    186  C         40.6020   24.4010   -8.4510 C.2   163  ILE163      0.2260
    187  O         40.7080   24.1510   -9.6920 O.2   163  ILE163     -0.2867
    188  CB        38.4400   24.7900   -7.2180 C.3   163  ILE163      0.0252
    189  CG1       37.2800   24.1080   -6.4940 C.3   163  ILE163      0.0019
    190  CG2       37.9300   25.4980   -8.4540 C.3   163  ILE163      0.0019
    191  CD1       36.2370   25.0750   -5.8130 C.3   163  ILE163      0.0001
    192  N         40.7920   38.5310    3.4570 N.3   224  HIS224     -0.1241
    193  CA        41.5380   37.7310    2.4480 C.3   224  HIS224      0.1621
    194  C         43.0140   38.1090    2.3540 C.2   224  HIS224      0.2264
    195  O         43.3890   39.2670    2.6750 O.2   224  HIS224     -0.2867
    196  CB        40.9510   37.8990    1.0500 C.3   224  HIS224      0.0745
    197  CG        39.5770   37.3320    0.9390 C.ar  224  HIS224      0.0817
    198  ND1       38.4700   38.1030    1.1980 N.ar  224  HIS224     -0.2268
    199  CD2       39.1350   36.0910    0.6480 C.ar  224  HIS224      0.1154
    200  CE1       37.3830   37.3620    1.0540 C.ar  224  HIS224      0.1986
    201  NE2       37.7540   36.1410    0.7170 N.ar  224  HIS224     -0.2212
@<TRIPOS>BOND
     1    50    48    1
     2    82    80    1
     3   115   116    1
     4    76    77    1
     5   116   117    1
     6    27    28    1
     7    77    80    1
     8    77    78    1
     9    80    81    1
    10    48    47    1
    11    31    28    1
    12    31    32    1
    13    49    47    1
    14    86    85    2
    15    83    78   am
    16    83    84    1
    17   117   118    2
    18   117   119   am
    19    78    79    2
    20    30    29    2
    21    28    29    1
    22    47    44    1
    23    59    58    2
    24   111   110    2
    25   119   120    1
    26    87    84    1
    27    87    88    1
    28    33    32   ar
    29    33    35   ar
    30    32    34   ar
    31    85    84    1
    32    85    92   am
    33   110   109    1
    34    72    71    2
    35    58    57    1
    36    54    53    2
    37   122   121    2
    38    88    89    1
    39   106   105    2
    40    71    70    1
    41    57    60    1
    42    57    56    1
    43    35    37   ar
    44    44    43    1
    45    44    45    1
    46   121   120    1
    47   121   127   am
    48    65    64    2
    49   143   144    1
    50   120   123    1
    51    93    92    1
    52    93    94    1
    53    93    96    1
    54   105   104    1
    55    95    94    2
    56    34    36   ar
    57    94   103   am
    58    62    63    1
    59    53    56   am
    60    53    52    1
    61    43    41   am
    62   109   108    1
    63   109   112    1
    64    46    45    2
    65    45    51   am
    66    60    61    1
    67   147   144    1
    68   147   148    1
    69   128   127    1
    70   128   129    1
    71   128   131    1
    72    64    63    1
    73    64    69   am
    74   123   124    1
    75    96    97    1
    76    51    52    1
    77   103   104    1
    78    63    66    1
    79   130   129    2
    80    37    36   ar
    81    37    38    1
    82    89    90   ar
    83    89    91   ar
    84   146   145    2
    85    70    69    1
    86    70    73    1
    87   144   145    1
    88   129   132   am
    89    39    40    1
    90   104   107    1
    91   112   113    1
    92   112   114    1
    93   134   135    2
    94   134   133    1
    95    52    55    1
    96    41    40    1
    97    41    42    2
    98   148   150   ar
    99   148   149   ar
   100    75    73    1
   101   132   133    1
   102    73    74    1
   103   124   125   ar
   104   124   126   ar
   105   150   152   ar
   106    97    99   ar
   107    97    98   ar
   108   149   151   ar
   109    66    67    1
   110    66    68    1
   111   133   136    1
   112   187   186    2
   113    99   101   ar
   114    98   100   ar
   115   152   153   ar
   116   151   153   ar
   117   136   137    1
   118   153   154    1
   119   190   188    1
   120   186   185    1
   121   168   167    1
   122    17    16    1
   123   101   102   ar
   124   100   102   ar
   125   185   188    1
   126   185   184    1
   127   137   138    1
   128   155   156    1
   129    16    13    1
   130   188   189    1
   131   139   138    1
   132   139   140    2
   133   167   169    1
   134   167   164    1
   135   142   140    1
   136   158   157    2
   137   189   191    1
   138   159   156    1
   139   159   160    1
   140   140   141    1
   141   157   156    1
   142   157   163   am
   143    13    14    1
   144    13    12    1
   145   164   163    1
   146   164   165    1
   147   161   160   ar
   148    14    18   am
   149    14    15    2
   150   160   162   ar
   151     5     6    1
   152     5     2    1
   153    12     3   am
   154     4     3    2
   155    18    19    1
   156    20    21    2
   157    20    19    1
   158     3     2    1
   159     6     7    1
   160   165   166    2
   161   165   170   am
   162    19    22    1
   163     2     1    1
   164   183   181   am
   165     7     8    1
   166    22    23    1
   167     8     9    2
   168   180   181    1
   169   180   179    1
   170   170   171    1
   171    26    25    1
   172   181   182    2
   173    23    24    1
   174     9    11    1
   175     9    10    1
   176   179   176    1
   177    24    25    1
   178   174   171    1
   179   171   172    1
   180   175   172   am
   181   175   176    1
   182   172   173    2
   183   176   177    1
   184   178   177    2
   185   199   201   ar
   186   199   197   ar
   187   201   200   ar
   188   197   196    1
   189   197   198   ar
   190   196   193    1
   191   200   198   ar
   192   194   193    1
   193   194   195    2
   194   193   192    1
