@<TRIPOS>MOLECULE
tmp/4df6A00.pdb
 118 111 0 0 0
SMALL
GASTEIGER

@<TRIPOS>ATOM
      1  N         -7.1900  -12.5130   -4.0590 N.3    41  CYS41      -0.1221
      2  CA        -8.6680  -12.4280   -4.1250 C.3    41  CYS41       0.1808
      3  C         -9.1750  -11.9810   -5.5170 C.2    41  CYS41       0.2601
      4  O         -8.5720  -12.3160   -6.5450 O.2    41  CYS41      -0.2717
      5  CB        -9.2260  -11.5090   -3.0260 C.3    41  CYS41       0.0970
      6  SG        -8.6490  -11.9220   -1.3640 S.3    41  CYS41      -0.0800
      7  N        -10.2460  -11.1890   -5.5590 N.am   42  SER42      -0.1952
      8  CA       -10.8250  -10.8290   -6.8400 C.3    42  SER42       0.1924
      9  C         -9.8430   -9.9900   -7.7230 C.2    42  SER42       0.2314
     10  O        -10.1060   -9.7580   -8.8970 O.2    42  SER42      -0.2863
     11  CB       -12.2580  -10.2510   -6.6720 C.3    42  SER42       0.2116
     12  OG       -13.1140  -11.0030   -5.7150 O.3    42  SER42      -0.2180
     13  N         -8.5890  -10.7820  -11.4570 N.3    45  LYS45      -0.1245
     14  CA        -9.5100  -10.6550  -12.5770 C.3    45  LYS45       0.1561
     15  C         -9.1080   -9.5960  -13.6030 C.2    45  LYS45       0.2260
     16  O         -9.4720   -9.6970  -14.7510 O.2    45  LYS45      -0.2867
     17  CB       -10.9370  -10.4130  -12.0850 C.3    45  LYS45       0.0271
     18  CG       -11.5710  -11.6550  -11.3800 C.3    45  LYS45       0.0035
     19  CD       -12.7030  -11.2290  -10.4180 C.3    45  LYS45       0.0206
     20  CE       -13.1120  -12.3820   -9.5750 C.3    45  LYS45       0.1093
     21  NZ       -14.4590  -12.1540   -9.0710 N.3    45  LYS45      -0.1314
     22  N        -20.2250  -18.9420   -6.3710 N.3    74  SER74      -0.1202
     23  CA       -19.6720  -17.8250   -5.6340 C.3    74  SER74       0.2020
     24  C        -20.4320  -16.5490   -6.0260 C.2    74  SER74       0.2618
     25  O        -21.2360  -16.5730   -6.9720 O.2    74  SER74      -0.2717
     26  CB       -18.1500  -17.7110   -5.8930 C.3    74  SER74       0.2103
     27  OG       -17.9240  -17.6510   -7.2980 O.3    74  SER74      -0.2182
     28  N        -20.2080  -15.4650   -5.2850 N.am   75  ILE75      -0.1979
     29  CA       -20.8190  -14.1710   -5.5790 C.3    75  ILE75       0.1595
     30  C        -20.6950  -13.8650   -7.0800 C.2    75  ILE75       0.2287
     31  O        -19.5570  -13.7360   -7.6270 O.2    75  ILE75      -0.2864
     32  CB       -20.1710  -13.0530   -4.6760 C.3    75  ILE75       0.0276
     33  CG1      -20.7160  -13.1730   -3.2420 C.3    75  ILE75       0.0022
     34  CG2      -20.3220  -11.6180   -5.2910 C.3    75  ILE75       0.0022
     35  CD1      -19.8670  -12.4660   -2.1840 C.3    75  ILE75       0.0001
     36  N        -18.1140   -5.8820  -11.6470 N.3    99  TYR99      -0.1227
     37  CA       -18.9550   -6.4480  -10.6180 C.3    99  TYR99       0.1736
     38  C        -18.2370   -7.5270   -9.8530 C.2    99  TYR99       0.2596
     39  O        -18.8090   -8.1350   -8.9580 O.2    99  TYR99      -0.2718
     40  CB       -20.2840   -6.9640  -11.2140 C.3    99  TYR99       0.0548
     41  CG       -21.2130   -5.8090  -11.5280 C.ar   99  TYR99      -0.0200
     42  CD1      -21.3320   -5.2910  -12.8380 C.ar   99  TYR99      -0.0009
     43  CD2      -21.9230   -5.1880  -10.5070 C.ar   99  TYR99      -0.0009
     44  CE1      -22.1910   -4.1960  -13.1190 C.ar   99  TYR99       0.0417
     45  CE2      -22.7850   -4.0970  -10.7640 C.ar   99  TYR99       0.0417
     46  CZ       -22.9240   -3.6070  -12.0560 C.ar   99  TYR99       0.1957
     47  OH       -23.7800   -2.5280  -12.2410 O.3    99  TYR99      -0.2866
     48  N        -16.9920   -7.7860  -10.2260 N.am  100  SER100     -0.1952
     49  CA       -16.2280   -8.8240   -9.5670 C.3   100  SER100      0.1924
     50  C        -16.9860  -10.1530   -9.5280 C.2   100  SER100      0.2314
     51  O        -16.9040  -10.9100   -8.5490 O.2   100  SER100     -0.2863
     52  CB       -15.9030   -8.3560   -8.1520 C.3   100  SER100      0.2116
     53  OG       -14.6960   -8.8990   -7.7670 O.3   100  SER100     -0.2180
     54  N        -17.7000  -13.8190   -9.8040 N.3   102  GLY102     -0.1225
     55  CA       -16.8470  -15.0150   -9.7400 C.3   102  GLY102      0.1811
     56  C        -17.0750  -16.0960  -10.7900 C.2   102  GLY102      0.2280
     57  O        -16.1240  -16.7190  -11.2680 O.2   102  GLY102     -0.2866
     58  N        -12.5180  -19.7210   -8.3060 N.3   140  GLU140     -0.1231
     59  CA       -13.5760  -19.3360   -7.3430 C.3   140  GLU140      0.1684
     60  C        -14.4520  -20.5190   -6.9460 C.2   140  GLU140      0.2434
     61  O        -14.7430  -21.3860   -7.7960 O.2   140  GLU140     -0.2733
     62  CB       -14.4580  -18.2650   -7.9660 C.3   140  GLU140      0.0402
     63  CG       -13.6730  -17.0190   -8.4060 C.3   140  GLU140      0.1161
     64  CD       -13.4680  -16.0710   -7.2550 C.2   140  GLU140      0.3649
     65  OE1      -13.4660  -16.5340   -6.1000 O.co2 140  GLU140     -0.2457
     66  OE2      -13.3570  -14.8590   -7.4900 O.co2 140  GLU140     -0.2457
     67  N        -14.8670  -20.5890   -5.6520 N.am  141  PRO141     -0.2729
     68  CA       -14.5680  -19.7350   -4.5040 C.3   141  PRO141      0.1401
     69  C        -13.2330  -20.0400   -3.7900 C.2   141  PRO141      0.2269
     70  O        -12.8700  -19.3030   -2.8580 O.2   141  PRO141     -0.2865
     71  CB       -15.6780  -20.1090   -3.5380 C.3   141  PRO141      0.0296
     72  CG       -15.8730  -21.5680   -3.7890 C.3   141  PRO141      0.0237
     73  CD       -15.7580  -21.7060   -5.2700 C.3   141  PRO141      0.0939
     74  N         -9.9580  -17.5350   -2.3360 N.3   144  ASN144     -0.1240
     75  CA        -9.9990  -16.5270   -1.2560 C.3   144  ASN144      0.1653
     76  C         -9.8110  -17.1180    0.1750 C.2   144  ASN144      0.2266
     77  O         -9.8210  -16.3510    1.1970 O.2   144  ASN144     -0.2867
     78  CB       -11.3230  -15.7790   -1.2670 C.3   144  ASN144      0.1155
     79  CG       -11.7960  -15.4520   -2.6540 C.2   144  ASN144      0.2627
     80  OD1      -11.3700  -14.4510   -3.2480 O.2   144  ASN144     -0.2716
     81  ND2      -12.7110  -16.2890   -3.1850 N.am  144  ASN144     -0.0877
     82  N        -17.2660   -1.3120   -7.5870 N.3   190  THR190     -0.1218
     83  CA       -17.0500   -1.8590   -6.2420 C.3   190  THR190      0.1862
     84  C        -15.9690   -1.1060   -5.4160 C.2   190  THR190      0.2287
     85  O        -15.7660   -1.4420   -4.2440 O.2   190  THR190     -0.2866
     86  CB       -16.6630   -3.3520   -6.3330 C.3   190  THR190      0.1770
     87  OG1      -15.3790   -3.4430   -6.9660 O.3   190  THR190     -0.2211
     88  CG2      -17.6660   -4.1450   -7.1630 C.3   190  THR190      0.0375
     89  N        -10.8410   -4.2520   -7.1950 N.3   209  THR209     -0.1203
     90  CA       -10.8680   -4.5940   -5.7680 C.3   209  THR209      0.1994
     91  C        -10.7740   -6.0950   -5.5520 C.2   209  THR209      0.2618
     92  O        -10.9710   -6.9010   -6.4860 O.2   209  THR209     -0.2717
     93  CB       -12.2190   -4.1350   -5.1100 C.3   209  THR209      0.1784
     94  OG1      -13.3240   -4.7060   -5.8490 O.3   209  THR209     -0.2211
     95  CG2      -12.3380   -2.6020   -5.1020 C.3   209  THR209      0.0376
     96  N        -10.5200   -6.4650   -4.3080 N.am  210  GLY210     -0.1942
     97  CA       -10.7360   -7.8300   -3.8900 C.3   210  GLY210      0.2014
     98  C        -11.0520   -7.8970   -2.4140 C.2   210  GLY210      0.2640
     99  O        -10.7010   -7.0040   -1.6480 O.2   210  GLY210     -0.2714
    100  N        -11.6810   -8.9930   -2.0090 N.am  211  THR211     -0.1936
    101  CA       -12.1640   -9.1910   -0.6490 C.3   211  THR211      0.2028
    102  C        -12.1570  -10.7290   -0.3870 C.2   211  THR211      0.2643
    103  O        -12.5080  -11.5430   -1.2480 O.2   211  THR211     -0.2714
    104  CB       -13.5910   -8.5450   -0.4560 C.3   211  THR211      0.1808
    105  OG1      -13.5230   -7.1180   -0.6210 O.3   211  THR211     -0.2208
    106  CG2      -14.1930   -8.8290    0.9450 C.3   211  THR211      0.0379
    107  N        -11.7260  -11.1270    0.8020 N.am  212  GLY212     -0.1939
    108  CA       -11.5810  -12.5580    1.0990 C.3   212  GLY212      0.2014
    109  C        -11.8230  -12.8210    2.5820 C.2   212  GLY212      0.2638
    110  O        -12.1920  -11.9040    3.3590 O.2   212  GLY212     -0.2714
    111  N        -11.5960  -14.0790    2.9640 N.am  213  ASP213     -0.1971
    112  CA       -11.7330  -14.4870    4.3330 C.3   213  ASP213      0.1709
    113  C        -10.5080  -14.0030    5.1000 C.2   213  ASP213      0.2293
    114  O         -9.6040  -13.4500    4.4740 O.2   213  ASP213     -0.2864
    115  CB       -11.9070  -15.9960    4.3320 C.3   213  ASP213      0.1436
    116  CG       -13.1810  -16.3760    3.6520 C.2   213  ASP213      0.3671
    117  OD1      -14.2590  -15.9530    4.1790 O.co2 213  ASP213     -0.2456
    118  OD2      -13.1080  -17.0050    2.5620 O.co2 213  ASP213     -0.2456
@<TRIPOS>BOND
     1    16    15    2
     2    15    14    1
     3    44    42   ar
     4    44    46   ar
     5    42    41   ar
     6    14    17    1
     7    14    13    1
     8    47    46    1
     9    17    18    1
    10    46    45   ar
    11    36    37    1
    12    41    40    1
    13    41    43   ar
    14    18    19    1
    15    57    56    2
    16    40    37    1
    17    56    55    1
    18    45    43   ar
    19    37    38    1
    20    19    20    1
    21    48    38   am
    22    48    49    1
    23    38    39    2
    24    54    55    1
    25    20    21    1
    26    49    50    1
    27    49    52    1
    28    50    51    2
    29    10     9    2
    30    63    62    1
    31    63    64    1
    32    58    59    1
    33    52    53    1
    34    62    59    1
    35    61    60    2
    36     9     8    1
    37    31    30    2
    38    82    83    1
    39    66    64   ar
    40    59    60    1
    41    27    26    1
    42    64    65   ar
    43    89    90    1
    44    88    86    1
    45    30    29    1
    46    25    24    2
    47    87    86    1
    48    60    67   am
    49     8    11    1
    50     8     7    1
    51    11    12    1
    52     4     3    2
    53    92    91    2
    54    22    23    1
    55    86    83    1
    56    83    84    1
    57    24    23    1
    58    24    28   am
    59    26    23    1
    60    94    93    1
    61    90    91    1
    62    90    93    1
    63    67    73    1
    64    67    68    1
    65    29    28    1
    66    29    32    1
    67     7     3   am
    68    91    96   am
    69     3     2    1
    70    84    85    2
    71    34    32    1
    72    73    72    1
    73    93    95    1
    74    32    33    1
    75    68    69    1
    76    68    71    1
    77    96    97    1
    78     2     1    1
    79     2     5    1
    80    97    98    1
    81    69    70    2
    82    72    71    1
    83    80    79    2
    84    33    35    1
    85    81    79   am
    86     5     6    1
    87    79    78    1
    88    98   100   am
    89    98    99    2
    90    74    75    1
    91   100   101    1
    92    78    75    1
    93    75    76    1
    94   103   102    2
    95   101   104    1
    96   101   102    1
    97   105   104    1
    98   104   106    1
    99   102   107   am
   100    76    77    2
   101   107   108    1
   102   108   109    1
   103   118   116   ar
   104   109   111   am
   105   109   110    2
   106   111   112    1
   107   116   117   ar
   108   116   115    1
   109   115   112    1
   110   112   113    1
   111   114   113    2
