@<TRIPOS>MOLECULE
tmp/4df9C00.pdb
 189 183 0 0 0
SMALL
GASTEIGER

@<TRIPOS>ATOM
      1  N        112.4600    5.4210   77.9550 N.3    77  GLU77      -0.1245
      2  CA       111.1330    4.9480   77.5580 C.3    77  GLU77       0.1567
      3  C        111.2530    4.0450   76.3200 C.2    77  GLU77       0.2260
      4  O        110.5810    3.0240   76.2430 O.2    77  GLU77      -0.2867
      5  CB       110.2070    6.1230   77.2240 C.3    77  GLU77       0.0388
      6  CG       109.8130    6.9670   78.4170 C.3    77  GLU77       0.1160
      7  CD       108.7360    7.9990   78.1290 C.2    77  GLU77       0.3649
      8  OE1      108.1900    8.0060   77.0000 O.co2  77  GLU77      -0.2457
      9  OE2      108.4130    8.7840   79.0520 O.co2  77  GLU77      -0.2457
     10  N        102.9750    4.7070   68.7070 N.3   231  SER231     -0.1217
     11  CA       101.8260    5.0740   69.5230 C.3   231  SER231      0.1889
     12  C        101.2940    6.3990   68.9250 C.2   231  SER231      0.2288
     13  O        101.9030    7.4660   69.1040 O.2   231  SER231     -0.2866
     14  CB       102.2170    5.2060   70.9890 C.3   231  SER231      0.2089
     15  OG       101.1370    5.7570   71.7250 O.3   231  SER231     -0.2183
     16  N         99.1580    8.8850   69.2210 N.3   233  ARG233     -0.1231
     17  CA        98.9890   10.1670   69.8970 C.3   233  ARG233      0.1694
     18  C        100.2050   10.5520   70.7230 C.2   233  ARG233      0.2592
     19  O        100.1720   11.5640   71.4430 O.2   233  ARG233     -0.2718
     20  CB        97.7070   10.1230   70.7780 C.3   233  ARG233      0.0321
     21  CG        96.4250    9.8830   69.9500 C.3   233  ARG233      0.0489
     22  CD        95.1870    9.5770   70.7730 C.3   233  ARG233      0.2205
     23  NE        94.0300   10.2850   70.2200 N.pl3 233  ARG233     -0.0865
     24  CZ        92.8750   10.4630   70.8530 C.cat 233  ARG233      0.5346
     25  NH1       92.6920    9.9640   72.0690 N.pl3 233  ARG233      0.1354
     26  NH2       91.8940   11.1520   70.2780 N.pl3 233  ARG233      0.1354
     27  N        101.3000    9.7840   70.5970 N.am  234  TYR234     -0.1976
     28  CA       102.5040   10.1480   71.3160 C.3   234  TYR234      0.1639
     29  C        103.3130   11.1280   70.4430 C.2   234  TYR234      0.2290
     30  O        103.9120   10.7370   69.4290 O.2   234  TYR234     -0.2864
     31  CB       103.3260    8.9250   71.7380 C.3   234  TYR234      0.0560
     32  CG       104.3170    9.2300   72.8410 C.ar  234  TYR234     -0.0198
     33  CD1      104.2030   10.3850   73.6130 C.ar  234  TYR234     -0.0009
     34  CD2      105.3660    8.3600   73.1200 C.ar  234  TYR234     -0.0009
     35  CE1      105.1040   10.6600   74.6400 C.ar  234  TYR234      0.0417
     36  CE2      106.2650    8.6180   74.1560 C.ar  234  TYR234      0.0417
     37  CZ       106.1350    9.7730   74.9100 C.ar  234  TYR234      0.1957
     38  OH       107.0240   10.0540   75.9190 O.3   234  TYR234     -0.2866
     39  N         95.1880   15.6740   68.6370 N.3   264  TYR264     -0.1241
     40  CA        95.4630   15.3760   70.0280 C.3   264  TYR264      0.1605
     41  C         96.8240   14.6950   70.1680 C.2   264  TYR264      0.2264
     42  O         97.0970   13.7170   69.4720 O.2   264  TYR264     -0.2867
     43  CB        94.3480   14.4880   70.6180 C.3   264  TYR264      0.0534
     44  CG        94.4850   14.2730   72.1080 C.ar  264  TYR264     -0.0201
     45  CD1       94.2390   15.3060   73.0070 C.ar  264  TYR264     -0.0009
     46  CD2       94.8630   13.0370   72.6220 C.ar  264  TYR264     -0.0009
     47  CE1       94.3570   15.1100   74.3820 C.ar  264  TYR264      0.0417
     48  CE2       94.9720   12.8260   73.9990 C.ar  264  TYR264      0.0417
     49  CZ        94.7170   13.8680   74.8740 C.ar  264  TYR264      0.1957
     50  OH        94.7930   13.6680   76.2320 O.3   264  TYR264     -0.2866
     51  N        100.7160   14.7470   72.9840 N.3   266  GLY266     -0.1210
     52  CA       101.5890   15.3840   73.9520 C.3   266  GLY266      0.1956
     53  C        102.5440   14.4340   74.6210 C.2   266  GLY266      0.2612
     54  O        102.4950   13.2330   74.3820 O.2   266  GLY266     -0.2717
     55  N        103.4530   14.9980   75.4000 N.am  267  GLY267     -0.1956
     56  CA       104.4580   14.2600   76.1510 C.3   267  GLY267      0.1869
     57  C        105.1120   15.1680   77.1620 C.2   267  GLY267      0.2309
     58  O        105.1400   16.3650   76.9570 O.2   267  GLY267     -0.2863
     59  N         95.9860   19.3340   79.3700 N.3   286  VAL286     -0.1245
     60  CA        97.1070   18.5220   78.8960 C.3   286  VAL286      0.1561
     61  C         98.4580   19.2110   79.1780 C.2   286  VAL286      0.2260
     62  O         99.3540   18.5430   79.6970 O.2   286  VAL286     -0.2867
     63  CB        96.9600   18.0920   77.4120 C.3   286  VAL286      0.0252
     64  CG1       98.2760   17.5420   76.8500 C.3   286  VAL286      0.0019
     65  CG2       95.8510   17.0600   77.2530 C.3   286  VAL286      0.0019
     66  N         99.1340   18.8260   82.8930 N.3   289  HIS289     -0.1226
     67  CA        99.4300   17.4210   83.1930 C.3   289  HIS289      0.1752
     68  C        100.8740   17.0780   82.7820 C.2   289  HIS289      0.2595
     69  O        101.6290   16.4830   83.5650 O.2   289  HIS289     -0.2718
     70  CB        98.4290   16.5030   82.4680 C.3   289  HIS289      0.0759
     71  CG        98.7230   15.0390   82.6040 C.ar  289  HIS289      0.0818
     72  ND1       98.0420   14.2550   83.5060 N.ar  289  HIS289     -0.2268
     73  CD2       99.6150   14.2740   81.9410 C.ar  289  HIS289      0.1154
     74  CE1       98.5190   13.0370   83.3590 C.ar  289  HIS289      0.1986
     75  NE2       99.4900   13.0090   82.4470 N.ar  289  HIS289     -0.2212
     76  N        101.2670   17.4780   81.5730 N.am  290  GLU290     -0.1979
     77  CA       102.6220   17.2110   81.0800 C.3   290  GLU290      0.1602
     78  C        103.6610   17.9700   81.9020 C.2   290  GLU290      0.2287
     79  O        104.7110   17.4160   82.1860 O.2   290  GLU290     -0.2864
     80  CB       102.7640   17.5200   79.5850 C.3   290  GLU290      0.0415
     81  CG       101.8050   16.7560   78.6780 C.3   290  GLU290      0.1163
     82  CD       101.8420   15.2370   78.6770 C.2   290  GLU290      0.3649
     83  OE1      102.6770   14.6470   79.3930 O.co2 290  GLU290     -0.2457
     84  OE2      101.0490   14.6350   77.9220 O.co2 290  GLU290     -0.2457
     85  N        102.0390    9.2220   86.4060 N.3   300  ASP300     -0.1239
     86  CA       100.6540    9.1650   85.9740 C.3   300  ASP300      0.1674
     87  C         99.8490    8.4250   87.0270 C.2   300  ASP300      0.2266
     88  O        100.3460    7.4460   87.5850 O.2   300  ASP300     -0.2867
     89  CB       100.5500    8.4670   84.6150 C.3   300  ASP300      0.1410
     90  CG       100.9560    9.3750   83.4790 C.2   300  ASP300      0.3668
     91  OD1      100.4730   10.5320   83.4370 O.co2 300  ASP300     -0.2456
     92  OD2      101.7380    8.9310   82.6230 O.co2 300  ASP300     -0.2456
     93  N         96.6170    7.4420   86.3760 N.3   302  TYR302     -0.1227
     94  CA        95.6320    6.6290   85.6820 C.3   302  TYR302      0.1736
     95  C         96.1610    5.2140   85.5280 C.2   302  TYR302      0.2595
     96  O         97.3520    4.9560   85.7410 O.2   302  TYR302     -0.2718
     97  CB        95.2100    7.2350   84.3350 C.3   302  TYR302      0.0548
     98  CG        96.3310    7.4320   83.3360 C.ar  302  TYR302     -0.0200
     99  CD1       96.7480    6.3880   82.5090 C.ar  302  TYR302     -0.0009
    100  CD2       96.9210    8.6790   83.1610 C.ar  302  TYR302     -0.0009
    101  CE1       97.7430    6.5750   81.5570 C.ar  302  TYR302      0.0417
    102  CE2       97.8910    8.8860   82.1840 C.ar  302  TYR302      0.0417
    103  CZ        98.2990    7.8290   81.3850 C.ar  302  TYR302      0.1957
    104  OH        99.2520    8.0040   80.4240 O.3   302  TYR302     -0.2866
    105  N         95.2750    4.3070   85.1770 N.am  303  PHE303     -0.1962
    106  CA        95.5810    2.8830   85.0790 C.3   303  PHE303      0.1771
    107  C         94.6640    2.1830   84.0920 C.2   303  PHE303      0.2620
    108  O         93.5870    2.6790   83.7650 O.2   303  PHE303     -0.2715
    109  CB        95.4530    2.2240   86.4790 C.3   303  PHE303      0.0574
    110  CG        94.1670    2.5250   87.2140 C.ar  303  PHE303     -0.0200
    111  CD1       94.0120    3.7160   87.9230 C.ar  303  PHE303     -0.0042
    112  CD2       93.1090    1.6240   87.1970 C.ar  303  PHE303     -0.0042
    113  CE1       92.8250    4.0030   88.5920 C.ar  303  PHE303     -0.0003
    114  CE2       91.9160    1.9160   87.8670 C.ar  303  PHE303     -0.0003
    115  CZ        91.7830    3.1020   88.5610 C.ar  303  PHE303     -0.0000
    116  N         95.1060    1.0220   83.6270 N.am  304  TYR304     -0.1960
    117  CA        94.3450    0.1880   82.7050 C.3   304  TYR304      0.1771
    118  C         93.9630   -1.1070   83.4020 C.2   304  TYR304      0.2619
    119  O         94.6350   -1.5030   84.3690 O.2   304  TYR304     -0.2715
    120  CB        95.1710   -0.1050   81.4490 C.3   304  TYR304      0.0574
    121  CG        95.7060    1.1260   80.7570 C.ar  304  TYR304     -0.0198
    122  CD1       94.9510    1.7930   79.7990 C.ar  304  TYR304     -0.0009
    123  CD2       96.9750    1.6180   81.0510 C.ar  304  TYR304     -0.0009
    124  CE1       95.4480    2.9150   79.1410 C.ar  304  TYR304      0.0417
    125  CE2       97.4750    2.7440   80.4110 C.ar  304  TYR304      0.0417
    126  CZ        96.7140    3.3840   79.4470 C.ar  304  TYR304      0.1957
    127  OH        97.2150    4.4940   78.8070 O.3   304  TYR304     -0.2866
    128  N         92.9140   -1.7870   82.9010 N.am  305  ASP305     -0.1971
    129  CA        92.4890   -3.0850   83.4450 C.3   305  ASP305      0.1709
    130  C         93.5110   -4.1830   83.0900 C.2   305  ASP305      0.2293
    131  O         93.8900   -4.9690   83.9590 O.2   305  ASP305     -0.2864
    132  CB        91.0840   -3.4730   82.9320 C.3   305  ASP305      0.1436
    133  CG        90.0330   -2.3790   82.9940 C.2   305  ASP305      0.3671
    134  OD1       90.2120   -1.4220   83.7880 O.co2 305  ASP305     -0.2456
    135  OD2       89.0450   -2.4600   82.2290 O.co2 305  ASP305     -0.2456
    136  N        102.8880   -4.8140   83.6100 N.3   308  ASN308     -0.1240
    137  CA       103.6240   -3.7640   82.9020 C.3   308  ASN308      0.1653
    138  C        105.1370   -3.9030   83.1370 C.2   308  ASN308      0.2266
    139  O        105.9110   -3.9380   82.1720 O.2   308  ASN308     -0.2867
    140  CB       103.1340   -2.3670   83.3160 C.3   308  ASN308      0.1155
    141  CG       101.8020   -2.0140   82.7790 C.2   308  ASN308      0.2627
    142  OD1      101.6850   -1.9190   81.5510 O.2   308  ASN308     -0.2716
    143  ND2      100.8250   -1.8390   83.5870 N.am  308  ASN308     -0.0877
    144  N        106.9490   -1.6300   84.6220 N.3   310  LEU310     -0.1245
    145  CA       107.5550   -0.2980   84.6910 C.3   310  LEU310      0.1561
    146  C        107.8150    0.0770   86.1500 C.2   310  LEU310      0.2260
    147  O        108.7680    0.7970   86.4460 O.2   310  LEU310     -0.2867
    148  CB       106.7010    0.7840   83.9950 C.3   310  LEU310      0.0270
    149  CG       106.2210    0.5650   82.5630 C.3   310  LEU310      0.0019
    150  CD1      105.6520    1.8690   81.9990 C.3   310  LEU310      0.0001
    151  CD2      107.3260    0.0400   81.6450 C.3   310  LEU310      0.0001
    152  N         99.8370    3.1960   85.7260 N.3   361  TYR361     -0.1241
    153  CA        99.3240    2.3320   84.6450 C.3   361  TYR361      0.1605
    154  C         98.7360    1.0070   85.1310 C.2   361  TYR361      0.2264
    155  O         98.0260    0.3660   84.3440 O.2   361  TYR361     -0.2867
    156  CB       100.3770    2.0670   83.5310 C.3   361  TYR361      0.0534
    157  CG       101.1640    3.3090   83.1880 C.ar  361  TYR361     -0.0201
    158  CD1      100.5160    4.4770   82.7770 C.ar  361  TYR361     -0.0009
    159  CD2      102.5400    3.3660   83.4050 C.ar  361  TYR361     -0.0009
    160  CE1      101.2230    5.6530   82.5500 C.ar  361  TYR361      0.0417
    161  CE2      103.2550    4.5420   83.1970 C.ar  361  TYR361      0.0417
    162  CZ       102.5930    5.6820   82.7600 C.ar  361  TYR361      0.1957
    163  OH       103.2880    6.8460   82.5400 O.3   361  TYR361     -0.2866
    164  N         95.5330   12.0810   86.8170 N.3   375  ARG375     -0.1231
    165  CA        94.7350   10.9070   86.4430 C.3   375  ARG375      0.1694
    166  C         93.8280   11.2040   85.2260 C.2   375  ARG375      0.2593
    167  O         93.7550   10.3900   84.3040 O.2   375  ARG375     -0.2718
    168  CB        93.8910   10.4020   87.6200 C.3   375  ARG375      0.0321
    169  CG        93.2420    9.0400   87.2980 C.3   375  ARG375      0.0489
    170  CD        92.3110    8.5540   88.3840 C.3   375  ARG375      0.2205
    171  NE        91.5740    7.3980   87.8940 N.pl3 375  ARG375     -0.0865
    172  CZ        90.3030    7.1490   88.1720 C.cat 375  ARG375      0.5346
    173  NH1       89.6230    7.9540   88.9750 N.pl3 375  ARG375      0.1354
    174  NH2       89.7170    6.0610   87.6940 N.pl3 375  ARG375      0.1354
    175  N         93.1100   12.3220   85.2470 N.am  376  THR376     -0.1939
    176  CA        92.1980   12.6390   84.1540 C.3   376  THR376      0.2028
    177  C         92.3440   14.1000   83.7130 C.2   376  THR376      0.2642
    178  O         92.7700   14.9340   84.5080 O.2   376  THR376     -0.2714
    179  CB        90.7160   12.3880   84.5830 C.3   376  THR376      0.1808
    180  OG1       90.3900   13.2980   85.6160 O.3   376  THR376     -0.2208
    181  CG2       90.4130   10.9490   85.0570 C.3   376  THR376      0.0379
    182  N         91.9030   14.4140   82.4820 N.am  377  ASN377     -0.1971
    183  CA        91.8710   15.7840   81.9480 C.3   377  ASN377      0.1688
    184  C         90.6790   16.5730   82.4760 C.2   377  ASN377      0.2292
    185  O         90.7350   17.8040   82.5500 O.2   377  ASN377     -0.2864
    186  CB        91.8060   15.7590   80.4060 C.3   377  ASN377      0.1181
    187  CG        93.1220   15.3890   79.7830 C.2   377  ASN377      0.2629
    188  OD1       94.1800   15.6200   80.3650 O.2   377  ASN377     -0.2716
    189  ND2       93.0910   14.7830   78.6080 N.am  377  ASN377     -0.0877
@<TRIPOS>BOND
     1    39    40    1
     2    10    11    1
     3    12    13    2
     4    12    11    1
     5    16    17    1
     6    30    29    2
     7    42    41    2
     8    11    14    1
     9    17    18    1
    10    17    20    1
    11    21    22    1
    12    21    20    1
    13    40    41    1
    14    40    43    1
    15    23    22    1
    16    23    24    2
    17    26    24    1
    18    29    28    1
    19    27    18   am
    20    27    28    1
    21    43    44    1
    22    18    19    2
    23    24    25    1
    24    14    15    1
    25    28    31    1
    26    31    32    1
    27    44    46   ar
    28    44    45   ar
    29    46    48   ar
    30    32    34   ar
    31    32    33   ar
    32    51    52    1
    33    45    47   ar
    34    34    36   ar
    35    33    35   ar
    36    52    53    1
    37    48    49   ar
    38    36    37   ar
    39    47    49   ar
    40    54    53    2
    41    53    55   am
    42    35    37   ar
    43    49    50    1
    44    37    38    1
    45    55    56    1
    46    56    57    1
    47     4     3    2
    48     3     2    1
    49    64    63    1
    50    58    57    2
    51     8     7   ar
    52     5     2    1
    53     5     6    1
    54    65    63    1
    55    63    60    1
    56     2     1    1
    57    84    82   ar
    58     7     6    1
    59     7     9   ar
    60   189   187   am
    61    82    81    1
    62    82    83   ar
    63    81    80    1
    64   127   126    1
    65    60    61    1
    66    60    59    1
    67   124   126   ar
    68   124   122   ar
    69    61    62    2
    70   126   125   ar
    71    80    77    1
    72   187   188    2
    73   187   186    1
    74   122   121   ar
    75   186   183    1
    76   125   123   ar
    77   104   103    1
    78   121   123   ar
    79   121   120    1
    80    77    76    1
    81    77    78    1
    82   103   101   ar
    83   103   102   ar
    84   120   117    1
    85   142   141    2
    86   101    99   ar
    87    76    68   am
    88   151   149    1
    89    78    79    2
    90    73    75   ar
    91    73    71   ar
    92   183   184    1
    93   183   182    1
    94   150   149    1
    95   139   138    2
    96   102   100   ar
    97   135   133   ar
    98    75    74   ar
    99    70    71    1
   100    70    67    1
   101   184   185    2
   102   182   177   am
   103    99    98   ar
   104   163   162    1
   105   160   162   ar
   106   160   158   ar
   107   149   148    1
   108    71    72   ar
   109    92    90   ar
   110   117   118    1
   111   117   116    1
   112   162   161   ar
   113   158   157   ar
   114   141   140    1
   115   141   143   am
   116    68    67    1
   117    68    69    2
   118    66    67    1
   119   128   118   am
   120   128   129    1
   121   137   138    1
   122   137   140    1
   123   137   136    1
   124   132   133    1
   125   132   129    1
   126   133   134   ar
   127   130   129    1
   128   130   131    2
   129   100    98   ar
   130   157   159   ar
   131   157   156    1
   132   161   159   ar
   133    98    97    1
   134    74    72   ar
   135   118   119    2
   136    91    90   ar
   137    90    89    1
   138   156   153    1
   139   116   107   am
   140   177   176    1
   141   177   178    2
   142   108   107    2
   143   148   145    1
   144   107   106    1
   145   176   179    1
   146   176   175    1
   147   167   166    2
   148    97    94    1
   149   155   154    2
   150   179   181    1
   151   179   180    1
   152    89    86    1
   153   144   145    1
   154   153   154    1
   155   153   152    1
   156   145   146    1
   157   106   105    1
   158   106   109    1
   159   105    95   am
   160   166   175   am
   161   166   165    1
   162    95    94    1
   163    95    96    2
   164    94    93    1
   165    86    85    1
   166    86    87    1
   167   146   147    2
   168   165   164    1
   169   165   168    1
   170   109   110    1
   171    87    88    2
   172   112   110   ar
   173   112   114   ar
   174   110   111   ar
   175   169   168    1
   176   169   170    1
   177   174   172    1
   178   114   115   ar
   179   171   172    2
   180   171   170    1
   181   111   113   ar
   182   172   173    1
   183   115   113   ar
