@<TRIPOS>MOLECULE
tmp/4df9E00.pdb
 118 117 0 0 0
SMALL
GASTEIGER

@<TRIPOS>ATOM
      1  N         78.0330  -24.3310  -11.0920 N.3   232  ARG232     -0.1245
      2  CA        78.9450  -25.3840  -10.6560 C.3   232  ARG232      0.1563
      3  C         79.5200  -25.1490   -9.2410 C.2   232  ARG232      0.2260
      4  O         80.4860  -25.8190   -8.8670 O.2   232  ARG232     -0.2867
      5  CB        80.0840  -25.5380  -11.6880 C.3   232  ARG232      0.0307
      6  CG        79.5870  -25.9370  -13.0850 C.3   232  ARG232      0.0489
      7  CD        80.7300  -26.1130  -14.0700 C.3   232  ARG232      0.2205
      8  NE        81.2330  -27.4910  -14.0800 N.pl3 232  ARG232     -0.0865
      9  CZ        82.5060  -27.8290  -14.2730 C.cat 232  ARG232      0.5346
     10  NH1       83.4280  -26.8920  -14.4680 N.pl3 232  ARG232      0.1354
     11  NH2       82.8680  -29.1050  -14.2650 N.pl3 232  ARG232      0.1354
     12  N         82.3970  -32.1450  -10.8040 N.3   263  TYR263     -0.1227
     13  CA        83.4380  -31.3380  -10.1900 C.3   263  TYR263      0.1740
     14  C         82.7750  -30.3660   -9.2280 C.2   263  TYR263      0.2635
     15  O         81.6820  -29.8840   -9.5070 O.2   263  TYR263     -0.2714
     16  CB        84.1840  -30.5810  -11.2760 C.3   263  TYR263      0.0548
     17  CG        85.5180  -29.9760  -10.8920 C.ar  263  TYR263     -0.0200
     18  CD1       86.6160  -30.7880  -10.6020 C.ar  263  TYR263     -0.0009
     19  CD2       85.7390  -28.6040  -11.0040 C.ar  263  TYR263     -0.0009
     20  CE1       87.8860  -30.2470  -10.3900 C.ar  263  TYR263      0.0417
     21  CE2       87.0060  -28.0520  -10.7950 C.ar  263  TYR263      0.0417
     22  CZ        88.0800  -28.8790  -10.4920 C.ar  263  TYR263      0.1957
     23  OH        89.3310  -28.3450  -10.2660 O.3   263  TYR263     -0.2866
     24  N         83.4140  -30.0990   -8.1040 N.am  264  GLY264     -0.1718
     25  CA        82.8650  -29.1490   -7.1490 C.2   264  GLY264      0.1480
     26  C         83.3930  -29.2460   -5.7460 C.2   264  GLY264      0.2821
     27  O         83.8590  -30.2960   -5.2980 O.2   264  GLY264     -0.2669
     28  N         83.2700  -28.1340   -5.0520 N.am  265  GLY265     -0.1920
     29  CA        83.6680  -28.0240   -3.6690 C.3   265  GLY265      0.1872
     30  C         84.5410  -26.8320   -3.4060 C.2   265  GLY265      0.2310
     31  O         84.4910  -25.8380   -4.1360 O.2   265  GLY265     -0.2863
     32  N         92.9310  -32.2000   -6.0580 N.3   285  VAL285     -0.1245
     33  CA        91.9200  -31.2370   -5.5940 C.3   285  VAL285      0.1561
     34  C         91.7310  -31.2890   -4.0660 C.2   285  VAL285      0.2260
     35  O         91.7680  -30.2220   -3.4390 O.2   285  VAL285     -0.2867
     36  CB        90.5630  -31.3680   -6.3390 C.3   285  VAL285      0.0252
     37  CG1       89.4690  -30.5650   -5.6430 C.3   285  VAL285      0.0019
     38  CG2       90.7000  -30.9120   -7.7930 C.3   285  VAL285      0.0019
     39  N         94.7390  -29.5930   -2.5170 N.3   288  HIS288     -0.1226
     40  CA        94.6630  -28.1330   -2.7390 C.3   288  HIS288      0.1752
     41  C         93.6950  -27.4970   -1.7360 C.2   288  HIS288      0.2595
     42  O         94.0460  -26.5010   -1.1030 O.2   288  HIS288     -0.2718
     43  CB        94.2230  -27.8250   -4.1890 C.3   288  HIS288      0.0759
     44  CG        93.9720  -26.3660   -4.4690 C.ar  288  HIS288      0.0818
     45  ND1       94.9060  -25.5850   -5.1280 N.ar  288  HIS288     -0.2268
     46  CD2       92.8940  -25.5990   -4.1840 C.ar  288  HIS288      0.1154
     47  CE1       94.3730  -24.3740   -5.2090 C.ar  288  HIS288      0.1986
     48  NE2       93.1680  -24.3340   -4.6580 N.ar  288  HIS288     -0.2212
     49  N         92.4870  -28.0910   -1.5720 N.am  289  GLU289     -0.1979
     50  CA        91.4670  -27.5680   -0.6550 C.3   289  GLU289      0.1602
     51  C         91.9250  -27.6700    0.7930 C.2   289  GLU289      0.2287
     52  O         91.6760  -26.7390    1.5730 O.2   289  GLU289     -0.2864
     53  CB        90.1020  -28.2670   -0.8500 C.3   289  GLU289      0.0415
     54  CG        89.5440  -28.1730   -2.2580 C.3   289  GLU289      0.1163
     55  CD        89.2820  -26.7990   -2.8570 C.2   289  GLU289      0.3649
     56  OE1       89.5490  -25.7680   -2.1950 O.co2 289  GLU289     -0.2457
     57  OE2       88.7500  -26.7630   -3.9890 O.co2 289  GLU289     -0.2457
     58  N         96.8180  -18.9820   -8.2620 N.3   301  TYR301     -0.1227
     59  CA        96.4280  -18.7790   -9.6480 C.3   301  TYR301      0.1736
     60  C         95.8410  -17.3760   -9.8160 C.2   301  TYR301      0.2595
     61  O         95.5490  -16.6970   -8.8320 O.2   301  TYR301     -0.2718
     62  CB        95.4810  -19.8590  -10.1490 C.3   301  TYR301      0.0548
     63  CG        94.1840  -19.9970   -9.3810 C.ar  301  TYR301     -0.0200
     64  CD1       93.0910  -19.1840   -9.6690 C.ar  301  TYR301     -0.0009
     65  CD2       94.0190  -20.9990   -8.4280 C.ar  301  TYR301     -0.0009
     66  CE1       91.8740  -19.3460   -9.0030 C.ar  301  TYR301      0.0417
     67  CE2       92.8050  -21.1780   -7.7690 C.ar  301  TYR301      0.0417
     68  CZ        91.7370  -20.3460   -8.0540 C.ar  301  TYR301      0.1957
     69  OH        90.5450  -20.5150   -7.3870 O.3   301  TYR301     -0.2866
     70  N         95.7090  -16.9340  -11.0640 N.am  302  PHE302     -0.1962
     71  CA        95.2530  -15.5970  -11.4020 C.3   302  PHE302      0.1771
     72  C         94.5890  -15.5710  -12.7760 C.2   302  PHE302      0.2619
     73  O         94.8080  -16.4600  -13.6030 O.2   302  PHE302     -0.2715
     74  CB        96.4520  -14.6230  -11.3750 C.3   302  PHE302      0.0574
     75  CG        97.6620  -15.0880  -12.1640 C.ar  302  PHE302     -0.0200
     76  CD1       98.5730  -15.9840  -11.6120 C.ar  302  PHE302     -0.0042
     77  CD2       97.8880  -14.6310  -13.4590 C.ar  302  PHE302     -0.0042
     78  CE1       99.6870  -16.4260  -12.3450 C.ar  302  PHE302     -0.0003
     79  CE2       99.0070  -15.0700  -14.1930 C.ar  302  PHE302     -0.0003
     80  CZ        99.8940  -15.9680  -13.6320 C.ar  302  PHE302     -0.0000
     81  N         93.8020  -14.5210  -13.0170 N.am  303  TYR303     -0.1974
     82  CA        93.0920  -14.2920  -14.2670 C.3   303  TYR303      0.1639
     83  C         93.6610  -13.0590  -14.9470 C.2   303  TYR303      0.2290
     84  O         94.2860  -12.2400  -14.2750 O.2   303  TYR303     -0.2864
     85  CB        91.5840  -14.1320  -14.0070 C.3   303  TYR303      0.0560
     86  CG        90.9780  -15.2930  -13.2480 C.ar  303  TYR303     -0.0198
     87  CD1       90.5450  -16.4390  -13.9120 C.ar  303  TYR303     -0.0009
     88  CD2       90.8410  -15.2510  -11.8620 C.ar  303  TYR303     -0.0009
     89  CE1       89.9790  -17.5100  -13.2170 C.ar  303  TYR303      0.0417
     90  CE2       90.2880  -16.3210  -11.1560 C.ar  303  TYR303      0.0417
     91  CZ        89.8590  -17.4490  -11.8380 C.ar  303  TYR303      0.1957
     92  OH        89.2970  -18.5010  -11.1560 O.3   303  TYR303     -0.2866
     93  N         98.4920  -23.2910   -7.1740 N.3   373  ARG373     -0.1231
     94  CA        98.2600  -22.5890   -8.4390 C.3   373  ARG373      0.1694
     95  C         97.5010  -23.5080   -9.4260 C.2   373  ARG373      0.2593
     96  O         96.5230  -23.0660  -10.0170 O.2   373  ARG373     -0.2718
     97  CB        99.5870  -22.0970   -9.0590 C.3   373  ARG373      0.0321
     98  CG        99.3790  -21.1460  -10.2180 C.3   373  ARG373      0.0489
     99  CD       100.6290  -20.9200  -11.0570 C.3   373  ARG373      0.2205
    100  NE       100.2800  -20.1800  -12.2710 N.pl3 373  ARG373     -0.0865
    101  CZ       101.0570  -20.0520  -13.3430 C.cat 373  ARG373      0.5346
    102  NH1      102.2600  -20.6180  -13.3730 N.pl3 373  ARG373      0.1354
    103  NH2      100.6400  -19.3540  -14.3910 N.pl3 373  ARG373      0.1354
    104  N         97.9740  -24.7600   -9.6350 N.am  374  THR374     -0.1939
    105  CA        97.3790  -25.6970  -10.5950 C.3   374  THR374      0.2028
    106  C         97.2120  -27.0910   -9.9750 C.2   374  THR374      0.2642
    107  O         97.9670  -27.4490   -9.0780 O.2   374  THR374     -0.2714
    108  CB        98.2600  -25.8010  -11.8850 C.3   374  THR374      0.1808
    109  OG1       99.5010  -26.4180  -11.5610 O.3   374  THR374     -0.2208
    110  CG2       98.5180  -24.4490  -12.5720 C.3   374  THR374      0.0379
    111  N         96.2920  -27.9080  -10.5020 N.am  375  ASN375     -0.1971
    112  CA        96.1140  -29.2840  -10.0190 C.3   375  ASN375      0.1688
    113  C         97.1330  -30.2260  -10.6120 C.2   375  ASN375      0.2292
    114  O         97.4400  -31.2340   -9.9910 O.2   375  ASN375     -0.2864
    115  CB        94.7050  -29.8140  -10.3350 C.3   375  ASN375      0.1181
    116  CG        93.6070  -29.1430   -9.5560 C.2   375  ASN375      0.2629
    117  OD1       93.7710  -28.7640   -8.3840 O.2   375  ASN375     -0.2716
    118  ND2       92.4570  -28.9920  -10.1960 N.am  375  ASN375     -0.0877
@<TRIPOS>BOND
     1    83    84    2
     2    83    82    1
     3    10     9    1
     4   103   101    1
     5     9    11    1
     6     9     8    2
     7    82    85    1
     8    82    81    1
     9    79    80   ar
    10    79    77   ar
    11     8     7    1
    12     7     6    1
    13    85    86    1
    14    87    86   ar
    15    87    89   ar
    16    80    78   ar
    17    73    72    2
    18    77    75   ar
    19   102   101    1
    20   101   100    2
    21    86    88   ar
    22    89    91   ar
    23     6     5    1
    24    81    72   am
    25    72    71    1
    26   110   108    1
    27    78    76   ar
    28   100    99    1
    29    75    76   ar
    30    75    74    1
    31   108   109    1
    32   108   105    1
    33    88    90   ar
    34    91    92    1
    35    91    90   ar
    36     5     2    1
    37    71    74    1
    38    71    70    1
    39    16    17    1
    40    16    13    1
    41     1     2    1
    42    70    60   am
    43    99    98    1
    44    19    17   ar
    45    19    21   ar
    46    17    18   ar
    47    12    13    1
    48    21    22   ar
    49     2     3    1
    50   113   112    1
    51   113   114    2
    52    18    20   ar
    53   105   106    1
    54   105   104    1
    55   111   112    1
    56   111   106   am
    57    22    20   ar
    58    22    23    1
    59   115   112    1
    60   115   116    1
    61    98    97    1
    62   118   116   am
    63    13    14    1
    64    62    59    1
    65    62    63    1
    66    96    95    2
    67   106   107    2
    68    60    59    1
    69    60    61    2
    70    64    63   ar
    71    64    66   ar
    72    59    58    1
    73   104    95   am
    74   116   117    2
    75    15    14    2
    76    95    94    1
    77    63    65   ar
    78     3     4    2
    79    14    24    1
    80    97    94    1
    81    66    68   ar
    82    94    93    1
    83    65    67   ar
    84    24    25    2
    85    68    67   ar
    86    68    69    1
    87    38    36    1
    88    25    26    1
    89    36    37    1
    90    36    33    1
    91    32    33    1
    92    26    27    2
    93    26    28   am
    94    33    34    1
    95    47    45   ar
    96    47    48   ar
    97    45    44   ar
    98    28    29    1
    99    48    46   ar
   100    44    43    1
   101    44    46   ar
   102    43    40    1
   103    31    30    2
   104    34    35    2
   105    57    55   ar
   106    29    30    1
   107    55    54    1
   108    55    56   ar
   109    40    39    1
   110    40    41    1
   111    54    53    1
   112    41    49   am
   113    41    42    2
   114    49    50    1
   115    53    50    1
   116    50    51    1
   117    51    52    2
