@<TRIPOS>MOLECULE
tmp/4dffB00.pdb
 168 160 0 0 0
SMALL
GASTEIGER

@<TRIPOS>ATOM
      1  N          5.5490   48.6850   62.7480 N.3    54  TYR54      -0.1227
      2  CA         6.5240   47.6580   63.1020 C.3    54  TYR54       0.1736
      3  C          7.9910   48.1080   63.1520 C.2    54  TYR54       0.2595
      4  O          8.6610   47.7810   64.1330 O.2    54  TYR54      -0.2718
      5  CB         6.3570   46.4690   62.1510 C.3    54  TYR54       0.0548
      6  CG         7.3540   45.3680   62.3950 C.ar   54  TYR54      -0.0200
      7  CD1        7.3280   44.6280   63.5730 C.ar   54  TYR54      -0.0009
      8  CD2        8.3870   45.1290   61.5000 C.ar   54  TYR54      -0.0009
      9  CE1        8.2920   43.6680   63.8420 C.ar   54  TYR54       0.0417
     10  CE2        9.3420   44.1510   61.7470 C.ar   54  TYR54       0.0417
     11  CZ         9.2860   43.4150   62.9180 C.ar   54  TYR54       0.1957
     12  OH        10.2180   42.4390   63.1840 O.3    54  TYR54      -0.2866
     13  N          8.5310   48.7430   62.0730 N.am   55  HIS55      -0.1975
     14  CA         9.9610   49.1220   62.0310 C.3    55  HIS55       0.1656
     15  C         10.1940   50.4080   62.7950 C.2    55  HIS55       0.2291
     16  O         10.5700   51.4280   62.2200 O.2    55  HIS55      -0.2864
     17  CB        10.4600   49.2260   60.5850 C.3    55  HIS55       0.0771
     18  CG        10.3720   47.9390   59.8260 C.ar   55  HIS55       0.0820
     19  ND1        9.4870   47.7780   58.7870 N.ar   55  HIS55      -0.2267
     20  CD2       11.1130   46.8220   59.9370 C.ar   55  HIS55       0.1154
     21  CE1        9.6710   46.5580   58.3190 C.ar   55  HIS55       0.1986
     22  NE2       10.6780   45.9560   58.9430 N.ar   55  HIS55      -0.2212
     23  N         16.7540   40.7050   54.0970 N.3   152  LEU152     -0.1245
     24  CA        16.3300   39.2890   54.0890 C.3   152  LEU152      0.1561
     25  C         16.5710   38.5490   52.7510 C.2   152  LEU152      0.2260
     26  O         16.6900   37.3360   52.7700 O.2   152  LEU152     -0.2867
     27  CB        14.8710   39.1180   54.5830 C.3   152  LEU152      0.0270
     28  CG        14.4640   37.6950   55.0410 C.3   152  LEU152      0.0019
     29  CD1       15.2540   37.2390   56.3400 C.3   152  LEU152      0.0001
     30  CD2       12.9780   37.6410   55.3140 C.3   152  LEU152      0.0001
     31  N         19.1380   34.0160   52.5080 N.3   156  PHE156     -0.1241
     32  CA        18.9890   32.7110   51.8490 C.3   156  PHE156      0.1605
     33  C         20.3440   32.1860   51.3750 C.2   156  PHE156      0.2264
     34  O         20.7550   31.0890   51.7510 O.2   156  PHE156     -0.2867
     35  CB        17.9850   32.7820   50.6870 C.3   156  PHE156      0.0534
     36  CG        16.6070   33.1960   51.1460 C.ar  156  PHE156     -0.0203
     37  CD1       15.7710   32.2910   51.7890 C.ar  156  PHE156     -0.0042
     38  CD2       16.1850   34.5190   51.0350 C.ar  156  PHE156     -0.0042
     39  CE1       14.5170   32.6880   52.2610 C.ar  156  PHE156     -0.0003
     40  CE2       14.9440   34.9180   51.5400 C.ar  156  PHE156     -0.0003
     41  CZ        14.1320   34.0070   52.1770 C.ar  156  PHE156     -0.0000
     42  N         16.8980   39.9910   64.0840 N.3   191  ASP191     -0.1225
     43  CA        15.8950   40.7160   63.3180 C.3   191  ASP191      0.1805
     44  C         14.5520   39.9980   63.2880 C.2   191  ASP191      0.2597
     45  O         13.5130   40.6390   63.3170 O.2   191  ASP191     -0.2718
     46  CB        16.3690   40.8900   61.8720 C.3   191  ASP191      0.1424
     47  CG        15.7070   42.0460   61.1870 C.2   191  ASP191      0.3668
     48  OD1       15.0110   42.7900   61.8570 O.co2 191  ASP191     -0.2456
     49  OD2       15.9160   42.2070   59.9920 O.co2 191  ASP191     -0.2456
     50  N         14.5700   38.6680   63.2370 N.am  192  LEU192     -0.1979
     51  CA        13.3350   37.9040   63.2150 C.3   192  LEU192      0.1596
     52  C         12.9270   37.4310   64.6140 C.2   192  LEU192      0.2287
     53  O         11.9120   36.7790   64.7090 O.2   192  LEU192     -0.2864
     54  CB        13.5140   36.6740   62.3050 C.3   192  LEU192      0.0297
     55  CG        14.0480   36.8710   60.9010 C.3   192  LEU192      0.0022
     56  CD1       14.0810   35.5260   60.1760 C.3   192  LEU192      0.0001
     57  CD2       13.2680   37.9210   60.1470 C.3   192  LEU192      0.0001
     58  N         11.0540   38.1720   66.9670 N.3   194  SER194     -0.1202
     59  CA         9.6560   38.2680   67.4330 C.3   194  SER194      0.2020
     60  C          8.9850   36.9070   67.3640 C.2   194  SER194      0.2618
     61  O          8.1260   36.6090   68.1790 O.2   194  SER194     -0.2717
     62  CB         8.8380   39.2420   66.5820 C.3   194  SER194      0.2103
     63  OG         8.4530   38.6250   65.3610 O.3   194  SER194     -0.2182
     64  N          9.4060   36.0750   66.4080 N.am  195  VAL195     -0.1979
     65  CA         8.9350   34.6870   66.2650 C.3   195  VAL195      0.1595
     66  C          9.4780   33.7770   67.3890 C.2   195  VAL195      0.2287
     67  O          9.1580   32.6060   67.3710 O.2   195  VAL195     -0.2864
     68  CB         9.3000   34.0630   64.8850 C.3   195  VAL195      0.0276
     69  CG1        8.7860   34.9080   63.7130 C.3   195  VAL195      0.0022
     70  CG2       10.8010   33.7780   64.7680 C.3   195  VAL195      0.0022
     71  N          4.2490   37.1230   70.4500 N.3   202  THR202     -0.1218
     72  CA         4.4490   36.7760   69.0580 C.3   202  THR202      0.1862
     73  C          3.2420   37.1420   68.2080 C.2   202  THR202      0.2287
     74  O          3.4320   37.7310   67.1290 O.2   202  THR202     -0.2866
     75  CB         4.8610   35.3100   68.9280 C.3   202  THR202      0.1770
     76  OG1        6.1200   35.1590   69.5840 O.3   202  THR202     -0.2211
     77  CG2        5.0120   34.8780   67.4740 C.3   202  THR202      0.0375
     78  N          3.0910   40.0820   65.2270 N.3   206  ALA206     -0.1245
     79  CA         2.6480   39.6880   63.8790 C.3   206  ALA206      0.1562
     80  C          1.5700   40.6340   63.3360 C.2   206  ALA206      0.2260
     81  O          1.6290   40.9870   62.1780 O.2   206  ALA206     -0.2867
     82  CB         2.1220   38.2760   63.8840 C.3   206  ALA206      0.0290
     83  N          3.3810   43.6770   62.1370 N.3   209  ILE209     -0.1231
     84  CA         4.1140   43.4030   60.8800 C.3   209  ILE209      0.1692
     85  C          3.1580   43.5230   59.6850 C.2   209  ILE209      0.2592
     86  O          3.4860   44.1770   58.6950 O.2   209  ILE209     -0.2718
     87  CB         4.8280   42.0120   60.9250 C.3   209  ILE209      0.0266
     88  CG1        5.9990   42.0540   61.9470 C.3   209  ILE209      0.0019
     89  CG2        5.3500   41.6220   59.5460 C.3   209  ILE209      0.0020
     90  CD1        6.5990   40.6860   62.3690 C.3   209  ILE209      0.0001
     91  N          1.9700   42.9220   59.8020 N.am  210  TYR210     -0.1976
     92  CA         0.9590   42.9850   58.7500 C.3   210  TYR210      0.1639
     93  C          0.3070   44.3710   58.6290 C.2   210  TYR210      0.2290
     94  O          0.0370   44.8020   57.5150 O.2   210  TYR210     -0.2864
     95  CB        -0.0580   41.8480   58.8940 C.3   210  TYR210      0.0560
     96  CG         0.4790   40.5250   58.3910 C.ar  210  TYR210     -0.0198
     97  CD1        1.0520   39.6060   59.2610 C.ar  210  TYR210     -0.0009
     98  CD2        0.4440   40.2060   57.0390 C.ar  210  TYR210     -0.0009
     99  CE1        1.5700   38.3940   58.7980 C.ar  210  TYR210      0.0417
    100  CE2        0.9770   39.0120   56.5610 C.ar  210  TYR210      0.0417
    101  CZ         1.5050   38.0880   57.4510 C.ar  210  TYR210      0.1957
    102  OH         1.9820   36.8780   57.0150 O.3   210  TYR210     -0.2866
    103  N          2.6510   45.9630   56.2700 N.3   213  PHE213     -0.1241
    104  CA         2.5490   45.3400   54.9470 C.3   213  PHE213      0.1605
    105  C          1.2760   45.7840   54.2280 C.2   213  PHE213      0.2264
    106  O          1.3290   46.1250   53.0610 O.2   213  PHE213     -0.2867
    107  CB         2.5410   43.8020   55.0620 C.3   213  PHE213      0.0534
    108  CG         3.8160   43.0950   55.4550 C.ar  213  PHE213     -0.0203
    109  CD1        5.0510   43.7170   55.3180 C.ar  213  PHE213     -0.0042
    110  CD2        3.7960   41.7570   55.8200 C.ar  213  PHE213     -0.0042
    111  CE1        6.2310   43.0440   55.6630 C.ar  213  PHE213     -0.0003
    112  CE2        4.9730   41.0820   56.1370 C.ar  213  PHE213     -0.0003
    113  CZ         6.1840   41.7290   56.0600 C.ar  213  PHE213     -0.0000
    114  N          1.0280   41.8760   46.2030 N.3   220  ILE220     -0.1245
    115  CA         1.1030   40.4310   46.4730 C.3   220  ILE220      0.1561
    116  C          0.1860   40.1340   47.6940 C.2   220  ILE220      0.2260
    117  O         -0.0890   41.0570   48.4710 O.2   220  ILE220     -0.2867
    118  CB         2.5650   39.9030   46.7070 C.3   220  ILE220      0.0252
    119  CG1        3.1900   40.4640   48.0110 C.3   220  ILE220      0.0019
    120  CG2        3.4640   40.1960   45.4960 C.3   220  ILE220      0.0019
    121  CD1        4.5380   39.8260   48.3710 C.3   220  ILE220      0.0001
    122  N          0.5220   38.8620   50.6930 N.3   222  MET222     -0.1230
    123  CA         1.1630   39.2480   51.9500 C.3   222  MET222      0.1702
    124  C          0.8410   40.7120   52.3490 C.2   222  MET222      0.2592
    125  O          0.5590   40.9990   53.5210 O.2   222  MET222     -0.2718
    126  CB         2.6740   39.1170   51.7620 C.3   222  MET222      0.0401
    127  CG         3.4700   39.0960   53.0390 C.3   222  MET222      0.0596
    128  SD         5.2100   39.3070   52.5780 S.3   222  MET222     -0.1393
    129  CE         5.9310   38.7670   53.8830 C.3   222  MET222      0.0692
    130  N          0.8420   41.6110   51.3530 N.am  223  MET223     -0.1979
    131  CA         0.6210   43.0510   51.5260 C.3   223  MET223      0.1605
    132  C         -0.7900   43.4860   51.1560 C.2   223  MET223      0.2287
    133  O         -1.0460   44.6850   51.0860 O.2   223  MET223     -0.2864
    134  CB         1.6480   43.7980   50.6680 C.3   223  MET223      0.0413
    135  CG         3.0600   43.3340   50.9160 C.3   223  MET223      0.0598
    136  SD         4.2540   44.3140   50.0010 S.3   223  MET223     -0.1393
    137  CE         5.7180   43.9390   50.9690 C.3   223  MET223      0.0692
    138  N          0.5240   32.0030   55.7380 N.3   233  GLY233     -0.1210
    139  CA         1.7210   32.7710   55.4090 C.3   233  GLY233      0.1956
    140  C          2.7290   32.7000   56.5280 C.2   233  GLY233      0.2611
    141  O          3.9240   32.5180   56.2760 O.2   233  GLY233     -0.2717
    142  N          2.2470   32.7780   57.7870 N.am  234  GLN234     -0.1979
    143  CA         3.1130   32.6120   58.9640 C.3   234  GLN234      0.1601
    144  C          3.7400   31.2180   58.9990 C.2   234  GLN234      0.2287
    145  O          4.9600   31.1130   59.0620 O.2   234  GLN234     -0.2864
    146  CB         2.3510   32.9400   60.2690 C.3   234  GLN234      0.0394
    147  CG         2.1290   34.4300   60.4280 C.3   234  GLN234      0.0908
    148  CD         3.4470   35.1460   60.6100 C.2   234  GLN234      0.2608
    149  OE1        4.0870   35.0020   61.6440 O.2   234  GLN234     -0.2717
    150  NE2        3.9560   35.8080   59.5610 N.am  234  GLN234     -0.0878
    151  N          6.4220   31.0920   56.2910 N.3   237  PHE237     -0.1241
    152  CA         7.5930   31.8630   56.6650 C.3   237  PHE237      0.1605
    153  C          8.4700   31.1670   57.7650 C.2   237  PHE237      0.2264
    154  O          9.7160   31.1920   57.6930 O.2   237  PHE237     -0.2867
    155  CB         7.1720   33.2830   57.0570 C.3   237  PHE237      0.0534
    156  CG         8.3170   34.1390   57.5270 C.ar  237  PHE237     -0.0203
    157  CD1        9.0420   34.9050   56.6300 C.ar  237  PHE237     -0.0042
    158  CD2        8.7230   34.1180   58.8580 C.ar  237  PHE237     -0.0042
    159  CE1       10.0880   35.7130   57.0720 C.ar  237  PHE237     -0.0003
    160  CE2        9.8020   34.8840   59.2850 C.ar  237  PHE237     -0.0003
    161  CZ        10.4650   35.6930   58.3950 C.ar  237  PHE237     -0.0000
    162  N         11.9650   30.1940   56.4620 N.3   241  VAL241     -0.1245
    163  CA        12.9290   31.1830   56.8900 C.3   241  VAL241      0.1561
    164  C         13.3540   31.0000   58.3080 C.2   241  VAL241      0.2260
    165  O         14.5500   30.8450   58.5620 O.2   241  VAL241     -0.2867
    166  CB        12.3650   32.6090   56.6430 C.3   241  VAL241      0.0252
    167  CG1       13.3980   33.6670   56.9910 C.3   241  VAL241      0.0019
    168  CG2       11.8960   32.7570   55.1790 C.3   241  VAL241      0.0019
@<TRIPOS>BOND
     1   120   118    1
     2   114   115    1
     3   115   118    1
     4   115   116    1
     5   118   119    1
     6   116   117    2
     7   119   121    1
     8   136   135    1
     9   136   137    1
    10   134   135    1
    11   134   131    1
    12    35    36    1
    13    35    32    1
    14   122   123    1
    15    38    36   ar
    16    38    40   ar
    17   133   132    2
    18    36    37   ar
    19   132   131    1
    20   130   131    1
    21   130   124   am
    22    33    34    2
    23    33    32    1
    24    40    41   ar
    25   126   123    1
    26   126   127    1
    27    37    39   ar
    28    32    31    1
    29   123   124    1
    30    41    39   ar
    31   124   125    2
    32   128   127    1
    33   128   129    1
    34    25    26    2
    35    25    24    1
    36   106   105    2
    37    24    23    1
    38    24    27    1
    39   105   104    1
    40    27    28    1
    41   104   107    1
    42   104   103    1
    43    28    30    1
    44    28    29    1
    45   107   108    1
    46   168   166    1
    47   109   108   ar
    48   109   111   ar
    49   139   138    1
    50   139   140    1
    51   108   110   ar
    52   111   113   ar
    53   110   112   ar
    54   113   112   ar
    55   141   140    2
    56   151   152    1
    57   162   163    1
    58   140   142   am
    59   100    98   ar
    60   100   101   ar
    61   157   159   ar
    62   157   156   ar
    63   166   163    1
    64   166   167    1
    65   152   155    1
    66   152   153    1
    67   163   164    1
    68   102   101    1
    69    98    96   ar
    70   155   156    1
    71   159   161   ar
    72   101    99   ar
    73    94    93    2
    74   156   158   ar
    75   154   153    2
    76   142   143    1
    77   164   165    2
    78    21    19   ar
    79    21    22   ar
    80    96    95    1
    81    96    97   ar
    82   161   160   ar
    83    93    92    1
    84    86    85    2
    85    92    95    1
    86    92    91    1
    87    19    18   ar
    88    99    97   ar
    89   158   160   ar
    90    22    20   ar
    91   143   144    1
    92   143   146    1
    93   144   145    2
    94    89    87    1
    95   150   148   am
    96    85    91   am
    97    85    84    1
    98    18    20   ar
    99    18    17    1
   100    49    47   ar
   101    57    55    1
   102    56    55    1
   103   146   147    1
   104   147   148    1
   105    17    14    1
   106   148   149    2
   107    84    87    1
   108    84    83    1
   109    55    54    1
   110    87    88    1
   111    47    48   ar
   112    47    46    1
   113     8    10   ar
   114     8     6   ar
   115    10    11   ar
   116    46    43    1
   117    88    90    1
   118    14    13    1
   119    14    15    1
   120    13     3   am
   121     5     6    1
   122     5     2    1
   123    81    80    2
   124    16    15    2
   125    54    51    1
   126     6     7   ar
   127     1     2    1
   128    11    12    1
   129    11     9   ar
   130     2     3    1
   131     3     4    2
   132    51    50    1
   133    51    52    1
   134    50    44   am
   135    44    45    2
   136    44    43    1
   137    43    42    1
   138    80    79    1
   139     7     9   ar
   140    69    68    1
   141    79    82    1
   142    79    78    1
   143    52    53    2
   144    70    68    1
   145    68    65    1
   146    63    62    1
   147    65    64    1
   148    65    66    1
   149    64    60   am
   150    62    59    1
   151    58    59    1
   152    74    73    2
   153    60    59    1
   154    60    61    2
   155    67    66    2
   156    77    75    1
   157    73    72    1
   158    75    72    1
   159    75    76    1
   160    72    71    1
