@<TRIPOS>MOLECULE
tmp/4dfgA00.pdb
 121 113 0 0 0
SMALL
GASTEIGER

@<TRIPOS>ATOM
      1  N          2.7010   23.9880   17.3000 N.3     8  ARG8       -0.1245
      2  CA         3.9070   24.6070   16.7930 C.3     8  ARG8        0.1563
      3  C          3.6180   26.0300   16.3270 C.2     8  ARG8        0.2260
      4  O          2.6320   26.2280   15.6010 O.2     8  ARG8       -0.2867
      5  CB         4.4680   23.8130   15.6020 C.3     8  ARG8        0.0307
      6  CG         5.0400   22.4560   16.0030 C.3     8  ARG8        0.0489
      7  CD         5.5410   21.6610   14.8280 C.3     8  ARG8        0.2205
      8  NE         6.0000   20.3620   15.2840 N.pl3   8  ARG8       -0.0865
      9  CZ         6.1770   19.2910   14.5420 C.cat   8  ARG8        0.5346
     10  NH1        6.6100   18.1780   15.1180 N.pl3   8  ARG8        0.1354
     11  NH2        5.9090   19.3660   13.2320 N.pl3   8  ARG8        0.1354
     12  N          8.8930   28.1840   11.5400 N.3    23  LEU23      -0.1245
     13  CA         8.7200   28.0570   12.9540 C.3    23  LEU23       0.1561
     14  C          9.3620   29.2070   13.6940 C.2    23  LEU23       0.2260
     15  O         10.5470   29.4700   13.4950 O.2    23  LEU23      -0.2867
     16  CB         9.3680   26.7130   13.3270 C.3    23  LEU23       0.0270
     17  CG         9.2670   26.1590   14.6920 C.3    23  LEU23       0.0019
     18  CD1        7.8340   25.7850   14.9800 C.3    23  LEU23       0.0001
     19  CD2       10.1840   24.9170   14.7880 C.3    23  LEU23       0.0001
     20  N         11.2230   30.2430   16.5580 N.3    25  ASP25      -0.1239
     21  CA        12.0730   29.3620   17.3410 C.3    25  ASP25       0.1674
     22  C         12.9890   30.1160   18.3120 C.2    25  ASP25       0.2266
     23  O         14.0890   30.4940   17.9020 O.2    25  ASP25      -0.2867
     24  CB        12.8710   28.5140   16.3610 C.3    25  ASP25       0.1410
     25  CG        13.5160   27.3290   17.0480 C.2    25  ASP25       0.3668
     26  OD1       13.5410   27.3510   18.2970 O.co2  25  ASP25      -0.2456
     27  OD2       13.9950   26.4110   16.3710 O.co2  25  ASP25      -0.2456
     28  N         14.7440   28.9470   20.6520 N.3    27  GLY27      -0.1210
     29  CA        15.9350   28.1480   20.9020 C.3    27  GLY27       0.1956
     30  C         16.9480   28.1620   19.7980 C.2    27  GLY27       0.2612
     31  O         18.0120   27.5430   19.9270 O.2    27  GLY27      -0.2717
     32  N         16.6670   28.8890   18.7140 N.am   28  ALA28      -0.1965
     33  CA        17.5830   29.0190   17.5710 C.3    28  ALA28       0.1728
     34  C         18.2790   30.3560   17.6090 C.2    28  ALA28       0.2616
     35  O         17.6230   31.4090   17.6380 O.2    28  ALA28      -0.2715
     36  CB        16.8100   28.8810   16.2790 C.3    28  ALA28       0.0334
     37  N         19.6100   30.4010   17.6190 N.am   29  ASP29      -0.1957
     38  CA        20.3030   31.6610   17.5700 C.3    29  ASP29       0.1840
     39  C         20.1300   32.3540   16.2290 C.2    29  ASP29       0.2622
     40  O         20.0750   33.6020   16.1550 O.2    29  ASP29      -0.2715
     41  CB        21.8190   31.4220   17.7860 C.3    29  ASP29       0.1450
     42  CG        22.1920   30.7780   19.1120 C.2    29  ASP29       0.3671
     43  OD1       21.5040   30.9270   20.1210 O.co2  29  ASP29      -0.2456
     44  OD2       23.3060   30.1700   19.1410 O.co2  29  ASP29      -0.2456
     45  N         20.1080   31.5650   15.1720 N.am   30  ASP30      -0.1971
     46  CA        20.0830   32.0860   13.8240 C.3    30  ASP30       0.1709
     47  C         18.8540   31.5160   13.1060 C.2    30  ASP30       0.2293
     48  O         18.1770   30.6030   13.5740 O.2    30  ASP30      -0.2864
     49  CB        21.3580   31.7570   13.0560 C.3    30  ASP30       0.1436
     50  CG        22.6810   32.1910   13.6310 C.2    30  ASP30       0.3671
     51  OD1       22.7270   33.0430   14.5300 O.co2  30  ASP30      -0.2456
     52  OD2       23.7520   31.6620   13.2210 O.co2  30  ASP30      -0.2456
     53  N         17.3670   29.6470    9.8120 N.3    32  VAL32      -0.1245
     54  CA        17.8500   28.6210    8.9190 C.3    32  VAL32       0.1561
     55  C         16.6720   28.2040    8.0190 C.2    32  VAL32       0.2260
     56  O         15.6090   27.8160    8.5140 O.2    32  VAL32      -0.2867
     57  CB        18.3500   27.3800    9.6990 C.3    32  VAL32       0.0252
     58  CG1       19.0860   26.4790    8.7330 C.3    32  VAL32       0.0019
     59  CG2       19.2210   27.7720   10.8940 C.3    32  VAL32       0.0019
     60  N         29.2720   27.8400    6.4260 N.3    45  LYS45      -0.1245
     61  CA        29.2230   27.7820    7.8810 C.3    45  LYS45       0.1561
     62  C         28.7360   26.4180    8.2990 C.2    45  LYS45       0.2260
     63  O         28.0160   25.7480    7.5280 O.2    45  LYS45      -0.2867
     64  CB        28.2280   28.8530    8.3770 C.3    45  LYS45       0.0271
     65  CG        28.1080   29.0790    9.8510 C.3    45  LYS45       0.0035
     66  CD        27.1190   30.1720   10.1570 C.3    45  LYS45       0.0206
     67  CE        26.7960   30.4020   11.6300 C.3    45  LYS45       0.1093
     68  NZ        27.9150   31.1080   12.2350 N.3    45  LYS45      -0.1314
     69  N         26.5670   24.5760   11.4340 N.3    47  ILE47      -0.1231
     70  CA        25.7250   24.8020   12.6020 C.3    47  ILE47       0.1692
     71  C         25.3080   23.4530   13.1870 C.2    47  ILE47       0.2593
     72  O         25.1140   22.4800   12.4660 O.2    47  ILE47      -0.2718
     73  CB        24.5250   25.7040   12.3390 C.3    47  ILE47       0.0266
     74  CG1       23.5840   25.0670   11.3130 C.3    47  ILE47       0.0019
     75  CG2       24.9500   27.1080   11.9480 C.3    47  ILE47       0.0020
     76  CD1       22.2870   25.8480   11.1810 C.3    47  ILE47       0.0001
     77  N         25.1930   23.4060   14.4920 N.am   48  GLY48      -0.1942
     78  CA        24.9430   22.1310   15.1350 C.3    48  GLY48       0.2014
     79  C         23.7750   22.1990   16.0540 C.2    48  GLY48       0.2639
     80  O         23.4340   23.2000   16.6680 O.2    48  GLY48      -0.2714
     81  N         23.1350   21.0690   16.2380 N.am   49  GLY49      -0.1939
     82  CA        22.0090   20.9790   17.1170 C.3    49  GLY49       0.2014
     83  C         21.7970   19.5020   17.4840 C.2    49  GLY49       0.2638
     84  O         22.7890   18.7770   17.4670 O.2    49  GLY49      -0.2714
     85  N         20.5710   19.1490   17.8080 N.am   50  ILE50      -0.1977
     86  CA        20.3780   17.7380   18.0760 C.3    50  ILE50       0.1596
     87  C         20.6230   16.9820   16.7960 C.2    50  ILE50       0.2287
     88  O         20.1310   17.3950   15.7780 O.2    50  ILE50      -0.2864
     89  CB        19.0030   17.5220   18.6870 C.3    50  ILE50       0.0276
     90  CG1       18.9710   18.0550   20.1250 C.3    50  ILE50       0.0022
     91  CG2       18.6160   16.0450   18.7040 C.3    50  ILE50       0.0022
     92  CD1       17.5800   18.1480   20.7100 C.3    50  ILE50       0.0001
     93  N         18.0790   21.9140    6.4570 N.3    80  THR80      -0.1204
     94  CA        17.3400   21.9110    7.6930 C.3    80  THR80       0.1979
     95  C         16.0180   21.1710    7.4980 C.2    80  THR80       0.2460
     96  O         15.3780   21.3470    6.4510 O.2    80  THR80      -0.2732
     97  CB        17.1110   23.3280    8.2320 C.3    80  THR80       0.1783
     98  OG1       16.3040   23.1930    9.4030 O.3    80  THR80      -0.2211
     99  CG2       16.3900   24.2410    7.2590 C.3    80  THR80       0.0376
    100  N         15.5720   20.3290    8.4120 N.am   81  PRO81      -0.2717
    101  CA        14.2610   19.6930    8.2860 C.3    81  PRO81       0.1535
    102  C         13.0790   20.6510    8.2570 C.2    81  PRO81       0.2598
    103  O         12.0650   20.3480    7.6360 O.2    81  PRO81      -0.2715
    104  CB        14.1650   18.8510    9.5790 C.3    81  PRO81       0.0310
    105  CG        15.5700   18.5640    9.9450 C.3    81  PRO81       0.0237
    106  CD        16.3060   19.8310    9.5920 C.3    81  PRO81       0.0939
    107  N         13.1880   21.7700    8.9320 N.am   82  VAL82      -0.1978
    108  CA        12.1250   22.7510    9.1620 C.3    82  VAL82       0.1596
    109  C         12.7040   24.1170    8.8920 C.2    82  VAL82       0.2287
    110  O         13.8490   24.3710    9.2660 O.2    82  VAL82      -0.2864
    111  CB        11.6050   22.6430   10.6180 C.3    82  VAL82       0.0276
    112  CG1       10.5320   23.6390   11.0250 C.3    82  VAL82       0.0022
    113  CG2       11.0220   21.2310   10.8480 C.3    82  VAL82       0.0022
    114  N         13.2700   27.6830   10.1290 N.3    84  ILE84      -0.1245
    115  CA        13.3750   28.2310   11.4780 C.3    84  ILE84       0.1561
    116  C         13.6440   29.7140   11.4800 C.2    84  ILE84       0.2260
    117  O         14.6550   30.1260   10.8840 O.2    84  ILE84      -0.2867
    118  CB        14.5090   27.5270   12.2110 C.3    84  ILE84       0.0252
    119  CG1       14.2280   26.0390   12.4550 C.3    84  ILE84       0.0019
    120  CG2       14.8170   28.2750   13.4980 C.3    84  ILE84       0.0019
    121  CD1       15.4980   25.2210   12.4960 C.3    84  ILE84       0.0001
@<TRIPOS>BOND
     1    60    61    1
     2    96    95    2
     3    93    94    1
     4    99    97    1
     5    95    94    1
     6    95   100   am
     7    63    62    2
     8   103   102    2
     9    94    97    1
    10    61    62    1
    11    61    64    1
    12    55    56    2
    13    55    54    1
    14    97    98    1
    15   102   101    1
    16   102   107   am
    17   101   100    1
    18   101   104    1
    19    64    65    1
    20   100   106    1
    21    58    57    1
    22   109   108    1
    23   109   110    2
    24    54    57    1
    25    54    53    1
    26   107   108    1
    27   108   111    1
    28   104   105    1
    29   106   105    1
    30    57    59    1
    31    65    66    1
    32   114   115    1
    33    66    67    1
    34   111   113    1
    35   111   112    1
    36   117   116    2
    37    76    74    1
    38    74    73    1
    39    69    70    1
    40   115   116    1
    41   115   118    1
    42    12    13    1
    43    67    68    1
    44    75    73    1
    45   118   119    1
    46   118   120    1
    47    73    70    1
    48   119   121    1
    49    72    71    2
    50    70    71    1
    51    13    16    1
    52    13    14    1
    53    49    50    1
    54    49    46    1
    55    47    48    2
    56    47    46    1
    57    71    77   am
    58    52    50   ar
    59    11     9    1
    60    16    17    1
    61    15    14    2
    62    50    51   ar
    63    46    45    1
    64    77    78    1
    65     9    10    1
    66     9     8    2
    67    17    19    1
    68    17    18    1
    69     7     8    1
    70     7     6    1
    71    78    79    1
    72    45    39   am
    73     4     3    2
    74     5     6    1
    75     5     2    1
    76    88    87    2
    77    79    81   am
    78    79    80    2
    79    40    39    2
    80    39    38    1
    81    81    82    1
    82    36    33    1
    83     3     2    1
    84    24    25    1
    85    24    21    1
    86    27    25   ar
    87    20    21    1
    88     2     1    1
    89    87    86    1
    90    25    26   ar
    91    82    83    1
    92    21    22    1
    93    84    83    2
    94    83    85   am
    95    38    37    1
    96    38    41    1
    97    33    34    1
    98    33    32    1
    99    34    37   am
   100    34    35    2
   101    41    42    1
   102    85    86    1
   103    23    22    2
   104    86    89    1
   105    89    91    1
   106    89    90    1
   107    32    30   am
   108    42    44   ar
   109    42    43   ar
   110    30    31    2
   111    30    29    1
   112    90    92    1
   113    28    29    1
