@<TRIPOS>MOLECULE
tmp/4dfkA00.pdb
 237 229 0 0 0
SMALL
GASTEIGER

@<TRIPOS>ATOM
      1  N         24.0950  -30.0600  -10.9830 N.3   280  ARG280     -0.1245
      2  CA        24.8110  -28.8380  -11.3540 C.3   280  ARG280      0.1563
      3  C         26.2850  -29.1580  -11.5790 C.2   280  ARG280      0.2260
      4  O         26.8240  -30.1110  -10.9990 O.2   280  ARG280     -0.2867
      5  CB        24.7060  -27.7990  -10.2400 C.3   280  ARG280      0.0307
      6  CG        23.5180  -26.8760  -10.3590 C.3   280  ARG280      0.0489
      7  CD        23.6280  -25.7760   -9.3330 C.3   280  ARG280      0.2205
      8  NE        22.6080  -24.7460   -9.5170 N.pl3 280  ARG280     -0.0865
      9  CZ        22.5670  -23.6280   -8.8060 C.cat 280  ARG280      0.5346
     10  NH1       23.4870  -23.4020   -7.8830 N.pl3 280  ARG280      0.1354
     11  NH2       21.6210  -22.7210   -9.0280 N.pl3 280  ARG280      0.1354
     12  N         27.6230   -8.1690   -6.9380 N.3   294  ARG294     -0.1245
     13  CA        26.5980   -7.4370   -6.2010 C.3   294  ARG294      0.1563
     14  C         26.9780   -5.9990   -5.8170 C.2   294  ARG294      0.2260
     15  O         26.2310   -5.0570   -6.0960 O.2   294  ARG294     -0.2867
     16  CB        26.1900   -8.1980   -4.9470 C.3   294  ARG294      0.0307
     17  CG        25.2930   -7.3650   -4.0650 C.3   294  ARG294      0.0489
     18  CD        25.0280   -8.0250   -2.7370 C.3   294  ARG294      0.2205
     19  NE        24.3970   -7.0680   -1.8370 N.pl3 294  ARG294     -0.0865
     20  CZ        23.9600   -7.3600   -0.6190 C.cat 294  ARG294      0.5346
     21  NH1       24.0790   -8.5970   -0.1500 N.pl3 294  ARG294      0.1354
     22  NH2       23.3960   -6.4110    0.1220 N.pl3 294  ARG294      0.1354
     23  N         21.6790  -15.5120  -20.1300 N.3   317  ASP317     -0.1225
     24  CA        21.1880  -15.9470  -18.8190 C.3   317  ASP317      0.1805
     25  C         19.7000  -16.3010  -18.9020 C.2   317  ASP317      0.2598
     26  O         18.8950  -15.4750  -19.3250 O.2   317  ASP317     -0.2718
     27  CB        21.4260  -14.8220  -17.7970 C.3   317  ASP317      0.1424
     28  CG        21.1710  -15.2570  -16.3620 C.2   317  ASP317      0.3668
     29  OD1       20.0810  -15.8010  -16.0880 O.co2 317  ASP317     -0.2456
     30  OD2       22.0650  -15.0410  -15.5070 O.co2 317  ASP317     -0.2456
     31  N         19.3320  -17.5220  -18.5100 N.am  318  TYR318     -0.1962
     32  CA        17.9180  -17.9120  -18.5150 C.3   318  TYR318      0.1771
     33  C         17.1220  -17.0440  -17.5450 C.2   318  TYR318      0.2620
     34  O         17.5210  -16.8510  -16.4080 O.2   318  TYR318     -0.2715
     35  CB        17.7270  -19.3910  -18.1340 C.3   318  TYR318      0.0574
     36  CG        18.0010  -20.3840  -19.2480 C.ar  318  TYR318     -0.0198
     37  CD1       17.0640  -20.6320  -20.2500 C.ar  318  TYR318     -0.0009
     38  CD2       19.1850  -21.1190  -19.2610 C.ar  318  TYR318     -0.0009
     39  CE1       17.3310  -21.5740  -21.2750 C.ar  318  TYR318      0.0417
     40  CE2       19.4520  -22.0460  -20.2570 C.ar  318  TYR318      0.0417
     41  CZ        18.5200  -22.2730  -21.2550 C.ar  318  TYR318      0.1957
     42  OH        18.8000  -23.2040  -22.2300 O.3   318  TYR318     -0.2866
     43  N         16.0010  -16.5160  -18.0150 N.am  319  SER319     -0.1936
     44  CA        15.1100  -15.7080  -17.1870 C.3   319  SER319      0.2055
     45  C         14.2920  -16.5610  -16.1930 C.2   319  SER319      0.2643
     46  O         13.6710  -17.5470  -16.5890 O.2   319  SER319     -0.2714
     47  CB        14.1910  -14.9110  -18.1170 C.3   319  SER319      0.2130
     48  OG        13.0260  -14.4630  -17.4570 O.3   319  SER319     -0.2179
     49  N         14.3050  -16.1730  -14.9140 N.am  320  GLN320     -0.1963
     50  CA        13.4860  -16.8030  -13.8670 C.3   320  GLN320      0.1733
     51  C         13.4590  -18.3360  -13.9680 C.2   320  GLN320      0.2616
     52  O         12.3980  -18.9560  -13.8670 O.2   320  GLN320     -0.2715
     53  CB        12.0550  -16.2530  -13.9380 C.3   320  GLN320      0.0408
     54  CG        11.9540  -14.7200  -13.9930 C.3   320  GLN320      0.0908
     55  CD        10.5140  -14.2150  -14.1740 C.2   320  GLN320      0.2608
     56  OE1        9.7200  -14.2190  -13.2340 O.2   320  GLN320     -0.2717
     57  NE2       10.1780  -13.7880  -15.3900 N.am  320  GLN320     -0.0878
     58  N         14.6170  -18.9480  -14.1910 N.am  321  ILE321     -0.1963
     59  CA        14.6340  -20.3170  -14.7220 C.3   321  ILE321      0.1727
     60  C         13.9960  -21.3670  -13.8070 C.2   321  ILE321      0.2616
     61  O         13.2050  -22.1900  -14.2710 O.2   321  ILE321     -0.2715
     62  CB        16.0510  -20.7660  -15.1830 C.3   321  ILE321      0.0290
     63  CG1       15.9770  -22.1140  -15.9080 C.3   321  ILE321      0.0022
     64  CG2       17.0060  -20.8630  -13.9930 C.3   321  ILE321      0.0023
     65  CD1       14.9970  -22.1440  -17.0750 C.3   321  ILE321      0.0001
     66  N         14.3000  -21.3300  -12.5150 N.am  322  GLU322     -0.1977
     67  CA        13.7490  -22.3480  -11.6360 C.3   322  GLU322      0.1602
     68  C         12.2460  -22.1760  -11.4290 C.2   322  GLU322      0.2287
     69  O         11.5420  -23.1540  -11.1820 O.2   322  GLU322     -0.2864
     70  CB        14.5440  -22.4690  -10.3280 C.3   322  GLU322      0.0415
     71  CG        15.8420  -23.2490  -10.5770 C.3   322  GLU322      0.1163
     72  CD        16.6900  -23.4700   -9.3410 C.2   322  GLU322      0.3649
     73  OE1       16.1310  -23.4930   -8.2290 O.co2 322  GLU322     -0.2457
     74  OE2       17.9200  -23.6260   -9.5000 O.co2 322  GLU322     -0.2457
     75  N         10.0780  -11.8420  -10.0030 N.3   346  HIS346     -0.1241
     76  CA        11.1330  -11.1410   -9.2740 C.3   346  HIS346      0.1621
     77  C         10.8430   -9.6360   -9.1980 C.2   346  HIS346      0.2264
     78  O         10.9570   -9.0240   -8.1310 O.2   346  HIS346     -0.2867
     79  CB        12.5000  -11.4040   -9.9130 C.3   346  HIS346      0.0745
     80  CG        12.9120  -12.8440   -9.8830 C.ar  346  HIS346      0.0817
     81  ND1       12.6210  -13.6830   -8.8270 N.ar  346  HIS346     -0.2268
     82  CD2       13.6000  -13.5910  -10.7800 C.ar  346  HIS346      0.1154
     83  CE1       13.1170  -14.8850   -9.0750 C.ar  346  HIS346      0.1986
     84  NE2       13.7180  -14.8540  -10.2530 N.ar  346  HIS346     -0.2212
     85  N          8.3720   -5.3230   -1.9290 N.3   353  MET353     -0.1230
     86  CA         9.4160   -5.1860   -0.9130 C.3   353  MET353      0.1702
     87  C          9.7810   -3.7380   -0.6450 C.2   353  MET353      0.2592
     88  O          9.8740   -3.3090    0.5080 O.2   353  MET353     -0.2718
     89  CB        10.6840   -5.9190   -1.3490 C.3   353  MET353      0.0401
     90  CG        10.6200   -7.4200   -1.2240 C.3   353  MET353      0.0596
     91  SD        12.0810   -8.1710   -1.9520 S.3   353  MET353     -0.1393
     92  CE        13.3700   -7.5960   -0.8410 C.3   353  MET353      0.0692
     93  N         10.0040   -2.9910   -1.7200 N.am  354  PHE354     -0.1976
     94  CA        10.4620   -1.6170   -1.5900 C.3   354  PHE354      0.1639
     95  C          9.3220   -0.6060   -1.6900 C.2   354  PHE354      0.2290
     96  O          9.5380    0.5980   -1.5510 O.2   354  PHE354     -0.2864
     97  CB        11.5640   -1.3360   -2.6100 C.3   354  PHE354      0.0560
     98  CG        12.7820   -2.1970   -2.4220 C.ar  354  PHE354     -0.0200
     99  CD1       13.7570   -1.8460   -1.5020 C.ar  354  PHE354     -0.0042
    100  CD2       12.9410   -3.3700   -3.1450 C.ar  354  PHE354     -0.0042
    101  CE1       14.8770   -2.6370   -1.3170 C.ar  354  PHE354     -0.0003
    102  CE2       14.0610   -4.1690   -2.9640 C.ar  354  PHE354     -0.0003
    103  CZ        15.0300   -3.8020   -2.0510 C.ar  354  PHE354     -0.0000
    104  N         14.8920   -1.1370   -9.5810 N.3   362  ASP362     -0.1239
    105  CA        16.2200   -1.1690  -10.1930 C.3   362  ASP362      0.1674
    106  C         16.8390   -2.5710  -10.0740 C.2   362  ASP362      0.2266
    107  O         16.3130   -3.4130   -9.3440 O.2   362  ASP362     -0.2867
    108  CB        17.1310   -0.0660   -9.6090 C.3   362  ASP362      0.1410
    109  CG        17.4390   -0.2530   -8.1250 C.2   362  ASP362      0.3668
    110  OD1       17.6480   -1.4000   -7.6730 O.co2 362  ASP362     -0.2456
    111  OD2       17.4960    0.7710   -7.4040 O.co2 362  ASP362     -0.2456
    112  N         19.4810   -3.8350   -8.4740 N.3   364  LEU364     -0.1231
    113  CA        19.8250   -4.3020   -7.1330 C.3   364  LEU364      0.1693
    114  C         18.5710   -4.7560   -6.3850 C.2   364  LEU364      0.2592
    115  O         18.5870   -5.7780   -5.6990 O.2   364  LEU364     -0.2718
    116  CB        20.5730   -3.2270   -6.3340 C.3   364  LEU364      0.0284
    117  CG        20.9740   -3.5980   -4.9010 C.3   364  LEU364      0.0019
    118  CD1       21.7930   -4.8860   -4.8720 C.3   364  LEU364      0.0001
    119  CD2       21.7450   -2.4590   -4.2400 C.3   364  LEU364      0.0001
    120  N         17.4900   -3.9950   -6.5310 N.am  365  MET365     -0.1965
    121  CA        16.2060   -4.3400   -5.9190 C.3   365  MET365      0.1736
    122  C         15.6980   -5.6930   -6.4040 C.2   365  MET365      0.2616
    123  O         15.1590   -6.4830   -5.6270 O.2   365  MET365     -0.2715
    124  CB        15.1630   -3.2720   -6.2370 C.3   365  MET365      0.0427
    125  CG        15.3520   -1.9680   -5.4880 C.3   365  MET365      0.0599
    126  SD        14.2240   -0.7040   -6.1100 S.3   365  MET365     -0.1393
    127  CE        12.6630   -1.5670   -5.9990 C.3   365  MET365      0.0692
    128  N         15.8630   -5.9500   -7.6970 N.am  366  ARG366     -0.1963
    129  CA        15.4320   -7.2210   -8.2610 C.3   366  ARG366      0.1729
    130  C         16.2830   -8.3800   -7.7400 C.2   366  ARG366      0.2616
    131  O         15.7680   -9.4720   -7.4830 O.2   366  ARG366     -0.2715
    132  CB        15.4460   -7.1670   -9.7840 C.3   366  ARG366      0.0348
    133  CG        14.6670   -8.2920  -10.4380 C.3   366  ARG366      0.0492
    134  CD        14.4230   -8.0190  -11.9140 C.3   366  ARG366      0.2205
    135  NE        13.8730   -9.1900  -12.5930 N.pl3 366  ARG366     -0.0865
    136  CZ        14.5880  -10.2660  -12.9080 C.cat 366  ARG366      0.5346
    137  NH1       15.8780  -10.3270  -12.5960 N.pl3 366  ARG366      0.1354
    138  NH2       14.0140  -11.2870  -13.5250 N.pl3 366  ARG366      0.1354
    139  N         17.5850   -8.1470   -7.5880 N.am  367  ARG367     -0.1963
    140  CA        18.4570   -9.1450   -6.9710 C.3   367  ARG367      0.1729
    141  C         17.9770   -9.4800   -5.5670 C.2   367  ARG367      0.2616
    142  O         17.9130  -10.6480   -5.1810 O.2   367  ARG367     -0.2715
    143  CB        19.9030   -8.6530   -6.9110 C.3   367  ARG367      0.0348
    144  CG        20.6560   -8.7770   -8.2200 C.3   367  ARG367      0.0492
    145  CD        22.1100   -8.3580   -8.0470 C.3   367  ARG367      0.2205
    146  NE        22.8780   -9.2740   -7.2000 N.pl3 367  ARG367     -0.0865
    147  CZ        23.4220  -10.4140   -7.6290 C.cat 367  ARG367      0.5346
    148  NH1       24.1130  -11.1810   -6.8010 N.pl3 367  ARG367      0.1354
    149  NH2       23.2700  -10.7930   -8.8900 N.pl3 367  ARG367      0.1354
    150  N         17.6460   -8.4440   -4.8000 N.am  368  ALA368     -0.1977
    151  CA        17.1250   -8.6390   -3.4560 C.3   368  ALA368      0.1597
    152  C         15.8820   -9.5290   -3.4870 C.2   368  ALA368      0.2287
    153  O         15.7130  -10.4000   -2.6370 O.2   368  ALA368     -0.2864
    154  CB        16.8130   -7.2970   -2.8150 C.3   368  ALA368      0.0319
    155  N         15.0970  -11.8080   -5.7160 N.3   370  LYS370     -0.1231
    156  CA        15.4230  -13.1870   -6.0830 C.3   370  LYS370      0.1693
    157  C         15.7790  -13.9890   -4.8300 C.2   370  LYS370      0.2592
    158  O         15.3540  -15.1350   -4.6680 O.2   370  LYS370     -0.2718
    159  CB        16.5420  -13.2380   -7.1330 C.3   370  LYS370      0.0285
    160  CG        16.1190  -12.6790   -8.4970 C.3   370  LYS370      0.0035
    161  CD        17.0300  -13.1200   -9.6490 C.3   370  LYS370      0.0206
    162  CE        18.3160  -12.3130   -9.6880 C.3   370  LYS370      0.1093
    163  NZ        19.1210  -12.6520  -10.9010 N.3   370  LYS370     -0.1314
    164  N         16.5440  -13.3720   -3.9340 N.am  371  THR371     -0.1953
    165  CA        16.8790  -13.9980   -2.6630 C.3   371  THR371      0.1897
    166  C         15.6050  -14.3150   -1.9030 C.2   371  THR371      0.2313
    167  O         15.4570  -15.3990   -1.3540 O.2   371  THR371     -0.2863
    168  CB        17.7700  -13.0810   -1.8210 C.3   371  THR371      0.1794
    169  OG1       18.9820  -12.8210   -2.5430 O.3   371  THR371     -0.2208
    170  CG2       18.0910  -13.7200   -0.4610 C.3   371  THR371      0.0378
    171  N         13.3340  -17.1510   -3.9340 N.3   374  PHE374     -0.1241
    172  CA        13.8140  -18.5220   -3.8290 C.3   374  PHE374      0.1605
    173  C         13.9250  -18.9890   -2.3880 C.2   374  PHE374      0.2264
    174  O         13.7060  -20.1640   -2.0890 O.2   374  PHE374     -0.2867
    175  CB        15.1140  -18.7090   -4.6080 C.3   374  PHE374      0.0534
    176  CG        14.9240  -18.5170   -6.0810 C.ar  374  PHE374     -0.0203
    177  CD1       14.0700  -19.3580   -6.7810 C.ar  374  PHE374     -0.0042
    178  CD2       15.5200  -17.4610   -6.7520 C.ar  374  PHE374     -0.0042
    179  CE1       13.8400  -19.1750   -8.1410 C.ar  374  PHE374     -0.0003
    180  CE2       15.2950  -17.2740   -8.1220 C.ar  374  PHE374     -0.0003
    181  CZ        14.4470  -18.1320   -8.8080 C.ar  374  PHE374     -0.0000
    182  N         11.8560  -22.4300   -1.2920 N.3   378  TYR378     -0.1241
    183  CA        12.5320  -23.6120   -0.7820 C.3   378  TYR378      0.1605
    184  C         12.5000  -23.7350    0.7440 C.2   378  TYR378      0.2264
    185  O         13.2490  -24.5280    1.3150 O.2   378  TYR378     -0.2867
    186  CB        13.9590  -23.6990   -1.3380 C.3   378  TYR378      0.0534
    187  CG        13.9630  -23.8430   -2.8430 C.ar  378  TYR378     -0.0201
    188  CD1       13.2950  -24.8960   -3.4500 C.ar  378  TYR378     -0.0009
    189  CD2       14.6160  -22.9230   -3.6560 C.ar  378  TYR378     -0.0009
    190  CE1       13.2740  -25.0370   -4.8250 C.ar  378  TYR378      0.0417
    191  CE2       14.6050  -23.0600   -5.0430 C.ar  378  TYR378      0.0417
    192  CZ        13.9330  -24.1260   -5.6140 C.ar  378  TYR378      0.1957
    193  OH        13.9040  -24.2810   -6.9800 O.3   378  TYR378     -0.2866
    194  N         13.8950  -29.5550   -3.5300 N.3   457  ASN457     -0.1240
    195  CA        14.6760  -28.6090   -4.3160 C.3   457  ASN457      0.1653
    196  C         15.3190  -29.3140   -5.5000 C.2   457  ASN457      0.2266
    197  O         15.4060  -28.7550   -6.5970 O.2   457  ASN457     -0.2867
    198  CB        15.7600  -27.9360   -3.4590 C.3   457  ASN457      0.1155
    199  CG        16.7600  -27.1540   -4.2920 C.2   457  ASN457      0.2627
    200  OD1       17.7760  -27.6960   -4.7220 O.2   457  ASN457     -0.2716
    201  ND2       16.4760  -25.8770   -4.5250 N.am  457  ASN457     -0.0877
    202  N         16.1280  -27.6250   -9.2140 N.3   461  GLN461     -0.1245
    203  CA        17.4850  -27.1990   -9.5340 C.3   461  GLN461      0.1566
    204  C         18.1370  -28.1300  -10.5570 C.2   461  GLN461      0.2260
    205  O         18.8100  -27.6770  -11.4950 O.2   461  GLN461     -0.2867
    206  CB        18.3280  -27.1280   -8.2570 C.3   461  GLN461      0.0367
    207  CG        19.7220  -26.5380   -8.4700 C.3   461  GLN461      0.0905
    208  CD        20.5840  -26.6000   -7.2070 C.2   461  GLN461      0.2608
    209  OE1       21.5960  -27.2970   -7.1710 O.2   461  GLN461     -0.2717
    210  NE2       20.1990  -25.8450   -6.1790 N.am  461  GLN461     -0.0878
    211  N         25.8320  -21.8320  -14.0010 N.3   491  HIS491     -0.1226
    212  CA        24.5460  -22.4270  -13.6110 C.3   491  HIS491      0.1752
    213  C         23.4260  -22.2290  -14.6280 C.2   491  HIS491      0.2596
    214  O         23.0250  -23.1930  -15.2960 O.2   491  HIS491     -0.2718
    215  CB        24.1510  -22.0190  -12.1850 C.3   491  HIS491      0.0759
    216  CG        25.2530  -22.2270  -11.1970 C.ar  491  HIS491      0.0818
    217  ND1       25.8560  -23.4550  -11.0090 N.ar  491  HIS491     -0.2268
    218  CD2       25.9100  -21.3590  -10.3880 C.ar  491  HIS491      0.1154
    219  CE1       26.8100  -23.3400  -10.1050 C.ar  491  HIS491      0.1986
    220  NE2       26.8660  -22.0750   -9.7130 N.ar  491  HIS491     -0.2212
    221  N         22.9290  -21.0040  -14.7830 N.am  492  ASP492     -0.1974
    222  CA        21.9510  -20.7690  -15.8420 C.3   492  ASP492      0.1709
    223  C         22.4010  -19.6820  -16.8080 C.2   492  ASP492      0.2293
    224  O         21.5870  -19.0750  -17.5250 O.2   492  ASP492     -0.2864
    225  CB        20.5810  -20.4290  -15.2630 C.3   492  ASP492      0.1436
    226  CG        20.5030  -19.0130  -14.7460 C.2   492  ASP492      0.3671
    227  OD1       21.5170  -18.4890  -14.2130 O.co2 492  ASP492     -0.2456
    228  OD2       19.4100  -18.4210  -14.8840 O.co2 492  ASP492     -0.2456
    229  N         17.9840  -13.8660  -21.6150 N.3   527  GLU527     -0.1245
    230  CA        18.4800  -12.5020  -21.7500 C.3   527  GLU527      0.1567
    231  C         19.9070  -12.5550  -22.2690 C.2   527  GLU527      0.2260
    232  O         20.7040  -13.3790  -21.8220 O.2   527  GLU527     -0.2867
    233  CB        18.4430  -11.7840  -20.4020 C.3   527  GLU527      0.0388
    234  CG        17.0440  -11.5240  -19.8860 C.3   527  GLU527      0.1160
    235  CD        16.2240  -10.6740  -20.8380 C.2   527  GLU527      0.3649
    236  OE1       16.6540   -9.5400  -21.1530 O.co2 527  GLU527     -0.2457
    237  OE2       15.1530  -11.1450  -21.2840 O.co2 527  GLU527     -0.2457
@<TRIPOS>BOND
     1   231   232    2
     2   231   230    1
     3    42    41    1
     4   230   229    1
     5   230   233    1
     6   237   235   ar
     7    39    41   ar
     8    39    37   ar
     9    41    40   ar
    10   236   235   ar
    11   235   234    1
    12   233   234    1
    13    40    38   ar
    14    37    36   ar
    15    23    24    1
    16    26    25    2
    17    38    36   ar
    18    36    35    1
    19    25    24    1
    20    25    31   am
    21    24    27    1
    22    32    31    1
    23    32    35    1
    24    32    33    1
    25    47    48    1
    26    47    44    1
    27    43    33   am
    28    43    44    1
    29    27    28    1
    30    33    34    2
    31   224   223    2
    32    44    45    1
    33    65    63    1
    34   223   222    1
    35    46    45    2
    36    28    29   ar
    37    28    30   ar
    38    45    49   am
    39    63    62    1
    40   222   225    1
    41   222   221    1
    42    57    55   am
    43   214   213    2
    44   225   226    1
    45    62    59    1
    46    62    64    1
    47    49    50    1
    48   228   226   ar
    49   221   213   am
    50   226   227   ar
    51    59    58    1
    52    59    60    1
    53   213   212    1
    54    61    60    2
    55    58    51   am
    56    55    54    1
    57    55    56    2
    58   211   212    1
    59    54    53    1
    60    51    50    1
    61    51    52    2
    62    53    50    1
    63    60    66   am
    64   212   215    1
    65   138   136    1
    66   136   137    1
    67   136   135    2
    68   135   134    1
    69    66    67    1
    70   215   216    1
    71   134   133    1
    72    67    68    1
    73    67    70    1
    74     3     2    1
    75     3     4    2
    76   205   204    2
    77    68    69    2
    78     2     1    1
    79     2     5    1
    80   216   217   ar
    81   216   218   ar
    82   217   219   ar
    83   163   162    1
    84    82    84   ar
    85    82    80   ar
    86    71    70    1
    87    71    72    1
    88   204   203    1
    89   133   132    1
    90   218   220   ar
    91     6     5    1
    92     6     7    1
    93    84    83   ar
    94   105   106    1
    95   105   108    1
    96   105   104    1
    97   219   220   ar
    98   106   107    2
    99    75    76    1
   100    79    80    1
   101    79    76    1
   102    80    81   ar
   103   132   129    1
   104   162   161    1
   105   161   160    1
   106   108   109    1
   107   203   202    1
   108   203   206    1
   109     8     7    1
   110     8     9    2
   111    74    72   ar
   112    72    73   ar
   113    76    77    1
   114    77    78    2
   115    83    81   ar
   116    11     9    1
   117   149   147    1
   118   181   179   ar
   119   181   180   ar
   120     9    10    1
   121   160   159    1
   122   112   113    1
   123   207   206    1
   124   207   208    1
   125   129   130    1
   126   129   128    1
   127   144   145    1
   128   144   143    1
   129   179   177   ar
   130   109   110   ar
   131   109   111   ar
   132   180   178   ar
   133   145   146    1
   134   130   139   am
   135   130   131    2
   136   128   122   am
   137   147   146    2
   138   147   148    1
   139   139   140    1
   140   208   209    2
   141   208   210   am
   142   159   156    1
   143   113   114    1
   144   113   116    1
   145   193   192    1
   146   140   143    1
   147   140   141    1
   148    12    13    1
   149   177   176   ar
   150   178   176   ar
   151   197   196    2
   152   120   114   am
   153   120   121    1
   154   122   121    1
   155   122   123    2
   156   114   115    2
   157   116   117    1
   158   124   121    1
   159   124   125    1
   160    13    14    1
   161    13    16    1
   162   126   127    1
   163   126   125    1
   164    15    14    2
   165   156   155    1
   166   156   157    1
   167   176   175    1
   168   192   191   ar
   169   192   190   ar
   170   141   142    2
   171   141   150   am
   172   196   195    1
   173   191   189   ar
   174    16    17    1
   175   117   118    1
   176   117   119    1
   177   157   158    2
   178   157   164   am
   179   190   188   ar
   180   150   151    1
   181   200   199    2
   182   175   172    1
   183   201   199   am
   184   195   194    1
   185   195   198    1
   186   199   198    1
   187    17    18    1
   188   164   165    1
   189   171   172    1
   190   172   173    1
   191   189   187   ar
   192   152   151    1
   193   152   153    2
   194   151   154    1
   195   188   187   ar
   196   100   102   ar
   197   100    98   ar
   198   102   103   ar
   199   187   186    1
   200    18    19    1
   201   165   166    1
   202   165   168    1
   203    97    98    1
   204    97    94    1
   205   169   168    1
   206    98    99   ar
   207   173   174    2
   208   103   101   ar
   209    91    90    1
   210    91    92    1
   211    85    86    1
   212   166   167    2
   213    19    20    2
   214   168   170    1
   215    93    94    1
   216    93    87   am
   217    95    94    1
   218    95    96    2
   219    99   101   ar
   220    89    90    1
   221    89    86    1
   222   186   183    1
   223   182   183    1
   224    86    87    1
   225   183   184    1
   226    87    88    2
   227    20    21    1
   228    20    22    1
   229   184   185    2
