@<TRIPOS>MOLECULE
tmp/4dflA00.pdb
 154 145 0 0 0
SMALL
GASTEIGER

@<TRIPOS>ATOM
      1  N         -0.8260   -4.1180    8.5100 N.3    15  LEU15      -0.1231
      2  CA        -1.3780   -3.4680    9.6980 C.3    15  LEU15       0.1693
      3  C         -2.1620   -2.2150    9.3290 C.2    15  LEU15       0.2593
      4  O         -3.1710   -1.8970    9.9630 O.2    15  LEU15      -0.2718
      5  CB        -0.2560   -3.0950   10.6760 C.3    15  LEU15       0.0284
      6  CG         0.4540   -4.2760   11.3470 C.3    15  LEU15       0.0019
      7  CD1        1.8090   -3.8710   11.8930 C.3    15  LEU15       0.0001
      8  CD2       -0.4060   -4.8730   12.4440 C.3    15  LEU15       0.0001
      9  N         -1.6800   -1.4950    8.3180 N.am   16  GLY16      -0.1942
     10  CA        -2.3320   -0.2720    7.8540 C.3    16  GLY16       0.2014
     11  C         -1.5750    0.3860    6.7150 C.2    16  GLY16       0.2639
     12  O         -0.4740   -0.0440    6.3630 O.2    16  GLY16      -0.2714
     13  N         -2.1670    1.4310    6.1390 N.am   17  SER17      -0.1949
     14  CA        -1.5550    2.1320    5.0100 C.3    17  SER17       0.1924
     15  C         -1.9670    3.6050    4.9220 C.2    17  SER17       0.2314
     16  O         -2.7720    4.0920    5.7170 O.2    17  SER17      -0.2863
     17  CB        -1.8960    1.4090    3.7040 C.3    17  SER17       0.2116
     18  OG        -3.2800    1.1150    3.6280 O.3    17  SER17      -0.2180
     19  N          2.4680   -0.4150    6.5440 N.3    20  VAL20      -0.1245
     20  CA         3.1470   -1.0210    7.6770 C.3    20  VAL20       0.1561
     21  C          2.6750   -2.4620    7.7510 C.2    20  VAL20       0.2260
     22  O          1.4710   -2.7240    7.7460 O.2    20  VAL20      -0.2867
     23  CB         2.8170   -0.2930    9.0040 C.3    20  VAL20       0.0252
     24  CG1        3.4310   -1.0200   10.2010 C.3    20  VAL20       0.0019
     25  CG2        3.3140    1.1410    8.9620 C.3    20  VAL20       0.0019
     26  N          7.3640   -4.6400   13.5080 N.3    33  ALA33      -0.1245
     27  CA         6.5180   -3.8450   12.6210 C.3    33  ALA33       0.1562
     28  C          7.4260   -3.2670   11.5290 C.2    33  ALA33       0.2260
     29  O          8.5030   -2.7640   11.8330 O.2    33  ALA33      -0.2867
     30  CB         5.8230   -2.7280   13.4050 C.3    33  ALA33       0.0290
     31  N          7.7290   -0.7130    8.2810 N.3    35  LYS35      -0.1245
     32  CA         7.2710    0.3650    7.4130 C.3    35  LYS35       0.1561
     33  C          7.9090    0.1760    6.0380 C.2    35  LYS35       0.2260
     34  O          9.1300    0.2110    5.9150 O.2    35  LYS35      -0.2867
     35  CB         7.6550    1.7300    8.0020 C.3    35  LYS35       0.0271
     36  CG         7.1770    2.9260    7.1750 C.3    35  LYS35       0.0035
     37  CD         7.5350    4.2540    7.8270 C.3    35  LYS35       0.0206
     38  CE         7.0650    5.4280    6.9940 C.3    35  LYS35       0.1093
     39  NZ         7.4120    6.7320    7.6250 N.3    35  LYS35      -0.1314
     40  N          9.4510    3.9680   20.6210 N.3    60  VAL60      -0.1245
     41  CA         9.5660    2.7970   19.7570 C.3    60  VAL60       0.1561
     42  C         11.0140    2.6460   19.2480 C.2    60  VAL60       0.2260
     43  O         11.5620    3.5580   18.6620 O.2    60  VAL60      -0.2867
     44  CB         8.6010    2.8870   18.5700 C.3    60  VAL60       0.0252
     45  CG1        8.9430    1.8560   17.5080 C.3    60  VAL60       0.0019
     46  CG2        7.1600    2.7150   19.0520 C.3    60  VAL60       0.0019
     47  N         11.0090   -2.0340   12.9360 N.3    75  MET75      -0.1230
     48  CA        10.8740   -1.5240   14.3040 C.3    75  MET75       0.1702
     49  C         10.2340   -2.5780   15.2080 C.2    75  MET75       0.2592
     50  O          9.6070   -3.5210   14.7310 O.2    75  MET75      -0.2718
     51  CB         9.9960   -0.2830   14.3100 C.3    75  MET75       0.0401
     52  CG        10.4840    0.8430   13.4180 C.3    75  MET75       0.0596
     53  SD         9.2270    2.1210   13.2580 S.3    75  MET75      -0.1393
     54  CE         8.1320    1.3740   12.0530 C.3    75  MET75       0.0692
     55  N         10.4130   -2.4010   16.5160 N.am   76  GLU76      -0.1966
     56  CA         9.7510   -3.2430   17.5000 C.3    76  GLU76       0.1733
     57  C          8.2410   -3.0860   17.3660 C.2    76  GLU76       0.2616
     58  O          7.7640   -2.0590   16.9010 O.2    76  GLU76      -0.2715
     59  CB        10.2360   -2.9400   18.9260 C.3    76  GLU76       0.0429
     60  CG         9.9510   -1.5490   19.4370 C.3    76  GLU76       0.1163
     61  CD        10.5000   -1.3060   20.8410 C.2    76  GLU76       0.3649
     62  OE1       10.4520   -0.1460   21.2910 O.co2  76  GLU76      -0.2457
     63  OE2       10.9680   -2.2670   21.5000 O.co2  76  GLU76      -0.2457
     64  N          7.5110   -4.1450   17.7050 N.am   77  MET77      -0.1963
     65  CA         6.0680   -4.1930   17.5060 C.3    77  MET77       0.1736
     66  C          5.3520   -3.7680   18.7840 C.2    77  MET77       0.2616
     67  O          5.6520   -4.2700   19.8600 O.2    77  MET77      -0.2715
     68  CB         5.6430   -5.6180   17.1170 C.3    77  MET77       0.0427
     69  CG         4.1620   -5.8810   17.1350 C.3    77  MET77       0.0599
     70  SD         3.2790   -5.1120   15.7790 S.3    77  MET77      -0.1393
     71  CE         3.6150   -6.2660   14.4830 C.3    77  MET77       0.0692
     72  N          4.4030   -2.8520   18.6420 N.am   78  ALA78      -0.1963
     73  CA         3.5030   -2.4800   19.7190 C.3    78  ALA78       0.1728
     74  C          2.1500   -3.0610   19.3240 C.2    78  ALA78       0.2616
     75  O          1.4010   -2.4490   18.5600 O.2    78  ALA78      -0.2715
     76  CB         3.4510   -0.9920   19.8760 C.3    78  ALA78       0.0334
     77  N          1.8880   -4.2630   19.8370 N.am   79  GLU79      -0.1963
     78  CA         0.8080   -5.1330   19.3890 C.3    79  GLU79       0.1733
     79  C         -0.6110   -4.5600   19.4930 C.2    79  GLU79       0.2616
     80  O         -1.4510   -4.8900   18.6590 O.2    79  GLU79      -0.2715
     81  CB         0.8440   -6.4520   20.1720 C.3    79  GLU79       0.0429
     82  CG         2.0770   -7.3110   19.9030 C.3    79  GLU79       0.1163
     83  CD         1.9360   -8.2320   18.6920 C.2    79  GLU79       0.3649
     84  OE1        0.8910   -8.2180   18.0080 O.co2  79  GLU79      -0.2457
     85  OE2        2.8860   -8.9880   18.4370 O.co2  79  GLU79      -0.2457
     86  N         -0.8810   -3.7420   20.5110 N.am   80  LEU80      -0.1963
     87  CA        -2.2320   -3.1940   20.7090 C.3    80  LEU80       0.1728
     88  C         -2.5190   -1.9780   19.8390 C.2    80  LEU80       0.2617
     89  O         -3.6620   -1.5460   19.7620 O.2    80  LEU80      -0.2715
     90  CB        -2.4980   -2.8440   22.1840 C.3    80  LEU80       0.0311
     91  CG        -2.4080   -3.9790   23.2180 C.3    80  LEU80       0.0022
     92  CD1       -3.2040   -3.6310   24.4520 C.3    80  LEU80       0.0001
     93  CD2       -2.8570   -5.2910   22.6660 C.3    80  LEU80       0.0001
     94  N         -1.4880   -1.4180   19.1990 N.am   81  GLY81      -0.1941
     95  CA        -1.6980   -0.3890   18.1920 C.3    81  GLY81       0.1998
     96  C         -1.8770    1.0250   18.7200 C.2    81  GLY81       0.2480
     97  O         -1.5890    1.3060   19.8820 O.2    81  GLY81      -0.2729
     98  N         -2.3720    1.9390   17.8580 N.am   82  PRO82      -0.2726
     99  CA        -2.5320    3.3440   18.2380 C.3    82  PRO82       0.1402
    100  C         -3.4750    3.5790   19.4200 C.2    82  PRO82       0.2269
    101  O         -4.5590    2.9780   19.5190 O.2    82  PRO82      -0.2865
    102  CB        -3.0770    4.0060   16.9620 C.3    82  PRO82       0.0296
    103  CG        -2.7330    3.0650   15.8730 C.3    82  PRO82       0.0237
    104  CD        -2.7670    1.7010   16.4590 C.3    82  PRO82       0.0939
    105  N         -7.2530    4.8120   18.6030 N.3    85  LYS85      -0.1245
    106  CA        -8.1360    3.7330   18.1760 C.3    85  LYS85       0.1561
    107  C         -8.4180    2.7740   19.3190 C.2    85  LYS85       0.2260
    108  O         -9.5400    2.2650   19.4390 O.2    85  LYS85      -0.2867
    109  CB        -7.5330    2.9880   16.9840 C.3    85  LYS85       0.0271
    110  CG        -7.5070    3.8240   15.7070 C.3    85  LYS85       0.0035
    111  CD        -6.5210    3.2710   14.6940 C.3    85  LYS85       0.0206
    112  CE        -6.7000    3.8730   13.3270 C.3    85  LYS85       0.1093
    113  NZ        -5.7540    3.3060   12.3270 N.3    85  LYS85      -0.1314
    114  N         -2.6020    9.3770   17.8680 N.3   125  ARG125     -0.1231
    115  CA        -2.5000    8.3900   16.7900 C.3   125  ARG125      0.1694
    116  C         -1.0700    7.8530   16.6370 C.2   125  ARG125      0.2592
    117  O         -0.8500    6.7970   16.0300 O.2   125  ARG125     -0.2718
    118  CB        -2.9570    8.9840   15.4610 C.3   125  ARG125      0.0321
    119  CG        -2.0290   10.0820   14.9330 C.3   125  ARG125      0.0489
    120  CD        -2.4870   10.6640   13.6090 C.3   125  ARG125      0.2205
    121  NE        -1.6530   11.8240   13.3030 N.pl3 125  ARG125     -0.0865
    122  CZ        -1.8530   13.0630   13.7640 C.cat 125  ARG125      0.5346
    123  NH1       -0.9940   14.0280   13.4540 N.pl3 125  ARG125      0.1354
    124  NH2       -2.9060   13.3570   14.5260 N.pl3 125  ARG125      0.1354
    125  N         -0.1090    8.5880   17.1850 N.am  126  ASN126     -0.1974
    126  CA         1.3000    8.1880   17.1420 C.3   126  ASN126      0.1688
    127  C          1.8340    7.6310   18.4580 C.2   126  ASN126      0.2292
    128  O          3.0120    7.3580   18.5690 O.2   126  ASN126     -0.2864
    129  CB         2.1660    9.3490   16.6760 C.3   126  ASN126      0.1181
    130  CG         1.9840    9.6480   15.2250 C.2   126  ASN126      0.2629
    131  OD1        1.6440    8.7590   14.4310 O.2   126  ASN126     -0.2716
    132  ND2        2.2050   10.9070   14.8470 N.am  126  ASN126     -0.0877
    133  N          1.6950    4.3290   20.5730 N.3   128  LEU128     -0.1245
    134  CA         1.3660    2.9220   20.3590 C.3   128  LEU128      0.1561
    135  C          1.4140    2.1460   21.6810 C.2   128  LEU128      0.2260
    136  O          2.2580    2.4130   22.5410 O.2   128  LEU128     -0.2867
    137  CB         2.3470    2.3010   19.3410 C.3   128  LEU128      0.0270
    138  CG         2.5160    2.9990   17.9740 C.3   128  LEU128      0.0019
    139  CD1        3.3850    2.1580   17.0690 C.3   128  LEU128      0.0001
    140  CD2        1.1770    3.2670   17.2770 C.3   128  LEU128      0.0001
    141  N          5.7850    6.7420   18.8520 N.3   138  SER138     -0.1202
    142  CA         6.2220    6.3150   17.5370 C.3   138  SER138      0.2020
    143  C          6.2710    7.5120   16.5710 C.2   138  SER138      0.2618
    144  O          6.0250    8.6600   16.9580 O.2   138  SER138     -0.2717
    145  CB         5.2750    5.2500   16.9800 C.3   138  SER138      0.2103
    146  OG         4.0550    5.8340   16.5330 O.3   138  SER138     -0.2182
    147  N          6.5920    7.2000   15.3220 N.am  139  ASP139     -0.1973
    148  CA         6.4930    8.1010   14.1770 C.3   139  ASP139      0.1709
    149  C          7.4370    9.3100   14.2250 C.2   139  ASP139      0.2293
    150  O          7.0060   10.4390   14.4700 O.2   139  ASP139     -0.2864
    151  CB         5.0460    8.5490   13.9570 C.3   139  ASP139      0.1436
    152  CG         4.7800    8.9010   12.5200 C.2   139  ASP139      0.3671
    153  OD1        5.7340    9.3520   11.8260 O.co2 139  ASP139     -0.2456
    154  OD2        3.6320    8.7030   12.0770 O.co2 139  ASP139     -0.2456
@<TRIPOS>BOND
     1    18    17    1
     2    17    14    1
     3    15    14    1
     4    15    16    2
     5    14    13    1
     6    34    33    2
     7    33    32    1
     8    13    11   am
     9    12    11    2
    10    19    20    1
    11    11    10    1
    12    38    39    1
    13    38    37    1
    14    36    37    1
    15    36    35    1
    16    32    35    1
    17    32    31    1
    18    20    21    1
    19    20    23    1
    20    22    21    2
    21    10     9    1
    22     9     3   am
    23     1     2    1
    24    25    23    1
    25    23    24    1
    26     3     2    1
    27     3     4    2
    28     2     5    1
    29     5     6    1
    30     6     7    1
    31     6     8    1
    32    28    29    2
    33    28    27    1
    34   153   152   ar
    35    54    53    1
    36   154   152   ar
    37   113   112    1
    38   152   151    1
    39    27    30    1
    40    27    26    1
    41    47    48    1
    42    53    52    1
    43   121   120    1
    44   121   122    2
    45   112   111    1
    46    52    51    1
    47   123   122    1
    48   120   119    1
    49   122   124    1
    50   151   148    1
    51   148   149    1
    52   148   147    1
    53   149   150    2
    54    48    51    1
    55    48    49    1
    56   131   130    2
    57    71    70    1
    58   111   110    1
    59    50    49    2
    60   132   130   am
    61   119   118    1
    62    49    55   am
    63   130   129    1
    64   147   143   am
    65   118   115    1
    66   110   109    1
    67    70    69    1
    68   103   104    1
    69   103   102    1
    70   117   116    2
    71   104    98    1
    72    55    56    1
    73   146   145    1
    74   143   144    2
    75   143   142    1
    76   116   115    1
    77   116   125   am
    78   129   126    1
    79   115   114    1
    80    58    57    2
    81   102    99    1
    82   145   142    1
    83   109   106    1
    84   139   138    1
    85    68    69    1
    86    68    65    1
    87   126   125    1
    88   126   127    1
    89   140   138    1
    90    57    56    1
    91    57    64   am
    92    56    59    1
    93    65    64    1
    94    65    66    1
    95    45    44    1
    96   142   141    1
    97    98    99    1
    98    98    96   am
    99   138   137    1
   100    84    83   ar
   101   106   105    1
   102   106   107    1
   103    95    96    1
   104    95    94    1
   105    99   100    1
   106    85    83   ar
   107   127   128    2
   108    75    74    2
   109    44    46    1
   110    44    41    1
   111    72    66   am
   112    72    73    1
   113    80    79    2
   114    43    42    2
   115    83    82    1
   116    96    97    2
   117    66    67    2
   118    59    60    1
   119    94    88   am
   120    42    41    1
   121   107   108    2
   122    74    73    1
   123    74    77   am
   124   137   134    1
   125    78    79    1
   126    78    77    1
   127    78    81    1
   128   100   101    2
   129    60    61    1
   130    79    86   am
   131    73    76    1
   132    41    40    1
   133    89    88    2
   134    88    87    1
   135    82    81    1
   136   134   133    1
   137   134   135    1
   138    86    87    1
   139    87    90    1
   140    61    62   ar
   141    61    63   ar
   142   135   136    2
   143    90    91    1
   144    93    91    1
   145    91    92    1
