@<TRIPOS>MOLECULE
tmp/4dfmA00.pdb
 178 172 0 0 0
SMALL
GASTEIGER

@<TRIPOS>ATOM
      1  N         24.0490  -30.0860  -10.9990 N.3   280  ARG280     -0.1245
      2  CA        24.7740  -28.8700  -11.3590 C.3   280  ARG280      0.1563
      3  C         26.2530  -29.2050  -11.5690 C.2   280  ARG280      0.2260
      4  O         26.7670  -30.1860  -11.0210 O.2   280  ARG280     -0.2867
      5  CB        24.6570  -27.8060  -10.2550 C.3   280  ARG280      0.0307
      6  CG        23.3900  -26.9530  -10.2850 C.3   280  ARG280      0.0489
      7  CD        23.5340  -25.8040   -9.2950 C.3   280  ARG280      0.2205
      8  NE        22.5430  -24.7480   -9.4740 N.pl3 280  ARG280     -0.0865
      9  CZ        22.5570  -23.6110   -8.7900 C.cat 280  ARG280      0.5346
     10  NH1       23.5120  -23.3990   -7.8940 N.pl3 280  ARG280      0.1354
     11  NH2       21.6290  -22.6920   -8.9960 N.pl3 280  ARG280      0.1354
     12  N         21.5660  -15.6650  -20.1120 N.3   317  ASP317     -0.1225
     13  CA        21.0700  -16.0750  -18.7960 C.3   317  ASP317      0.1805
     14  C         19.5800  -16.4170  -18.8850 C.2   317  ASP317      0.2598
     15  O         18.7770  -15.5740  -19.2790 O.2   317  ASP317     -0.2718
     16  CB        21.3140  -14.9410  -17.7870 C.3   317  ASP317      0.1424
     17  CG        21.0970  -15.3730  -16.3340 C.2   317  ASP317      0.3668
     18  OD1       20.0420  -15.9710  -16.0330 O.co2 317  ASP317     -0.2456
     19  OD2       21.9890  -15.1100  -15.4930 O.co2 317  ASP317     -0.2456
     20  N         19.2110  -17.6500  -18.5330 N.am  318  TYR318     -0.1962
     21  CA        17.7950  -18.0370  -18.5030 C.3   318  TYR318      0.1771
     22  C         17.0240  -17.1980  -17.4940 C.2   318  TYR318      0.2620
     23  O         17.4620  -17.0240  -16.3570 O.2   318  TYR318     -0.2715
     24  CB        17.6170  -19.5160  -18.1410 C.3   318  TYR318      0.0574
     25  CG        17.9070  -20.4940  -19.2580 C.ar  318  TYR318     -0.0198
     26  CD1       16.9880  -20.7110  -20.2810 C.ar  318  TYR318     -0.0009
     27  CD2       19.0850  -21.2260  -19.2710 C.ar  318  TYR318     -0.0009
     28  CE1       17.2500  -21.6140  -21.3030 C.ar  318  TYR318      0.0417
     29  CE2       19.3540  -22.1370  -20.2810 C.ar  318  TYR318      0.0417
     30  CZ        18.4320  -22.3210  -21.2960 C.ar  318  TYR318      0.1957
     31  OH        18.7010  -23.2240  -22.2970 O.3   318  TYR318     -0.2866
     32  N         15.8670  -16.6980  -17.9160 N.am  319  SER319     -0.1936
     33  CA        15.0190  -15.8670  -17.0650 C.3   319  SER319      0.2055
     34  C         14.1700  -16.7100  -16.1080 C.2   319  SER319      0.2643
     35  O         13.4950  -17.6460  -16.5390 O.2   319  SER319     -0.2714
     36  CB        14.1220  -14.9880  -17.9480 C.3   319  SER319      0.2130
     37  OG        12.9540  -14.5750  -17.2640 O.3   319  SER319     -0.2179
     38  N         14.2250  -16.3800  -14.8120 N.am  320  GLN320     -0.1963
     39  CA        13.3900  -17.0180  -13.7900 C.3   320  GLN320      0.1733
     40  C         13.3660  -18.5410  -13.9410 C.2   320  GLN320      0.2616
     41  O         12.3110  -19.1650  -13.8520 O.2   320  GLN320     -0.2715
     42  CB        11.9570  -16.4660  -13.8530 C.3   320  GLN320      0.0408
     43  CG        11.8640  -14.9450  -14.0110 C.3   320  GLN320      0.0908
     44  CD        10.4280  -14.4450  -14.1110 C.2   320  GLN320      0.2608
     45  OE1        9.6660  -14.5180  -13.1470 O.2   320  GLN320     -0.2717
     46  NE2       10.0530  -13.9350  -15.2850 N.am  320  GLN320     -0.0878
     47  N         14.5310  -19.1340  -14.1780 N.am  321  ILE321     -0.1963
     48  CA        14.5780  -20.5120  -14.6720 C.3   321  ILE321      0.1727
     49  C         13.9300  -21.5610  -13.7600 C.2   321  ILE321      0.2616
     50  O         13.1420  -22.3840  -14.2230 O.2   321  ILE321     -0.2715
     51  CB        16.0080  -20.9430  -15.1020 C.3   321  ILE321      0.0290
     52  CG1       15.9680  -22.3120  -15.7850 C.3   321  ILE321      0.0022
     53  CG2       16.9730  -20.9430  -13.9190 C.3   321  ILE321      0.0023
     54  CD1       15.0480  -22.3660  -16.9910 C.3   321  ILE321      0.0001
     55  N         14.2290  -21.5350  -12.4680 N.am  322  GLU322     -0.1977
     56  CA        13.6550  -22.5550  -11.6000 C.3   322  GLU322      0.1602
     57  C         12.1460  -22.4000  -11.4170 C.2   322  GLU322      0.2287
     58  O         11.4410  -23.3910  -11.2230 O.2   322  GLU322     -0.2864
     59  CB        14.4150  -22.6480  -10.2760 C.3   322  GLU322      0.0415
     60  CG        15.8060  -23.2550  -10.4690 C.3   322  GLU322      0.1163
     61  CD        16.4950  -23.6160   -9.1610 C.2   322  GLU322      0.3649
     62  OE1       15.8020  -23.7560   -8.1360 O.co2 322  GLU322     -0.2457
     63  OE2       17.7340  -23.7560   -9.1610 O.co2 322  GLU322     -0.2457
     64  N          9.8790  -11.9940   -9.9350 N.3   346  HIS346     -0.1241
     65  CA        10.9300  -11.3010   -9.1960 C.3   346  HIS346      0.1621
     66  C         10.6430   -9.8040   -9.0980 C.2   346  HIS346      0.2264
     67  O         10.7790   -9.2070   -8.0290 O.2   346  HIS346     -0.2867
     68  CB        12.2940  -11.5370   -9.8500 C.3   346  HIS346      0.0745
     69  CG        12.7470  -12.9630   -9.7980 C.ar  346  HIS346      0.0817
     70  ND1       12.4250  -13.8100   -8.7590 N.ar  346  HIS346     -0.2268
     71  CD2       13.4880  -13.6970  -10.6640 C.ar  346  HIS346      0.1154
     72  CE1       12.9540  -15.0000   -8.9820 C.ar  346  HIS346      0.1986
     73  NE2       13.6040  -14.9590  -10.1320 N.ar  346  HIS346     -0.2212
     74  N         15.2960   -5.9660   -7.5900 N.3   366  ARG366     -0.1231
     75  CA        14.8710   -7.2360   -8.1570 C.3   366  ARG366      0.1694
     76  C         15.7430   -8.3830   -7.6550 C.2   366  ARG366      0.2591
     77  O         15.2340   -9.4490   -7.3060 O.2   366  ARG366     -0.2718
     78  CB        14.9070   -7.1700   -9.6820 C.3   366  ARG366      0.0321
     79  CG        14.3020   -8.3790  -10.3570 C.3   366  ARG366      0.0489
     80  CD        14.2450   -8.1850  -11.8580 C.3   366  ARG366      0.2205
     81  NE        13.7540   -9.3810  -12.5280 N.pl3 366  ARG366     -0.0865
     82  CZ        14.5070  -10.4370  -12.8070 C.cat 366  ARG366      0.5346
     83  NH1       15.7920  -10.4460  -12.4690 N.pl3 366  ARG366      0.1354
     84  NH2       13.9770  -11.4850  -13.4230 N.pl3 366  ARG366      0.1354
     85  N         17.0540   -8.1560   -7.6180 N.am  367  ARG367     -0.1980
     86  CA        17.9950   -9.1540   -7.1190 C.3   367  ARG367      0.1597
     87  C         17.6830   -9.5190   -5.6720 C.2   367  ARG367      0.2287
     88  O         17.7350  -10.6900   -5.2950 O.2   367  ARG367     -0.2864
     89  CB        19.4370   -8.6500   -7.2340 C.3   367  ARG367      0.0334
     90  CG        20.4690   -9.5800   -6.6050 C.3   367  ARG367      0.0492
     91  CD        21.8620   -8.9660   -6.6220 C.3   367  ARG367      0.2205
     92  NE        22.8590   -9.8330   -5.9950 N.pl3 367  ARG367     -0.0865
     93  CZ        23.4920  -10.8180   -6.6250 C.cat 367  ARG367      0.5346
     94  NH1       23.2250  -11.0710   -7.9020 N.pl3 367  ARG367      0.1354
     95  NH2       24.3870  -11.5570   -5.9790 N.pl3 367  ARG367      0.1354
     96  N         14.8690  -11.8750   -5.5470 N.3   370  LYS370     -0.1231
     97  CA        15.1760  -13.2390   -5.9800 C.3   370  LYS370      0.1693
     98  C         15.3980  -14.1510   -4.7870 C.2   370  LYS370      0.2592
     99  O         14.8620  -15.2560   -4.7250 O.2   370  LYS370     -0.2718
    100  CB        16.4270  -13.2770   -6.8510 C.3   370  LYS370      0.0285
    101  CG        16.2350  -12.7930   -8.2630 C.3   370  LYS370      0.0035
    102  CD        17.3370  -13.3520   -9.1420 C.3   370  LYS370      0.0206
    103  CE        17.8340  -12.3190  -10.1230 C.3   370  LYS370      0.1093
    104  NZ        18.8540  -12.8990  -11.0350 N.3   370  LYS370     -0.1314
    105  N         16.2120  -13.6830   -3.8500 N.am  371  THR371     -0.1953
    106  CA        16.5180  -14.4510   -2.6530 C.3   371  THR371      0.1897
    107  C         15.2400  -14.7360   -1.8700 C.2   371  THR371      0.2313
    108  O         15.0400  -15.8450   -1.3750 O.2   371  THR371     -0.2863
    109  CB        17.5490  -13.7180   -1.7720 C.3   371  THR371      0.1794
    110  OG1       18.7810  -13.5940   -2.4960 O.3   371  THR371     -0.2208
    111  CG2       17.8010  -14.4800   -0.4810 C.3   371  THR371      0.0378
    112  N         12.9580  -17.4340   -3.9370 N.3   374  PHE374     -0.1241
    113  CA        13.4520  -18.8050   -3.8160 C.3   374  PHE374      0.1605
    114  C         13.5620  -19.2620   -2.3620 C.2   374  PHE374      0.2264
    115  O         13.3060  -20.4260   -2.0510 O.2   374  PHE374     -0.2867
    116  CB        14.7760  -18.9810   -4.5640 C.3   374  PHE374      0.0534
    117  CG        14.6550  -18.7220   -6.0370 C.ar  374  PHE374     -0.0203
    118  CD1       13.7940  -19.4820   -6.8100 C.ar  374  PHE374     -0.0042
    119  CD2       15.3780  -17.7080   -6.6450 C.ar  374  PHE374     -0.0042
    120  CE1       13.6560  -19.2430   -8.1680 C.ar  374  PHE374     -0.0003
    121  CE2       15.2470  -17.4660   -8.0090 C.ar  374  PHE374     -0.0003
    122  CZ        14.3800  -18.2340   -8.7650 C.ar  374  PHE374     -0.0000
    123  N         11.5580  -22.6000   -1.1140 N.3   378  TYR378     -0.1241
    124  CA        12.2490  -23.7700   -0.5810 C.3   378  TYR378      0.1605
    125  C         12.2770  -23.8550    0.9460 C.2   378  TYR378      0.2264
    126  O         13.1130  -24.5570    1.5210 O.2   378  TYR378     -0.2867
    127  CB        13.6520  -23.8710   -1.1780 C.3   378  TYR378      0.0534
    128  CG        13.6200  -24.0370   -2.6800 C.ar  378  TYR378     -0.0201
    129  CD1       13.0920  -25.1850   -3.2560 C.ar  378  TYR378     -0.0009
    130  CD2       14.1080  -23.0470   -3.5230 C.ar  378  TYR378     -0.0009
    131  CE1       13.0540  -25.3480   -4.6290 C.ar  378  TYR378      0.0417
    132  CE2       14.0740  -23.1980   -4.9010 C.ar  378  TYR378      0.0417
    133  CZ        13.5460  -24.3530   -5.4480 C.ar  378  TYR378      0.1957
    134  OH        13.5100  -24.5190   -6.8190 O.3   378  TYR378     -0.2866
    135  N         13.7620  -29.6940   -3.5870 N.3   457  ASN457     -0.1240
    136  CA        14.5540  -28.7360   -4.3560 C.3   457  ASN457      0.1653
    137  C         15.2300  -29.4060   -5.5450 C.2   457  ASN457      0.2266
    138  O         15.2940  -28.8400   -6.6330 O.2   457  ASN457     -0.2867
    139  CB        15.6030  -28.0600   -3.4730 C.3   457  ASN457      0.1155
    140  CG        16.6180  -27.2710   -4.2740 C.2   457  ASN457      0.2627
    141  OD1       17.6780  -27.7870   -4.6280 O.2   457  ASN457     -0.2716
    142  ND2       16.3040  -26.0160   -4.5590 N.am  457  ASN457     -0.0877
    143  N         16.1020  -27.6930   -9.2380 N.3   461  GLN461     -0.1245
    144  CA        17.4680  -27.2670   -9.5360 C.3   461  GLN461      0.1566
    145  C         18.1070  -28.2120  -10.5540 C.2   461  GLN461      0.2260
    146  O         18.7670  -27.7730  -11.4990 O.2   461  GLN461     -0.2867
    147  CB        18.3170  -27.2040   -8.2610 C.3   461  GLN461      0.0367
    148  CG        19.7290  -26.6660   -8.4960 C.3   461  GLN461      0.0905
    149  CD        20.5940  -26.6930   -7.2490 C.2   461  GLN461      0.2608
    150  OE1       21.5590  -27.4550   -7.1690 O.2   461  GLN461     -0.2717
    151  NE2       20.2630  -25.8460   -6.2750 N.am  461  GLN461     -0.0878
    152  N         25.7510  -21.9170  -13.9510 N.3   491  HIS491     -0.1226
    153  CA        24.4730  -22.5360  -13.6050 C.3   491  HIS491      0.1752
    154  C         23.3470  -22.3320  -14.6180 C.2   491  HIS491      0.2596
    155  O         22.9250  -23.2900  -15.2710 O.2   491  HIS491     -0.2718
    156  CB        24.0700  -22.1620  -12.1820 C.3   491  HIS491      0.0759
    157  CG        25.1780  -22.3620  -11.2020 C.ar  491  HIS491      0.0818
    158  ND1       25.8080  -23.5770  -11.0450 N.ar  491  HIS491     -0.2268
    159  CD2       25.8200  -21.4970  -10.3830 C.ar  491  HIS491      0.1154
    160  CE1       26.7600  -23.4630  -10.1380 C.ar  491  HIS491      0.1986
    161  NE2       26.7920  -22.2090   -9.7230 N.ar  491  HIS491     -0.2212
    162  N         22.8520  -21.1100  -14.7590 N.am  492  ASP492     -0.1974
    163  CA        21.8480  -20.8720  -15.7860 C.3   492  ASP492      0.1709
    164  C         22.3160  -19.7880  -16.7430 C.2   492  ASP492      0.2293
    165  O         21.5170  -19.1780  -17.4590 O.2   492  ASP492     -0.2864
    166  CB        20.4890  -20.5300  -15.1800 C.3   492  ASP492      0.1436
    167  CG        20.4010  -19.0950  -14.7120 C.2   492  ASP492      0.3671
    168  OD1       21.4050  -18.5600  -14.1830 O.co2 492  ASP492     -0.2456
    169  OD2       19.3140  -18.5040  -14.8840 O.co2 492  ASP492     -0.2456
    170  N         17.8480  -13.9880  -21.5710 N.3   527  GLU527     -0.1245
    171  CA        18.3040  -12.6100  -21.7120 C.3   527  GLU527      0.1567
    172  C         19.7430  -12.6270  -22.1950 C.2   527  GLU527      0.2260
    173  O         20.5450  -13.4370  -21.7440 O.2   527  GLU527     -0.2867
    174  CB        18.1940  -11.8480  -20.3870 C.3   527  GLU527      0.0388
    175  CG        16.7700  -11.4910  -19.9890 C.3   527  GLU527      0.1160
    176  CD        16.0870  -10.5820  -20.9980 C.2   527  GLU527      0.3649
    177  OE1       16.3800   -9.3660  -21.0030 O.co2 527  GLU527     -0.2457
    178  OE2       15.2580  -11.0830  -21.7890 O.co2 527  GLU527     -0.2457
@<TRIPOS>BOND
     1    31    30    1
     2   172   173    2
     3   172   171    1
     4   178   176   ar
     5   171   170    1
     6   171   174    1
     7    28    30   ar
     8    28    26   ar
     9    30    29   ar
    10   177   176   ar
    11   176   175    1
    12   174   175    1
    13    29    27   ar
    14    26    25   ar
    15    12    13    1
    16    15    14    2
    17    27    25   ar
    18    25    24    1
    19    14    13    1
    20    14    20   am
    21    13    16    1
    22    20    21    1
    23    21    24    1
    24    21    22    1
    25    36    37    1
    26    36    33    1
    27    32    22   am
    28    32    33    1
    29    16    17    1
    30    22    23    2
    31   165   164    2
    32    33    34    1
    33    54    52    1
    34   164   163    1
    35    35    34    2
    36    17    18   ar
    37    17    19   ar
    38    34    38   am
    39   163   166    1
    40   163   162    1
    41    52    51    1
    42    46    44   am
    43   155   154    2
    44   166   167    1
    45    51    48    1
    46    51    53    1
    47   169   167   ar
    48    38    39    1
    49   162   154   am
    50   167   168   ar
    51    48    47    1
    52    48    49    1
    53   154   153    1
    54    50    49    2
    55    47    40   am
    56    44    43    1
    57    44    45    2
    58    43    42    1
    59   152   153    1
    60    40    41    2
    61    40    39    1
    62    42    39    1
    63    49    55   am
    64   153   156    1
    65    84    82    1
    66    82    81    2
    67    82    83    1
    68    81    80    1
    69    55    56    1
    70   156   157    1
    71    80    79    1
    72    56    57    1
    73    56    59    1
    74     3     2    1
    75     3     4    2
    76   146   145    2
    77    57    58    2
    78     2     1    1
    79     2     5    1
    80   157   158   ar
    81   157   159   ar
    82   158   160   ar
    83   104   103    1
    84    71    73   ar
    85    71    69   ar
    86   145   144    1
    87    60    59    1
    88    60    61    1
    89   159   161   ar
    90    79    78    1
    91     6     5    1
    92     6     7    1
    93   160   161   ar
    94    73    72   ar
    95   103   102    1
    96    64    65    1
    97    68    69    1
    98    68    65    1
    99    69    70   ar
   100    78    75    1
   101   144   143    1
   102   144   147    1
   103     8     7    1
   104     8     9    2
   105    65    66    1
   106    61    63   ar
   107    61    62   ar
   108   102   101    1
   109    66    67    2
   110    11     9    1
   111    72    70   ar
   112     9    10    1
   113   122   120   ar
   114   122   121   ar
   115   148   147    1
   116   148   149    1
   117   101   100    1
   118   120   118   ar
   119    75    76    1
   120    75    74    1
   121   121   119   ar
   122    94    93    1
   123    76    85   am
   124    76    77    2
   125    85    86    1
   126   149   150    2
   127   149   151   am
   128    89    86    1
   129    89    90    1
   130    86    87    1
   131   100    97    1
   132   134   133    1
   133   118   117   ar
   134   119   117   ar
   135   138   137    2
   136    93    92    2
   137    93    95    1
   138    91    90    1
   139    91    92    1
   140   117   116    1
   141    97    96    1
   142    97    98    1
   143    87    88    2
   144   137   136    1
   145   133   132   ar
   146   133   131   ar
   147   132   130   ar
   148    98    99    2
   149    98   105   am
   150   131   129   ar
   151   141   140    2
   152   116   113    1
   153   142   140   am
   154   136   135    1
   155   136   139    1
   156   140   139    1
   157   112   113    1
   158   105   106    1
   159   113   114    1
   160   130   128   ar
   161   129   128   ar
   162   128   127    1
   163   106   107    1
   164   106   109    1
   165   110   109    1
   166   114   115    2
   167   107   108    2
   168   109   111    1
   169   127   124    1
   170   123   124    1
   171   124   125    1
   172   125   126    2
