@<TRIPOS>MOLECULE
tmp/4dfnA00.pdb
 174 164 0 0 0
SMALL
GASTEIGER

@<TRIPOS>ATOM
      1  N         -1.3230   -4.5060    8.7860 N.3    15  LEU15      -0.1231
      2  CA        -1.8200   -4.0020   10.0640 C.3    15  LEU15       0.1693
      3  C         -2.4910   -2.6480    9.8730 C.2    15  LEU15       0.2593
      4  O         -3.5510   -2.3920   10.4450 O.2    15  LEU15      -0.2718
      5  CB        -0.6870   -3.8850   11.0830 C.3    15  LEU15       0.0284
      6  CG         0.0400   -5.1850   11.4340 C.3    15  LEU15       0.0019
      7  CD1        1.1310   -4.9080   12.4580 C.3    15  LEU15       0.0001
      8  CD2       -0.9290   -6.2490   11.9440 C.3    15  LEU15       0.0001
      9  N         -1.8600   -1.7910    9.0730 N.am   16  GLY16      -0.1942
     10  CA        -2.4100   -0.4790    8.7320 C.3    16  GLY16       0.2014
     11  C         -1.8740    0.0370    7.4090 C.2    16  GLY16       0.2639
     12  O         -0.7680   -0.3090    7.0080 O.2    16  GLY16      -0.2714
     13  N         -2.6630    0.8660    6.7330 N.am   17  SER17      -0.1949
     14  CA        -2.2820    1.4370    5.4390 C.3    17  SER17       0.1924
     15  C         -2.3720    2.9610    5.4830 C.2    17  SER17       0.2314
     16  O         -3.0260    3.5260    6.3620 O.2    17  SER17      -0.2863
     17  CB        -3.1900    0.8920    4.3310 C.3    17  SER17       0.2116
     18  OG        -2.7750    1.3510    3.0550 O.3    17  SER17      -0.2180
     19  N          2.1000    7.0680    3.6070 N.3    20  PHE20      -0.1241
     20  CA         3.4490    6.5570    3.8800 C.3    20  PHE20       0.1605
     21  C          3.6790    5.1820    3.2450 C.2    20  PHE20       0.2264
     22  O          4.7800    4.8820    2.7780 O.2    20  PHE20      -0.2867
     23  CB         3.7010    6.4720    5.3950 C.3    20  PHE20       0.0534
     24  CG         2.8760    5.4180    6.0940 C.ar   20  PHE20      -0.0203
     25  CD1        3.3570    4.1200    6.2360 C.ar   20  PHE20      -0.0042
     26  CD2        1.6180    5.7230    6.6030 C.ar   20  PHE20      -0.0042
     27  CE1        2.5960    3.1460    6.8710 C.ar   20  PHE20      -0.0003
     28  CE2        0.8520    4.7560    7.2420 C.ar   20  PHE20      -0.0003
     29  CZ         1.3390    3.4670    7.3750 C.ar   20  PHE20      -0.0000
     30  N          2.0170   -0.9360    6.9510 N.3    23  VAL23      -0.1245
     31  CA         2.7690   -1.5300    8.0440 C.3    23  VAL23       0.1561
     32  C          2.3500   -2.9880    8.1270 C.2    23  VAL23       0.2260
     33  O          1.1580   -3.2970    8.0500 O.2    23  VAL23      -0.2867
     34  CB         2.4870   -0.8500    9.4030 C.3    23  VAL23       0.0252
     35  CG1        3.6800   -1.0180   10.3230 C.3    23  VAL23       0.0019
     36  CG2        2.1750    0.6230    9.2230 C.3    23  VAL23       0.0019
     37  N          7.4310   -4.7010   13.5270 N.3    38  ALA38      -0.1245
     38  CA         6.5460   -3.9580   12.6440 C.3    38  ALA38       0.1562
     39  C          7.3870   -3.4130   11.5040 C.2    38  ALA38       0.2260
     40  O          8.4150   -2.7820   11.7400 O.2    38  ALA38      -0.2867
     41  CB         5.8630   -2.8160   13.3970 C.3    38  ALA38       0.0290
     42  N          7.6350   -1.0300    8.2260 N.3    40  LYS40      -0.1245
     43  CA         7.1120    0.0800    7.4500 C.3    40  LYS40       0.1561
     44  C          7.6630   -0.0300    6.0290 C.2    40  LYS40       0.2260
     45  O          8.8470    0.2070    5.7960 O.2    40  LYS40      -0.2867
     46  CB         7.5320    1.3950    8.1070 C.3    40  LYS40       0.0271
     47  CG         6.9320    2.6440    7.5110 C.3    40  LYS40       0.0035
     48  CD         7.2380    3.8480    8.3990 C.3    40  LYS40       0.0206
     49  CE         6.9800    5.1670    7.6820 C.3    40  LYS40       0.1093
     50  NZ         7.1580    6.3290    8.5980 N.3    40  LYS40      -0.1314
     51  N         14.7570    9.4430    8.9420 N.3    53  GLU53      -0.1245
     52  CA        13.9860    8.9020   10.0540 C.3    53  GLU53       0.1567
     53  C         14.7870    7.8200   10.7750 C.2    53  GLU53       0.2260
     54  O         14.8720    7.8160   12.0010 O.2    53  GLU53      -0.2867
     55  CB        12.6540    8.3350    9.5540 C.3    53  GLU53       0.0388
     56  CG        11.8500    7.5620   10.5980 C.3    53  GLU53       0.1160
     57  CD        10.4290    7.2630   10.1510 C.2    53  GLU53       0.3649
     58  OE1       10.1440    7.3760    8.9410 O.co2  53  GLU53      -0.2457
     59  OE2        9.5940    6.9160   11.0180 O.co2  53  GLU53      -0.2457
     60  N          9.5410    3.8460   20.5760 N.3    66  VAL66      -0.1245
     61  CA         9.6910    2.7020   19.6760 C.3    66  VAL66       0.1561
     62  C         11.1110    2.6450   19.1100 C.2    66  VAL66       0.2260
     63  O         11.5940    3.6200   18.5500 O.2    66  VAL66      -0.2867
     64  CB         8.7070    2.7610   18.5000 C.3    66  VAL66       0.0252
     65  CG1        9.0080    1.6570   17.5100 C.3    66  VAL66       0.0019
     66  CG2        7.2620    2.6510   18.9960 C.3    66  VAL66       0.0019
     67  N         10.9590   -2.1120   12.9560 N.3    81  MET81      -0.1230
     68  CA        10.8180   -1.5490   14.3000 C.3    81  MET81       0.1702
     69  C         10.2600   -2.5800   15.2810 C.2    81  MET81       0.2592
     70  O          9.6830   -3.5850   14.8700 O.2    81  MET81      -0.2718
     71  CB         9.8540   -0.3620   14.2700 C.3    81  MET81       0.0401
     72  CG        10.2300    0.7520   13.3120 C.3    81  MET81       0.0596
     73  SD         8.8560    1.8890   13.1070 S.3    81  MET81      -0.1393
     74  CE         7.7600    0.9270   12.0590 C.3    81  MET81       0.0692
     75  N         10.4260   -2.3080   16.5770 N.am   82  GLU82      -0.1966
     76  CA         9.7430   -3.0520   17.6340 C.3    82  GLU82       0.1733
     77  C          8.2630   -3.0590   17.3460 C.2    82  GLU82       0.2616
     78  O          7.7170   -2.0380   16.9330 O.2    82  GLU82      -0.2715
     79  CB         9.9100   -2.3760   18.9930 C.3    82  GLU82       0.0429
     80  CG        11.2640   -2.4740   19.6410 C.3    82  GLU82       0.1163
     81  CD        11.3100   -1.7160   20.9720 C.2    82  GLU82       0.3649
     82  OE1       10.5670   -0.7140   21.1260 O.co2  82  GLU82      -0.2457
     83  OE2       12.0910   -2.1220   21.8620 O.co2  82  GLU82      -0.2457
     84  N          7.6140   -4.1890   17.6040 N.am   83  MET83      -0.1963
     85  CA         6.1670   -4.3050   17.4380 C.3    83  MET83       0.1736
     86  C          5.4380   -3.7730   18.6660 C.2    83  MET83       0.2616
     87  O          5.7210   -4.1920   19.7840 O.2    83  MET83      -0.2715
     88  CB         5.7780   -5.7670   17.2170 C.3    83  MET83       0.0427
     89  CG         4.2920   -6.0200   17.0870 C.3    83  MET83       0.0599
     90  SD         3.5780   -5.2960   15.6100 S.3    83  MET83      -0.1393
     91  CE         1.8990   -5.9040   15.6990 C.3    83  MET83       0.0692
     92  N          4.5100   -2.8430   18.4410 N.am   84  ALA84      -0.1963
     93  CA         3.5570   -2.3960   19.4590 C.3    84  ALA84       0.1728
     94  C          2.2000   -2.9800   19.0900 C.2    84  ALA84       0.2616
     95  O          1.4260   -2.3470   18.3720 O.2    84  ALA84      -0.2715
     96  CB         3.4960   -0.8820   19.5050 C.3    84  ALA84       0.0334
     97  N          1.9280   -4.1820   19.5950 N.am   85  GLU85      -0.1963
     98  CA         0.8150   -5.0260   19.1300 C.3    85  GLU85       0.1733
     99  C         -0.5690   -4.3790   19.1780 C.2    85  GLU85       0.2616
    100  O         -1.3810   -4.5940   18.2770 O.2    85  GLU85      -0.2715
    101  CB         0.7680   -6.3330   19.9340 C.3    85  GLU85       0.0429
    102  CG         1.9400   -7.2940   19.6850 C.3    85  GLU85       0.1163
    103  CD         1.7170   -8.2550   18.5240 C.2    85  GLU85       0.3649
    104  OE1        0.5510   -8.5490   18.1830 O.co2  85  GLU85      -0.2457
    105  OE2        2.7220   -8.7440   17.9640 O.co2  85  GLU85      -0.2457
    106  N         -0.8480   -3.6050   20.2240 N.am   86  LEU86      -0.1963
    107  CA        -2.1960   -3.0690   20.4210 C.3    86  LEU86       0.1728
    108  C         -2.4790   -1.8600   19.5270 C.2    86  LEU86       0.2617
    109  O         -3.6270   -1.4300   19.4070 O.2    86  LEU86      -0.2715
    110  CB        -2.4500   -2.7370   21.9000 C.3    86  LEU86       0.0311
    111  CG        -2.9150   -3.8940   22.7960 C.3    86  LEU86       0.0022
    112  CD1       -2.0970   -5.1490   22.5670 C.3    86  LEU86       0.0001
    113  CD2       -2.8610   -3.4840   24.2650 C.3    86  LEU86       0.0001
    114  N         -1.4370   -1.3120   18.9090 N.am   87  GLY87      -0.1941
    115  CA        -1.6070   -0.2960   17.8760 C.3    87  GLY87       0.1998
    116  C         -1.8210    1.1040   18.4110 C.2    87  GLY87       0.2480
    117  O         -1.5660    1.3680   19.5850 O.2    87  GLY87      -0.2729
    118  N         -2.3080    2.0140   17.5500 N.am   88  PRO88      -0.2726
    119  CA        -2.4360    3.4250   17.9140 C.3    88  PRO88       0.1402
    120  C         -3.3320    3.6550   19.1250 C.2    88  PRO88       0.2269
    121  O         -4.4120    3.0730   19.2150 O.2    88  PRO88      -0.2865
    122  CB        -3.0610    4.0580   16.6700 C.3    88  PRO88       0.0296
    123  CG        -2.8070    3.1030   15.5650 C.3    88  PRO88       0.0237
    124  CD        -2.7860    1.7540   16.1810 C.3    88  PRO88       0.0939
    125  N         -7.1360    4.7790   18.3970 N.3    91  LYS91      -0.1245
    126  CA        -8.0250    3.7320   17.9240 C.3    91  LYS91       0.1561
    127  C         -8.2450    2.6780   18.9980 C.2    91  LYS91       0.2260
    128  O         -9.3180    2.0710   19.0570 O.2    91  LYS91      -0.2867
    129  CB        -7.4870    3.1150   16.6300 C.3    91  LYS91       0.0271
    130  CG        -7.7490    4.0200   15.4210 C.3    91  LYS91       0.0035
    131  CD        -6.6800    3.9120   14.3390 C.3    91  LYS91       0.0206
    132  CE        -6.8520    2.6850   13.4730 C.3    91  LYS91       0.1093
    133  NZ        -5.9760    2.7610   12.2780 N.3    91  LYS91      -0.1314
    134  N         -2.5850    9.4070   17.5930 N.3   131  ARG131     -0.1231
    135  CA        -2.3840    8.4400   16.4940 C.3   131  ARG131      0.1694
    136  C         -0.9460    7.8910   16.4010 C.2   131  ARG131      0.2592
    137  O         -0.7260    6.8110   15.8460 O.2   131  ARG131     -0.2718
    138  CB        -2.8050    9.0430   15.1460 C.3   131  ARG131      0.0321
    139  CG        -1.9150   10.1740   14.6780 C.3   131  ARG131      0.0489
    140  CD        -2.4530   10.8900   13.4450 C.3   131  ARG131      0.2205
    141  NE        -1.5920   12.0230   13.1090 N.pl3 131  ARG131     -0.0865
    142  CZ        -1.7000   13.2590   13.6050 C.cat 131  ARG131      0.5346
    143  NH1       -0.8350   14.1920   13.2240 N.pl3 131  ARG131      0.1354
    144  NH2       -2.6620   13.5850   14.4620 N.pl3 131  ARG131      0.1354
    145  N          0.0130    8.6360   16.9450 N.am  132  ASN132     -0.1974
    146  CA         1.4310    8.2780   16.8960 C.3   132  ASN132      0.1688
    147  C          1.9900    7.6650   18.1950 C.2   132  ASN132      0.2292
    148  O          3.1890    7.3970   18.2840 O.2   132  ASN132     -0.2864
    149  CB         2.2410    9.5210   16.4930 C.3   132  ASN132      0.1181
    150  CG         1.9640    9.9500   15.0510 C.2   132  ASN132      0.2629
    151  OD1        1.8810    9.1130   14.1530 O.2   132  ASN132     -0.2716
    152  ND2        1.8100   11.2500   14.8300 N.am  132  ASN132     -0.0877
    153  N          1.7990    4.3320   20.4350 N.3   134  LEU134     -0.1245
    154  CA         1.4380    2.9390   20.1980 C.3   134  LEU134      0.1561
    155  C          1.4690    2.1570   21.5020 C.2   134  LEU134      0.2260
    156  O          2.3220    2.4040   22.3510 O.2   134  LEU134     -0.2867
    157  CB         2.4080    2.3050   19.1940 C.3   134  LEU134      0.0270
    158  CG         2.6850    3.1330   17.9400 C.3   134  LEU134      0.0019
    159  CD1        3.7270    2.4550   17.0750 C.3   134  LEU134      0.0001
    160  CD2        1.4040    3.3670   17.1640 C.3   134  LEU134      0.0001
    161  N          5.9910    6.9030   18.6400 N.3   144  SER144     -0.1202
    162  CA         6.4990    6.5180   17.3250 C.3   144  SER144      0.2020
    163  C          6.4350    7.7010   16.3490 C.2   144  SER144      0.2618
    164  O          6.1840    8.8280   16.7640 O.2   144  SER144     -0.2717
    165  CB         5.7120    5.3210   16.7940 C.3   144  SER144      0.2103
    166  OG         4.3730    5.6870   16.4980 O.3   144  SER144     -0.2182
    167  N          6.6750    7.4280   15.0650 N.am  145  ASP145     -0.1973
    168  CA         6.6380    8.4210   13.9870 C.3   145  ASP145      0.1709
    169  C          7.6620    9.5420   14.1510 C.2   145  ASP145      0.2293
    170  O          7.3360   10.6200   14.6270 O.2   145  ASP145     -0.2864
    171  CB         5.2410    9.0230   13.8260 C.3   145  ASP145      0.1436
    172  CG         5.0470    9.7000   12.4650 C.2   145  ASP145      0.3671
    173  OD1        5.8420    9.4460   11.5330 O.co2 145  ASP145     -0.2456
    174  OD2        4.0910   10.4910   12.3290 O.co2 145  ASP145     -0.2456
@<TRIPOS>BOND
     1    22    21    2
     2    18    17    1
     3    21    20    1
     4    19    20    1
     5    20    23    1
     6    17    14    1
     7    23    24    1
     8    14    15    1
     9    14    13    1
    10    15    16    2
    11    45    44    2
    12    44    43    1
    13    24    25   ar
    14    24    26   ar
    15    25    27   ar
    16    26    28   ar
    17    13    11   am
    18    27    29   ar
    19    30    31    1
    20    12    11    2
    21    28    29   ar
    22    11    10    1
    23    43    46    1
    24    43    42    1
    25    47    46    1
    26    47    48    1
    27    49    48    1
    28    49    50    1
    29    31    32    1
    30    31    34    1
    31    33    32    2
    32    10     9    1
    33     1     2    1
    34    58    57   ar
    35    51    52    1
    36     9     3   am
    37    36    34    1
    38    34    35    1
    39    55    52    1
    40    55    56    1
    41     3     2    1
    42     3     4    2
    43    52    53    1
    44     2     5    1
    45    57    56    1
    46    57    59   ar
    47    53    54    2
    48     5     6    1
    49     6     8    1
    50     6     7    1
    51    39    40    2
    52    39    38    1
    53   173   172   ar
    54    74    73    1
    55   133   132    1
    56   174   172   ar
    57   172   171    1
    58    38    41    1
    59    38    37    1
    60    67    68    1
    61    73    72    1
    62   141   140    1
    63   141   142    2
    64   143   142    1
    65    72    71    1
    66   140   139    1
    67   132   131    1
    68   142   144    1
    69   171   168    1
    70   168   169    1
    71   168   167    1
    72   169   170    2
    73   151   150    2
    74    71    68    1
    75    68    69    1
    76   131   130    1
    77   139   138    1
    78   152   150   am
    79    70    69    2
    80   150   149    1
    81   167   163   am
    82   138   135    1
    83    69    75   am
    84   130   129    1
    85   123   124    1
    86   123   122    1
    87    90    91    1
    88    90    89    1
    89   137   136    2
    90   124   118    1
    91   163   164    2
    92   163   162    1
    93   136   135    1
    94   136   145   am
    95   149   146    1
    96   135   134    1
    97   166   165    1
    98    75    76    1
    99   129   126    1
   100   122   119    1
   101   165   162    1
   102   146   145    1
   103   146   147    1
   104    78    77    2
   105   159   158    1
   106    89    88    1
   107   160   158    1
   108    88    85    1
   109   162   161    1
   110    77    84   am
   111    77    76    1
   112    85    84    1
   113    85    86    1
   114    65    64    1
   115   118   119    1
   116   118   116   am
   117    76    79    1
   118   115   116    1
   119   115   114    1
   120   119   120    1
   121   126   125    1
   122   126   127    1
   123   158   157    1
   124   105   103   ar
   125   104   103   ar
   126   147   148    2
   127   100    99    2
   128    95    94    2
   129   116   117    2
   130    92    86   am
   131    92    93    1
   132    64    66    1
   133    64    61    1
   134   103   102    1
   135    63    62    2
   136    86    87    2
   137   114   108   am
   138    79    80    1
   139   127   128    2
   140    94    93    1
   141    94    97   am
   142    62    61    1
   143   120   121    2
   144    98    99    1
   145    98    97    1
   146    98   101    1
   147    99   106   am
   148   157   154    1
   149   109   108    2
   150    93    96    1
   151   108   107    1
   152    80    81    1
   153    61    60    1
   154   102   101    1
   155   154   153    1
   156   154   155    1
   157   106   107    1
   158   107   110    1
   159    81    82   ar
   160    81    83   ar
   161   155   156    2
   162   110   111    1
   163   112   111    1
   164   111   113    1
