@<TRIPOS>MOLECULE
tmp/4dfpA00.pdb
 187 181 0 0 0
SMALL
GASTEIGER

@<TRIPOS>ATOM
      1  N         24.0900  -30.1800  -11.0710 N.3   280  ARG280     -0.1245
      2  CA        24.7930  -28.9550  -11.4270 C.3   280  ARG280      0.1563
      3  C         26.2720  -29.2560  -11.6230 C.2   280  ARG280      0.2260
      4  O         26.7820  -30.2610  -11.1240 O.2   280  ARG280     -0.2867
      5  CB        24.6470  -27.9090  -10.3220 C.3   280  ARG280      0.0307
      6  CG        23.5350  -26.8940  -10.5300 C.3   280  ARG280      0.0489
      7  CD        23.6710  -25.7650   -9.5200 C.3   280  ARG280      0.2205
      8  NE        22.6920  -24.7000   -9.7120 N.pl3 280  ARG280     -0.0865
      9  CZ        22.6470  -23.5970   -8.9720 C.cat 280  ARG280      0.5346
     10  NH1       23.5260  -23.4190   -7.9950 N.pl3 280  ARG280      0.1354
     11  NH2       21.7270  -22.6700   -9.2060 N.pl3 280  ARG280      0.1354
     12  N         21.6660  -15.6440  -20.2710 N.3   317  ASP317     -0.1225
     13  CA        21.1480  -15.9910  -18.9540 C.3   317  ASP317      0.1805
     14  C         19.6660  -16.3520  -19.0300 C.2   317  ASP317      0.2598
     15  O         18.8420  -15.5230  -19.4150 O.2   317  ASP317     -0.2718
     16  CB        21.3520  -14.8070  -18.0040 C.3   317  ASP317      0.1424
     17  CG        21.2370  -15.1940  -16.5440 C.2   317  ASP317      0.3668
     18  OD1       20.3900  -16.0460  -16.2130 O.co2 317  ASP317     -0.2456
     19  OD2       21.9960  -14.6360  -15.7250 O.co2 317  ASP317     -0.2456
     20  N         19.3290  -17.5870  -18.6620 N.am  318  TYR318     -0.1962
     21  CA        17.9310  -18.0140  -18.6240 C.3   318  TYR318      0.1771
     22  C         17.1170  -17.1360  -17.6770 C.2   318  TYR318      0.2620
     23  O         17.5770  -16.7760  -16.5870 O.2   318  TYR318     -0.2715
     24  CB        17.8050  -19.4840  -18.2090 C.3   318  TYR318      0.0574
     25  CG        18.0580  -20.4920  -19.3160 C.ar  318  TYR318     -0.0198
     26  CD1       17.0870  -20.7640  -20.2740 C.ar  318  TYR318     -0.0009
     27  CD2       19.2530  -21.2000  -19.3780 C.ar  318  TYR318     -0.0009
     28  CE1       17.3080  -21.6910  -21.2770 C.ar  318  TYR318      0.0417
     29  CE2       19.4810  -22.1310  -20.3770 C.ar  318  TYR318      0.0417
     30  CZ        18.5070  -22.3720  -21.3230 C.ar  318  TYR318      0.1957
     31  OH        18.7340  -23.2980  -22.3170 O.3   318  TYR318     -0.2866
     32  N         15.9080  -16.7930  -18.1060 N.am  319  SER319     -0.1936
     33  CA        15.0220  -15.9480  -17.3180 C.3   319  SER319      0.2055
     34  C         14.2530  -16.7560  -16.2800 C.2   319  SER319      0.2643
     35  O         13.4800  -17.6460  -16.6350 O.2   319  SER319     -0.2714
     36  CB        14.0360  -15.2130  -18.2280 C.3   319  SER319      0.2130
     37  OG        13.0220  -14.5830  -17.4650 O.3   319  SER319     -0.2179
     38  N         14.4730  -16.4360  -15.0040 N.am  320  GLN320     -0.1963
     39  CA        13.7150  -17.0190  -13.8930 C.3   320  GLN320      0.1733
     40  C         13.6150  -18.5370  -13.9980 C.2   320  GLN320      0.2616
     41  O         12.5370  -19.1050  -13.8170 O.2   320  GLN320     -0.2715
     42  CB        12.3090  -16.4200  -13.8440 C.3   320  GLN320      0.0408
     43  CG        12.2610  -14.9150  -14.0540 C.3   320  GLN320      0.0908
     44  CD        10.8450  -14.4000  -14.2330 C.2   320  GLN320      0.2608
     45  OE1       10.0310  -14.4560  -13.3110 O.2   320  GLN320     -0.2717
     46  NE2       10.5420  -13.9020  -15.4260 N.am  320  GLN320     -0.0878
     47  N         14.7390  -19.1840  -14.2910 N.am  321  ILE321     -0.1963
     48  CA        14.7200  -20.5660  -14.7730 C.3   321  ILE321      0.1727
     49  C         14.0260  -21.5860  -13.8610 C.2   321  ILE321      0.2616
     50  O         13.2190  -22.3830  -14.3360 O.2   321  ILE321     -0.2715
     51  CB        16.1280  -21.0630  -15.2190 C.3   321  ILE321      0.0290
     52  CG1       16.0030  -22.3630  -16.0140 C.3   321  ILE321      0.0022
     53  CG2       17.0720  -21.2260  -14.0350 C.3   321  ILE321      0.0023
     54  CD1       15.1220  -22.2400  -17.2370 C.3   321  ILE321      0.0001
     55  N         14.3060  -21.5530  -12.5620 N.am  322  GLU322     -0.1977
     56  CA        13.7310  -22.5480  -11.6590 C.3   322  GLU322      0.1602
     57  C         12.2320  -22.3570  -11.4370 C.2   322  GLU322      0.2287
     58  O         11.5120  -23.3200  -11.1710 O.2   322  GLU322     -0.2864
     59  CB        14.4950  -22.6070  -10.3320 C.3   322  GLU322      0.0415
     60  CG        15.8720  -23.2500  -10.4690 C.3   322  GLU322      0.1163
     61  CD        16.5110  -23.5910   -9.1340 C.2   322  GLU322      0.3649
     62  OE1       15.8070  -23.5540   -8.1040 O.co2 322  GLU322     -0.2457
     63  OE2       17.7220  -23.8980   -9.1180 O.co2 322  GLU322     -0.2457
     64  N         10.2510  -11.9380   -9.9980 N.3   346  HIS346     -0.1241
     65  CA        11.3090  -11.2670   -9.2500 C.3   346  HIS346      0.1621
     66  C         11.0610   -9.7650   -9.1590 C.2   346  HIS346      0.2264
     67  O         11.2270   -9.1640   -8.0990 O.2   346  HIS346     -0.2867
     68  CB        12.6730  -11.5370   -9.8870 C.3   346  HIS346      0.0745
     69  CG        13.0910  -12.9720   -9.8310 C.ar  346  HIS346      0.0817
     70  ND1       12.6490  -13.8370   -8.8530 N.ar  346  HIS346     -0.2268
     71  CD2       13.9060  -13.6970  -10.6340 C.ar  346  HIS346      0.1154
     72  CE1       13.1770  -15.0310   -9.0530 C.ar  346  HIS346      0.1986
     73  NE2       13.9430  -14.9740  -10.1280 N.ar  346  HIS346     -0.2212
     74  N         15.8780   -6.2220   -7.4890 N.3   366  ARG366     -0.1231
     75  CA        15.3940   -7.4510   -8.1030 C.3   366  ARG366      0.1694
     76  C         16.2180   -8.6480   -7.6400 C.2   366  ARG366      0.2592
     77  O         15.6830   -9.7370   -7.4280 O.2   366  ARG366     -0.2718
     78  CB        15.4340   -7.3350   -9.6270 C.3   366  ARG366      0.0321
     79  CG        14.8030   -8.5070  -10.3550 C.3   366  ARG366      0.0489
     80  CD        14.7810   -8.2740  -11.8560 C.3   366  ARG366      0.2205
     81  NE        14.1750   -9.3940  -12.5700 N.pl3 366  ARG366     -0.0865
     82  CZ        14.8360  -10.4860  -12.9390 C.cat 366  ARG366      0.5346
     83  NH1       16.1260  -10.6090  -12.6560 N.pl3 366  ARG366      0.1354
     84  NH2       14.2060  -11.4570  -13.5870 N.pl3 366  ARG366      0.1354
     85  N         17.5210   -8.4370   -7.4820 N.am  367  ARG367     -0.1966
     86  CA        18.4150   -9.4810   -6.9980 C.3   367  ARG367      0.1729
     87  C         18.0160   -9.9410   -5.6010 C.2   367  ARG367      0.2616
     88  O         17.9950  -11.1380   -5.3130 O.2   367  ARG367     -0.2715
     89  CB        19.8620   -8.9870   -6.9810 C.3   367  ARG367      0.0348
     90  CG        20.8300   -9.9700   -6.3480 C.3   367  ARG367      0.0492
     91  CD        22.2240   -9.3840   -6.2190 C.3   367  ARG367      0.2205
     92  NE        23.1640  -10.3590   -5.6760 N.pl3 367  ARG367     -0.0865
     93  CZ        23.7980  -11.2670   -6.4100 C.cat 367  ARG367      0.5346
     94  NH1       23.5900  -11.3220   -7.7180 N.pl3 367  ARG367      0.1354
     95  NH2       24.6370  -12.1200   -5.8400 N.pl3 367  ARG367      0.1354
     96  N         17.6990   -8.9810   -4.7380 N.am  368  ALA368     -0.1977
     97  CA        17.2840   -9.2790   -3.3730 C.3   368  ALA368      0.1597
     98  C         15.9850  -10.0790   -3.3580 C.2   368  ALA368      0.2287
     99  O         15.7580  -10.8980   -2.4670 O.2   368  ALA368     -0.2864
    100  CB        17.1250   -7.9930   -2.5770 C.3   368  ALA368      0.0319
    101  N         15.1470  -12.3850   -5.3360 N.3   370  LYS370     -0.1231
    102  CA        15.4330  -13.7850   -5.6270 C.3   370  LYS370      0.1693
    103  C         15.5950  -14.5840   -4.3390 C.2   370  LYS370      0.2592
    104  O         15.2070  -15.7510   -4.2690 O.2   370  LYS370     -0.2718
    105  CB        16.6910  -13.9150   -6.4880 C.3   370  LYS370      0.0285
    106  CG        16.5720  -13.2760   -7.8630 C.3   370  LYS370      0.0035
    107  CD        17.8550  -13.4490   -8.6620 C.3   370  LYS370      0.0206
    108  CE        17.7330  -12.8240  -10.0420 C.3   370  LYS370      0.1093
    109  NZ        18.9770  -13.0070  -10.8440 N.3   370  LYS370     -0.1314
    110  N         16.1750  -13.9500   -3.3240 N.am  371  THR371     -0.1953
    111  CA        16.3200  -14.5730   -2.0150 C.3   371  THR371      0.1897
    112  C         14.9450  -14.8530   -1.4240 C.2   371  THR371      0.2313
    113  O         14.7140  -15.9020   -0.8250 O.2   371  THR371     -0.2863
    114  CB        17.1140  -13.6760   -1.0450 C.3   371  THR371      0.1794
    115  OG1       18.4500  -13.5080   -1.5330 O.3   371  THR371     -0.2208
    116  CG2       17.1650  -14.2940    0.3450 C.3   371  THR371      0.0378
    117  N         12.8190  -17.6100   -4.0420 N.3   374  PHE374     -0.1227
    118  CA        13.3370  -18.9710   -3.9570 C.3   374  PHE374      0.1736
    119  C         13.4350  -19.4500   -2.5120 C.2   374  PHE374      0.2596
    120  O         13.2360  -20.6310   -2.2300 O.2   374  PHE374     -0.2718
    121  CB        14.6900  -19.0910   -4.6630 C.3   374  PHE374      0.0547
    122  CG        14.6180  -18.8440   -6.1420 C.ar  374  PHE374     -0.0202
    123  CD1       13.8810  -19.6860   -6.9600 C.ar  374  PHE374     -0.0042
    124  CD2       15.2830  -17.7730   -6.7150 C.ar  374  PHE374     -0.0042
    125  CE1       13.8060  -19.4640   -8.3190 C.ar  374  PHE374     -0.0003
    126  CE2       15.2130  -17.5470   -8.0780 C.ar  374  PHE374     -0.0003
    127  CZ        14.4710  -18.3920   -8.8790 C.ar  374  PHE374     -0.0000
    128  N         13.7390  -18.5290   -1.6030 N.am  375  GLY375     -0.1957
    129  CA        13.8220  -18.8530   -0.1910 C.3   375  GLY375      0.1869
    130  C         12.5090  -19.3900    0.3440 C.2   375  GLY375      0.2309
    131  O         12.4710  -20.4500    0.9670 O.2   375  GLY375     -0.2863
    132  N         11.4880  -22.8250   -1.1560 N.3   378  TYR378     -0.1241
    133  CA        12.2380  -23.9810   -0.6800 C.3   378  TYR378      0.1605
    134  C         12.2420  -24.1200    0.8430 C.2   378  TYR378      0.2264
    135  O         13.0750  -24.8300    1.4070 O.2   378  TYR378     -0.2867
    136  CB        13.6570  -23.9590   -1.2520 C.3   378  TYR378      0.0534
    137  CG        13.6740  -24.1030   -2.7580 C.ar  378  TYR378     -0.0201
    138  CD1       12.9380  -25.1010   -3.3830 C.ar  378  TYR378     -0.0009
    139  CD2       14.3990  -23.2270   -3.5560 C.ar  378  TYR378     -0.0009
    140  CE1       12.9380  -25.2370   -4.7570 C.ar  378  TYR378      0.0417
    141  CE2       14.4040  -23.3540   -4.9340 C.ar  378  TYR378      0.0417
    142  CZ        13.6730  -24.3610   -5.5280 C.ar  378  TYR378      0.1957
    143  OH        13.6700  -24.4950   -6.8970 O.3   378  TYR378     -0.2866
    144  N         13.7850  -29.7580   -3.7520 N.3   457  ASN457     -0.1240
    145  CA        14.5580  -28.7670   -4.4910 C.3   457  ASN457      0.1653
    146  C         15.2970  -29.4000   -5.6640 C.2   457  ASN457      0.2266
    147  O         15.4220  -28.8000   -6.7300 O.2   457  ASN457     -0.2867
    148  CB        15.5570  -28.0660   -3.5690 C.3   457  ASN457      0.1155
    149  CG        16.5720  -27.2380   -4.3330 C.2   457  ASN457      0.2627
    150  OD1       17.6330  -27.7330   -4.7170 O.2   457  ASN457     -0.2716
    151  ND2       16.2510  -25.9690   -4.5600 N.am  457  ASN457     -0.0877
    152  N         16.0650  -27.7110   -9.3900 N.3   461  GLN461     -0.1245
    153  CA        17.4140  -27.2560   -9.7010 C.3   461  GLN461      0.1566
    154  C         18.0930  -28.2010  -10.6890 C.2   461  GLN461      0.2260
    155  O         18.8010  -27.7640  -11.5970 O.2   461  GLN461     -0.2867
    156  CB        18.2460  -27.1430   -8.4220 C.3   461  GLN461      0.0367
    157  CG        19.6710  -26.6640   -8.6440 C.3   461  GLN461      0.0905
    158  CD        20.4990  -26.6830   -7.3730 C.2   461  GLN461      0.2608
    159  OE1       21.5360  -27.3420   -7.3060 O.2   461  GLN461     -0.2717
    160  NE2       20.0460  -25.9540   -6.3580 N.am  461  GLN461     -0.0878
    161  N         25.9540  -22.0670  -14.0250 N.3   491  HIS491     -0.1226
    162  CA        24.6980  -22.7220  -13.6520 C.3   491  HIS491      0.1752
    163  C         23.5820  -22.5760  -14.6880 C.2   491  HIS491      0.2596
    164  O         23.1690  -23.5630  -15.2990 O.2   491  HIS491     -0.2718
    165  CB        24.2500  -22.2830  -12.2570 C.3   491  HIS491      0.0759
    166  CG        25.3420  -22.3500  -11.2370 C.ar  491  HIS491      0.0818
    167  ND1       25.9420  -23.5350  -10.8710 N.ar  491  HIS491     -0.2268
    168  CD2       25.9580  -21.3780  -10.5240 C.ar  491  HIS491      0.1154
    169  CE1       26.8750  -23.2910   -9.9670 C.ar  491  HIS491      0.1986
    170  NE2       26.9040  -21.9910   -9.7380 N.ar  491  HIS491     -0.2212
    171  N         23.0930  -21.3580  -14.8900 N.am  492  ASP492     -0.1974
    172  CA        22.0970  -21.1340  -15.9320 C.3   492  ASP492      0.1709
    173  C         22.5190  -20.0030  -16.8610 C.2   492  ASP492      0.2293
    174  O         21.7040  -19.4280  -17.5840 O.2   492  ASP492     -0.2864
    175  CB        20.7130  -20.8820  -15.3330 C.3   492  ASP492      0.1436
    176  CG        20.5200  -19.4540  -14.8720 C.2   492  ASP492      0.3671
    177  OD1       19.3830  -18.9630  -14.9880 O.co2 492  ASP492     -0.2456
    178  OD2       21.4820  -18.8270  -14.3760 O.co2 492  ASP492     -0.2456
    179  N         17.9550  -14.0060  -21.5350 N.3   527  GLU527     -0.1245
    180  CA        18.4770  -12.6520  -21.6650 C.3   527  GLU527      0.1567
    181  C         19.9110  -12.7070  -22.1710 C.2   527  GLU527      0.2260
    182  O         20.7160  -13.5080  -21.6950 O.2   527  GLU527     -0.2867
    183  CB        18.4080  -11.9100  -20.3300 C.3   527  GLU527      0.0388
    184  CG        17.0040  -11.4860  -19.9300 C.3   527  GLU527      0.1160
    185  CD        16.3970  -10.4960  -20.9060 C.2   527  GLU527      0.3649
    186  OE1       16.6860   -9.2870  -20.7850 O.co2 527  GLU527     -0.2457
    187  OE2       15.6320  -10.9270  -21.7950 O.co2 527  GLU527     -0.2457
@<TRIPOS>BOND
     1    31    30    1
     2   181   182    2
     3   181   180    1
     4   187   185   ar
     5   180   179    1
     6   180   183    1
     7    30    28   ar
     8    30    29   ar
     9    28    26   ar
    10   185   186   ar
    11   185   184    1
    12    29    27   ar
    13   183   184    1
    14    26    25   ar
    15    12    13    1
    16    15    14    2
    17    27    25   ar
    18    25    24    1
    19    14    13    1
    20    14    20   am
    21    13    16    1
    22    20    21    1
    23    21    24    1
    24    21    22    1
    25    36    37    1
    26    36    33    1
    27    32    22   am
    28    32    33    1
    29    16    17    1
    30    22    23    2
    31   174   173    2
    32    33    34    1
    33    54    52    1
    34   173   172    1
    35    35    34    2
    36    17    18   ar
    37    17    19   ar
    38    34    38   am
    39    52    51    1
    40   172   175    1
    41   172   171    1
    42    46    44   am
    43   175   176    1
    44   164   163    2
    45    51    48    1
    46    51    53    1
    47    38    39    1
    48   177   176   ar
    49   171   163   am
    50   176   178   ar
    51    48    47    1
    52    48    49    1
    53   163   162    1
    54    50    49    2
    55    47    40   am
    56    44    43    1
    57    44    45    2
    58    43    42    1
    59   161   162    1
    60    40    39    1
    61    40    41    2
    62    39    42    1
    63    49    55   am
    64   162   165    1
    65    84    82    1
    66    82    83    1
    67    82    81    2
    68    81    80    1
    69    55    56    1
    70   165   166    1
    71    80    79    1
    72    56    57    1
    73    56    59    1
    74     3     2    1
    75     3     4    2
    76   155   154    2
    77    57    58    2
    78     2     1    1
    79     2     5    1
    80   166   167   ar
    81   166   168   ar
    82   167   169   ar
    83   109   108    1
    84   154   153    1
    85    71    73   ar
    86    71    69   ar
    87     6     5    1
    88     6     7    1
    89   168   170   ar
    90    60    59    1
    91    60    61    1
    92    79    78    1
    93    73    72   ar
    94   108   107    1
    95    64    65    1
    96   169   170   ar
    97    68    69    1
    98    68    65    1
    99    69    70   ar
   100     8     7    1
   101     8     9    2
   102   153   152    1
   103   153   156    1
   104    78    75    1
   105    65    66    1
   106    11     9    1
   107    66    67    2
   108    61    63   ar
   109    61    62   ar
   110    72    70   ar
   111     9    10    1
   112   127   125   ar
   113   127   126   ar
   114   107   106    1
   115   157   156    1
   116   157   158    1
   117   125   123   ar
   118    75    76    1
   119    75    74    1
   120   126   124   ar
   121   106   105    1
   122    94    93    1
   123    76    85   am
   124    76    77    2
   125    85    86    1
   126   158   159    2
   127   158   160   am
   128    86    89    1
   129    86    87    1
   130    89    90    1
   131   123   122   ar
   132   143   142    1
   133   147   146    2
   134   124   122   ar
   135   105   102    1
   136    93    95    1
   137    93    92    2
   138    90    91    1
   139    91    92    1
   140   122   121    1
   141   146   145    1
   142   102   101    1
   143   102   103    1
   144    87    88    2
   145    87    96   am
   146   142   141   ar
   147   142   140   ar
   148   141   139   ar
   149   140   138   ar
   150    96    97    1
   151   150   149    2
   152   121   118    1
   153   151   149   am
   154   145   144    1
   155   145   148    1
   156   103   104    2
   157   103   110   am
   158   149   148    1
   159   117   118    1
   160   118   119    1
   161   139   137   ar
   162   138   137   ar
   163    97    98    1
   164    97   100    1
   165    98    99    2
   166   110   111    1
   167   137   136    1
   168   119   120    2
   169   119   128   am
   170   111   112    1
   171   111   114    1
   172   128   129    1
   173   115   114    1
   174   112   113    2
   175   136   133    1
   176   132   133    1
   177   114   116    1
   178   133   134    1
   179   129   130    1
   180   130   131    2
   181   134   135    2
