@<TRIPOS>MOLECULE
tmp/4dfuA02.pdb
 88 86 0 0 0
SMALL
GASTEIGER

@<TRIPOS>ATOM
      1  N        -14.2160    8.8230  -22.6050 N.3    49  SER49      -0.1202
      2  CA       -13.1870    8.5760  -21.5950 C.3    49  SER49       0.2020
      3  C        -11.8050    8.4960  -22.2210 C.2    49  SER49       0.2618
      4  O        -10.8410    9.0870  -21.7300 O.2    49  SER49      -0.2717
      5  CB       -13.4870    7.2950  -20.8160 C.3    49  SER49       0.2103
      6  OG       -14.7460    7.4110  -20.1770 O.3    49  SER49      -0.2182
      7  N        -11.7290    7.7770  -23.3320 N.am   50  ARG50      -0.1979
      8  CA       -10.4660    7.5600  -23.9950 C.3    50  ARG50       0.1597
      9  C         -9.8940    8.8870  -24.5000 C.2    50  ARG50       0.2287
     10  O         -8.7140    9.1690  -24.2970 O.2    50  ARG50      -0.2864
     11  CB       -10.6330    6.5780  -25.1430 C.3    50  ARG50       0.0334
     12  CG        -9.3420    5.9270  -25.5220 C.3    50  ARG50       0.0492
     13  CD        -9.0680    6.0740  -26.9790 C.3    50  ARG50       0.2205
     14  NE        -7.7880    5.4670  -27.3030 N.pl3  50  ARG50      -0.0865
     15  CZ        -7.6130    4.1620  -27.4840 C.cat  50  ARG50       0.5346
     16  NH1       -8.6440    3.3240  -27.3780 N.pl3  50  ARG50       0.1354
     17  NH2       -6.4040    3.6970  -27.7800 N.pl3  50  ARG50       0.1354
     18  N        -10.4400   11.6880  -23.1860 N.3    52  SER52      -0.1202
     19  CA       -10.0710   12.4810  -22.0260 C.3    52  SER52       0.2020
     20  C         -8.6380   12.2120  -21.5700 C.2    52  SER52       0.2619
     21  O         -8.0030   13.0700  -20.9710 O.2    52  SER52      -0.2717
     22  CB       -11.0370   12.2270  -20.8640 C.3    52  SER52       0.2103
     23  OG       -10.7710   10.9730  -20.2460 O.3    52  SER52      -0.2182
     24  N         -8.1200   11.0120  -21.8530 N.am   53  THR53      -0.1952
     25  CA        -6.7440   10.6930  -21.4850 C.3    53  THR53       0.1897
     26  C         -5.7470   11.3380  -22.4360 C.2    53  THR53       0.2313
     27  O         -4.6520   11.7280  -22.0390 O.2    53  THR53      -0.2863
     28  CB        -6.4970    9.1830  -21.4110 C.3    53  THR53       0.1794
     29  OG1       -6.3520    8.6400  -22.7270 O.3    53  THR53      -0.2208
     30  CG2       -7.6530    8.5460  -20.7380 C.3    53  THR53       0.0378
     31  N        -10.9210   15.6010  -12.7240 N.3    81  PRO81      -0.2102
     32  CA       -11.1070   14.1790  -13.0170 C.3    81  PRO81       0.1504
     33  C        -12.4590   13.7070  -12.5220 C.2    81  PRO81       0.2576
     34  O        -12.9660   14.2350  -11.5290 O.2    81  PRO81      -0.2718
     35  CB       -10.0040   13.4960  -12.1970 C.3    81  PRO81       0.0282
     36  CG        -9.0890   14.6060  -11.7450 C.3    81  PRO81       0.0208
     37  CD        -9.9630   15.8010  -11.6240 C.3    81  PRO81       0.0893
     38  N        -13.0420   12.7430  -13.2230 N.am   82  SER82      -0.1938
     39  CA       -14.2530   12.0810  -12.7680 C.3    82  SER82       0.2055
     40  C        -14.0060   10.5800  -12.8590 C.2    82  SER82       0.2643
     41  O        -12.8880   10.1520  -13.1340 O.2    82  SER82      -0.2714
     42  CB       -15.4550   12.4730  -13.6320 C.3    82  SER82       0.2130
     43  OG       -15.2650   12.0900  -14.9850 O.3    82  SER82      -0.2179
     44  N        -15.0460    9.7960  -12.6130 N.am   83  GLU83      -0.1963
     45  CA       -15.0020    8.3580  -12.8420 C.3    83  GLU83       0.1733
     46  C        -15.1300    8.0800  -14.3380 C.2    83  GLU83       0.2617
     47  O        -14.9020    6.9570  -14.7870 O.2    83  GLU83      -0.2715
     48  CB       -16.1240    7.6500  -12.0730 C.3    83  GLU83       0.0429
     49  CG       -17.5320    8.0430  -12.5030 C.3    83  GLU83       0.1163
     50  CD       -17.9040    9.4550  -12.0770 C.2    83  GLU83       0.3649
     51  OE1      -17.5160    9.8630  -10.9630 O.co2  83  GLU83      -0.2457
     52  OE2      -18.5680   10.1690  -12.8650 O.co2  83  GLU83      -0.2457
     53  N        -15.4890    9.1160  -15.0960 N.am   84  THR84      -0.1937
     54  CA       -15.6710    9.0050  -16.5410 C.3    84  THR84       0.2028
     55  C        -14.5220    9.6320  -17.3290 C.2    84  THR84       0.2642
     56  O        -14.0720    9.0660  -18.3260 O.2    84  THR84      -0.2714
     57  CB       -16.9950    9.6530  -16.9880 C.3    84  THR84       0.1808
     58  OG1      -18.0550    9.2200  -16.1230 O.3    84  THR84      -0.2208
     59  CG2      -17.3210    9.2650  -18.4270 C.3    84  THR84       0.0379
     60  N        -14.0410   10.7930  -16.8750 N.am   85  TYR85      -0.1959
     61  CA       -12.9720   11.5060  -17.5760 C.3    85  TYR85       0.1771
     62  C        -11.7470   11.7390  -16.6990 C.2    85  TYR85       0.2619
     63  O        -11.8550   12.1150  -15.5320 O.2    85  TYR85      -0.2715
     64  CB       -13.4650   12.8500  -18.1040 C.3    85  TYR85       0.0574
     65  CG       -14.6850   12.7470  -18.9700 C.ar   85  TYR85      -0.0198
     66  CD1      -14.6150   12.1830  -20.2310 C.ar   85  TYR85      -0.0009
     67  CD2      -15.9130   13.2130  -18.5280 C.ar   85  TYR85      -0.0009
     68  CE1      -15.7340   12.0860  -21.0380 C.ar   85  TYR85       0.0417
     69  CE2      -17.0420   13.1210  -19.3220 C.ar   85  TYR85       0.0417
     70  CZ       -16.9470   12.5560  -20.5800 C.ar   85  TYR85       0.1957
     71  OH       -18.0770   12.4680  -21.3770 O.3    85  TYR85      -0.2866
     72  N        -10.5770   11.5220  -17.2760 N.am   86  GLN86      -0.1977
     73  CA        -9.3410   11.8060  -16.5770 C.3    86  GLN86       0.1601
     74  C         -9.2120   13.3190  -16.4200 C.2    86  GLN86       0.2287
     75  O         -8.5920   13.8250  -15.4810 O.2    86  GLN86      -0.2864
     76  CB        -8.1590   11.2270  -17.3490 C.3    86  GLN86       0.0394
     77  CG        -6.8630   11.2370  -16.5710 C.3    86  GLN86       0.0908
     78  CD        -5.7780   10.4330  -17.2450 C.2    86  GLN86       0.2608
     79  OE1       -5.7500   10.3150  -18.4650 O.2    86  GLN86      -0.2717
     80  NE2       -4.8830    9.8590  -16.4490 N.am   86  GLN86      -0.0878
     81  N          2.8200    6.6840  -18.0060 N.3   137  ASN137     -0.1240
     82  CA         2.1320    6.5260  -19.2980 C.3   137  ASN137      0.1653
     83  C          2.8380    7.1010  -20.5190 C.2   137  ASN137      0.2266
     84  O          2.5190    6.7330  -21.6490 O.2   137  ASN137     -0.2867
     85  CB         0.7040    7.0860  -19.2510 C.3   137  ASN137      0.1155
     86  CG        -0.2650    6.1410  -18.5820 C.2   137  ASN137      0.2627
     87  OD1       -0.8110    6.4390  -17.5150 O.2   137  ASN137     -0.2716
     88  ND2       -0.4700    4.9740  -19.1960 N.am  137  ASN137     -0.0877
@<TRIPOS>BOND
     1    17    15    1
     2    15    16    1
     3    15    14    2
     4    14    13    1
     5    13    12    1
     6    12    11    1
     7    11     8    1
     8     9    10    2
     9     9     8    1
    10     8     7    1
    11     7     3   am
    12    18    19    1
    13    29    28    1
    14     1     2    1
    15    26    27    2
    16    26    25    1
    17     3     4    2
    18     3     2    1
    19    19    20    1
    20    19    22    1
    21    24    20   am
    22    24    25    1
    23    84    83    2
    24     2     5    1
    25    20    21    2
    26    25    28    1
    27    28    30    1
    28    71    70    1
    29    68    70   ar
    30    68    66   ar
    31    22    23    1
    32     5     6    1
    33    70    69   ar
    34    83    82    1
    35    66    65   ar
    36    69    67   ar
    37    82    85    1
    38    82    81    1
    39    85    86    1
    40    88    86   am
    41    65    67   ar
    42    65    64    1
    43    86    87    2
    44    79    78    2
    45    59    57    1
    46    56    55    2
    47    64    61    1
    48    61    60    1
    49    61    62    1
    50    76    73    1
    51    76    77    1
    52    55    60   am
    53    55    54    1
    54    72    62   am
    55    72    73    1
    56    78    77    1
    57    78    80   am
    58    57    54    1
    59    57    58    1
    60    62    63    2
    61    73    74    1
    62    54    53    1
    63    74    75    2
    64    53    46   am
    65    43    42    1
    66    47    46    2
    67    46    45    1
    68    42    39    1
    69    38    39    1
    70    38    33   am
    71    41    40    2
    72    32    31    1
    73    32    33    1
    74    32    35    1
    75    52    50   ar
    76    40    39    1
    77    40    44   am
    78    45    44    1
    79    45    48    1
    80    31    37    1
    81    33    34    2
    82    49    50    1
    83    49    48    1
    84    35    36    1
    85    50    51   ar
    86    36    37    1
