@<TRIPOS>MOLECULE
tmp/4dfuA01.pdb
 138 131 0 0 0
SMALL
GASTEIGER

@<TRIPOS>ATOM
      1  N        -15.1270   25.3030  -32.5360 N.3    26  SER26      -0.1217
      2  CA       -13.9050   25.6630  -33.2310 C.3    26  SER26       0.1889
      3  C        -13.4330   24.5340  -34.1270 C.2    26  SER26       0.2288
      4  O        -12.9830   24.7540  -35.2500 O.2    26  SER26      -0.2866
      5  CB       -12.8110   25.9850  -32.2250 C.3    26  SER26       0.2089
      6  OG       -11.5420   25.9730  -32.8560 O.3    26  SER26      -0.2183
      7  N        -13.5610   21.0280  -29.8110 N.3    34  ALA34      -0.1245
      8  CA       -12.9250   22.2790  -29.4350 C.3    34  ALA34       0.1562
      9  C        -13.9130   23.4430  -29.5180 C.2    34  ALA34       0.2260
     10  O        -14.7160   23.5240  -30.4710 O.2    34  ALA34      -0.2867
     11  CB       -11.7050   22.5440  -30.3090 C.3    34  ALA34       0.0290
     12  N         -8.8870   28.3210  -26.7990 N.3    42  ILE42      -0.1245
     13  CA        -9.4850   27.0870  -27.2970 C.3    42  ILE42       0.1561
     14  C         -9.7320   26.1610  -26.1200 C.2    42  ILE42       0.2260
     15  O         -8.7920   25.7730  -25.4100 O.2    42  ILE42      -0.2867
     16  CB        -8.6220   26.4040  -28.3720 C.3    42  ILE42       0.0252
     17  CG1       -8.4020   27.3600  -29.5550 C.3    42  ILE42       0.0019
     18  CG2       -9.2790   25.0880  -28.8490 C.3    42  ILE42       0.0019
     19  CD1       -9.6480   27.6360  -30.3780 C.3    42  ILE42       0.0001
     20  N        -11.0240   22.5090  -24.9130 N.3    44  LYS44      -0.1245
     21  CA       -11.2630   21.1370  -25.3630 C.3    44  LYS44       0.1561
     22  C        -12.0700   20.3540  -24.3520 C.2    44  LYS44       0.2260
     23  O        -11.7560   20.3550  -23.1560 O.2    44  LYS44      -0.2867
     24  CB        -9.9550   20.4130  -25.6550 C.3    44  LYS44       0.0271
     25  CG        -9.3110   20.8810  -26.9330 C.3    44  LYS44       0.0035
     26  CD        -7.9600   20.2380  -27.0840 C.3    44  LYS44       0.0206
     27  CE        -7.4740   20.3840  -28.5030 C.3    44  LYS44       0.1093
     28  NZ        -6.1180   19.7860  -28.7020 N.3    44  LYS44      -0.1314
     29  N         -2.0400   15.8840  -23.0950 N.3    58  GLU58      -0.1245
     30  CA        -1.6490   17.1320  -23.7530 C.3    58  GLU58       0.1567
     31  C         -1.2980   18.2020  -22.7130 C.2    58  GLU58       0.2260
     32  O         -0.2520   18.8430  -22.7800 O.2    58  GLU58      -0.2867
     33  CB        -2.7540   17.6270  -24.6870 C.3    58  GLU58       0.0388
     34  CG        -2.4740   19.0140  -25.2810 C.3    58  GLU58       0.1160
     35  CD        -3.3190   19.3450  -26.5140 C.2    58  GLU58       0.3649
     36  OE1       -4.5260   19.0230  -26.5450 O.co2  58  GLU58      -0.2457
     37  OE2       -2.7550   19.9410  -27.4500 O.co2  58  GLU58      -0.2457
     38  N          0.4630   25.7400  -27.8180 N.3    74  PRO74      -0.2116
     39  CA        -0.6210   26.1440  -26.9180 C.3    74  PRO74       0.1372
     40  C         -0.1510   26.1820  -25.4770 C.2    74  PRO74       0.2244
     41  O          0.6370   25.3440  -25.0380 O.2    74  PRO74      -0.2868
     42  CB        -1.6620   25.0290  -27.0790 C.3    74  PRO74       0.0268
     43  CG        -1.3490   24.3840  -28.3940 C.3    74  PRO74       0.0207
     44  CD         0.1530   24.4710  -28.5020 C.3    74  PRO74       0.0892
     45  N         -6.8500   26.3930  -23.5660 N.3    91  PHE91      -0.1227
     46  CA        -5.5140   26.7380  -24.0290 C.3    91  PHE91       0.1736
     47  C         -5.5810   28.1280  -24.6370 C.2    91  PHE91       0.2596
     48  O         -6.6460   28.5400  -25.1060 O.2    91  PHE91      -0.2718
     49  CB        -5.0610   25.7620  -25.1240 C.3    91  PHE91       0.0547
     50  CG        -5.1370   24.3090  -24.7330 C.ar   91  PHE91      -0.0202
     51  CD1       -6.2960   23.5710  -24.9380 C.ar   91  PHE91      -0.0042
     52  CD2       -4.0350   23.6700  -24.1870 C.ar   91  PHE91      -0.0042
     53  CE1       -6.3630   22.2280  -24.5750 C.ar   91  PHE91      -0.0003
     54  CE2       -4.0990   22.3240  -23.8200 C.ar   91  PHE91      -0.0003
     55  CZ        -5.2690   21.6060  -24.0170 C.ar   91  PHE91      -0.0000
     56  N         -4.4560   28.8400  -24.6550 N.am   92  THR92      -0.1939
     57  CA        -4.3600   30.0630  -25.4410 C.3    92  THR92       0.2028
     58  C         -4.6680   29.7380  -26.8930 C.2    92  THR92       0.2642
     59  O         -4.2770   28.6800  -27.4030 O.2    92  THR92      -0.2714
     60  CB        -2.9530   30.6520  -25.3870 C.3    92  THR92       0.1808
     61  OG1       -1.9930   29.5960  -25.5640 O.3    92  THR92      -0.2208
     62  CG2       -2.7220   31.3270  -24.0430 C.3    92  THR92       0.0379
     63  N         -5.3920   30.6230  -27.5640 N.am   93  LYS93      -0.1963
     64  CA        -5.5830   30.4240  -28.9810 C.3    93  LYS93       0.1728
     65  C         -4.3690   30.9330  -29.7430 C.2    93  LYS93       0.2616
     66  O         -3.8950   32.0420  -29.5070 O.2    93  LYS93      -0.2715
     67  CB        -6.8430   31.1050  -29.5020 C.3    93  LYS93       0.0311
     68  CG        -7.0690   30.7820  -30.9770 C.3    93  LYS93       0.0038
     69  CD        -8.3090   31.4290  -31.5430 C.3    93  LYS93       0.0206
     70  CE        -8.4230   31.0970  -33.0260 C.3    93  LYS93       0.1093
     71  NZ        -9.5290   31.8350  -33.6780 N.3    93  LYS93      -0.1314
     72  N         -3.8680   30.1090  -30.6540 N.am   94  ILE94      -0.1963
     73  CA        -2.8010   30.5080  -31.5530 C.3    94  ILE94       0.1727
     74  C         -3.4390   30.9130  -32.8910 C.2    94  ILE94       0.2616
     75  O         -4.0190   30.0780  -33.5780 O.2    94  ILE94      -0.2715
     76  CB        -1.7880   29.3410  -31.7480 C.3    94  ILE94       0.0290
     77  CG1       -1.0530   29.0410  -30.4330 C.3    94  ILE94       0.0022
     78  CG2       -0.8030   29.6520  -32.8540 C.3    94  ILE94       0.0023
     79  CD1        0.0190   27.9840  -30.5460 C.3    94  ILE94       0.0001
     80  N         -3.3640   32.1920  -33.2550 N.am   95  LYS95      -0.1963
     81  CA        -3.9760   32.6340  -34.5170 C.3    95  LYS95       0.1728
     82  C         -3.1320   32.1190  -35.6880 C.2    95  LYS95       0.2617
     83  O         -1.9190   31.9430  -35.5470 O.2    95  LYS95      -0.2715
     84  CB        -4.1400   34.1590  -34.5680 C.3    95  LYS95       0.0311
     85  CG        -4.9670   34.7470  -33.4260 C.3    95  LYS95       0.0038
     86  CD        -6.4740   34.6270  -33.6550 C.3    95  LYS95       0.0206
     87  CE        -7.2350   34.8960  -32.3440 C.3    95  LYS95       0.1093
     88  NZ        -8.7020   34.6070  -32.4260 N.3    95  LYS95      -0.1314
     89  N         -3.7710   31.8480  -36.8220 N.am   96  GLY96      -0.1940
     90  CA        -3.0830   31.2810  -37.9650 C.3    96  GLY96       0.2014
     91  C         -3.9170   30.2490  -38.7060 C.2    96  GLY96       0.2639
     92  O         -4.9860   29.8510  -38.2420 O.2    96  GLY96      -0.2714
     93  N         -3.4250   29.8090  -39.8590 N.am   97  VAL97      -0.1963
     94  CA        -4.1240   28.8130  -40.6540 C.3    97  VAL97       0.1712
     95  C         -3.2480   27.5690  -40.8110 C.2    97  VAL97       0.2458
     96  O         -2.0270   27.6520  -40.6840 O.2    97  VAL97      -0.2730
     97  CB        -4.5090   29.3810  -42.0460 C.3    97  VAL97       0.0289
     98  CG1       -5.2160   30.7070  -41.8970 C.3    97  VAL97       0.0023
     99  CG2       -3.2830   29.5340  -42.9330 C.3    97  VAL97       0.0023
    100  N         -3.8630   26.4030  -41.0760 N.am   98  PRO98      -0.2727
    101  CA        -3.0190   25.2080  -41.1980 C.3    98  PRO98       0.1402
    102  C         -2.1930   25.2350  -42.4830 C.2    98  PRO98       0.2269
    103  O         -2.7020   25.6510  -43.5280 O.2    98  PRO98      -0.2865
    104  CB        -4.0320   24.0500  -41.2360 C.3    98  PRO98       0.0296
    105  CG        -5.3500   24.6460  -40.7830 C.3    98  PRO98       0.0237
    106  CD        -5.2960   26.0840  -41.1880 C.3    98  PRO98       0.0939
    107  N         -2.0320   19.4720  -40.5490 N.3   196  ASP196     -0.1239
    108  CA        -3.1490   20.1390  -39.8960 C.3   196  ASP196      0.1674
    109  C         -2.8240   20.6210  -38.4790 C.2   196  ASP196      0.2266
    110  O         -3.6240   21.3280  -37.8800 O.2   196  ASP196     -0.2867
    111  CB        -4.3820   19.2390  -39.8700 C.3   196  ASP196      0.1410
    112  CG        -4.1370   17.9400  -39.1230 C.2   196  ASP196      0.3668
    113  OD1       -2.9720   17.4790  -39.0790 O.co2 196  ASP196     -0.2456
    114  OD2       -5.1120   17.3730  -38.5810 O.co2 196  ASP196     -0.2456
    115  N          0.5170   25.4940  -37.8390 N.3   199  LEU199     -0.1245
    116  CA        -0.1890   26.7330  -38.1410 C.3   199  LEU199      0.1561
    117  C          0.7430   27.7230  -38.8300 C.2   199  LEU199      0.2260
    118  O          1.9100   27.8410  -38.4770 O.2   199  LEU199     -0.2867
    119  CB        -0.8060   27.3420  -36.8830 C.3   199  LEU199      0.0270
    120  CG        -1.8740   26.4880  -36.1840 C.3   199  LEU199      0.0019
    121  CD1       -2.6500   27.3210  -35.1830 C.3   199  LEU199      0.0001
    122  CD2       -2.8200   25.7940  -37.1660 C.3   199  LEU199      0.0001
    123  N          0.3550   22.7100  -32.8620 N.3   211  ILE211     -0.1231
    124  CA        -0.7550   22.4390  -31.9630 C.3   211  ILE211      0.1692
    125  C         -1.0220   20.9440  -31.7670 C.2   211  ILE211      0.2592
    126  O         -0.3700   20.0950  -32.3850 O.2   211  ILE211     -0.2718
    127  CB        -2.0650   23.0940  -32.4540 C.3   211  ILE211      0.0266
    128  CG1       -2.4150   22.5800  -33.8560 C.3   211  ILE211      0.0019
    129  CG2       -1.9620   24.6300  -32.4000 C.3   211  ILE211      0.0020
    130  CD1       -3.7550   23.0690  -34.3910 C.3   211  ILE211      0.0001
    131  N         -1.9880   20.6580  -30.9030 N.am  212  ASP212     -0.1974
    132  CA        -2.5190   19.3050  -30.6800 C.3   212  ASP212      0.1709
    133  C         -1.4880   18.2760  -30.2470 C.2   212  ASP212      0.2293
    134  O         -1.0920   17.4040  -31.0220 O.2   212  ASP212     -0.2864
    135  CB        -3.3390   18.8400  -31.8900 C.3   212  ASP212      0.1436
    136  CG        -4.5620   19.7280  -32.1190 C.2   212  ASP212      0.3671
    137  OD1       -5.1180   20.2840  -31.1380 O.co2 212  ASP212     -0.2456
    138  OD2       -4.9600   19.8990  -33.2780 O.co2 212  ASP212     -0.2456
@<TRIPOS>BOND
     1   103   102    2
     2    99    97    1
     3   102   101    1
     4    97    98    1
     5    97    94    1
     6   104   101    1
     7   104   105    1
     8   101   100    1
     9   106   100    1
    10   106   105    1
    11   100    95   am
    12    95    96    2
    13    95    94    1
    14    94    93    1
    15   107   108    1
    16   108   111    1
    17   108   109    1
    18   111   112    1
    19    93    91   am
    20   112   113   ar
    21   112   114   ar
    22   117   118    2
    23   117   116    1
    24    91    92    2
    25    91    90    1
    26   109   110    2
    27   116   115    1
    28   116   119    1
    29    90    89    1
    30   122   120    1
    31   119   120    1
    32    89    82   am
    33   120   121    1
    34    82    83    2
    35    82    81    1
    36     4     3    2
    37    84    81    1
    38    84    85    1
    39    81    80    1
    40   130   128    1
    41     3     2    1
    42   128   127    1
    43    71    70    1
    44    86    85    1
    45    86    87    1
    46    75    74    2
    47   138   136   ar
    48    80    74   am
    49     2     1    1
    50     2     5    1
    51    70    69    1
    52    74    73    1
    53   123   124    1
    54     6     5    1
    55    78    76    1
    56   127   129    1
    57   127   124    1
    58    88    87    1
    59   126   125    2
    60   136   135    1
    61   136   137   ar
    62   124   125    1
    63   135   132    1
    64   125   131   am
    65    76    73    1
    66    76    77    1
    67    73    72    1
    68    69    68    1
    69   134   133    2
    70    68    67    1
    71   131   132    1
    72   132   133    1
    73    72    65   am
    74    79    77    1
    75    10     9    2
    76    19    17    1
    77    11     8    1
    78     7     8    1
    79    65    66    2
    80    65    64    1
    81    17    16    1
    82     9     8    1
    83    67    64    1
    84    64    63    1
    85    18    16    1
    86    28    27    1
    87    27    26    1
    88    44    43    1
    89    44    38    1
    90    43    42    1
    91    16    13    1
    92    38    39    1
    93    63    58   am
    94    37    35   ar
    95    59    58    2
    96    13    12    1
    97    13    14    1
    98    26    25    1
    99    42    39    1
   100    25    24    1
   101    39    40    1
   102    58    57    1
   103    36    35   ar
   104    35    34    1
   105    14    15    2
   106    24    21    1
   107    61    60    1
   108    40    41    2
   109    57    60    1
   110    57    56    1
   111    60    62    1
   112    21    20    1
   113    21    22    1
   114    34    33    1
   115    49    50    1
   116    49    46    1
   117    48    47    2
   118    51    50   ar
   119    51    53   ar
   120    50    52   ar
   121    33    30    1
   122    56    47   am
   123    47    46    1
   124    53    55   ar
   125    22    23    2
   126    52    54   ar
   127    46    45    1
   128    55    54   ar
   129    30    29    1
   130    30    31    1
   131    32    31    2
