@<TRIPOS>MOLECULE
tmp/4dfuA00.pdb
 172 165 0 0 0
SMALL
GASTEIGER

@<TRIPOS>ATOM
      1  N        -11.3790   13.0950  -33.1450 N.3    30  ASN30      -0.1225
      2  CA       -11.8710   11.8190  -32.6630 C.3    30  ASN30       0.1785
      3  C        -11.9360   11.7910  -31.1480 C.2    30  ASN30       0.2597
      4  O        -12.6830   10.9990  -30.5710 O.2    30  ASN30      -0.2718
      5  CB       -10.9670   10.6820  -33.1430 C.3    30  ASN30       0.1169
      6  CG       -11.0270   10.4820  -34.6460 C.2    30  ASN30       0.2627
      7  OD1      -10.0030   10.4930  -35.3330 O.2    30  ASN30      -0.2716
      8  ND2      -12.2360   10.2940  -35.1650 N.am   30  ASN30      -0.0877
      9  N        -11.1360   12.6410  -30.5140 N.am   31  ASP31      -0.1974
     10  CA       -10.9770   12.6040  -29.0640 C.3    31  ASP31       0.1709
     11  C        -11.7440   13.7130  -28.3600 C.2    31  ASP31       0.2293
     12  O        -12.3680   13.4920  -27.3150 O.2    31  ASP31      -0.2864
     13  CB        -9.4930   12.6940  -28.7070 C.3    31  ASP31       0.1436
     14  CG        -8.7000   11.4910  -29.1990 C.2    31  ASP31       0.3671
     15  OD1       -9.1410   10.3420  -28.9660 O.co2  31  ASP31      -0.2456
     16  OD2       -7.6450   11.6970  -29.8380 O.co2  31  ASP31      -0.2456
     17  N          4.2070   12.9900  -32.2060 N.3   191  ASN191     -0.1225
     18  CA         3.4990   11.7410  -32.5240 C.3   191  ASN191      0.1785
     19  C          2.2040   11.8770  -33.3320 C.2   191  ASN191      0.2597
     20  O          1.5380   10.8750  -33.6110 O.2   191  ASN191     -0.2718
     21  CB         3.2590   10.8830  -31.2730 C.3   191  ASN191      0.1169
     22  CG         3.1200    9.4090  -31.6000 C.2   191  ASN191      0.2627
     23  OD1        3.6770    8.9330  -32.5880 O.2   191  ASN191     -0.2716
     24  ND2        2.3710    8.6780  -30.7710 N.am  191  ASN191     -0.0877
     25  N          1.8340   13.1050  -33.6810 N.am  192  ASP192     -0.1974
     26  CA         0.7660   13.3420  -34.6480 C.3   192  ASP192      0.1709
     27  C          1.1570   14.5910  -35.4340 C.2   192  ASP192      0.2293
     28  O          0.3500   15.5060  -35.6420 O.2   192  ASP192     -0.2864
     29  CB        -0.5900   13.5280  -33.9630 C.3   192  ASP192      0.1436
     30  CG        -1.7590   13.4510  -34.9500 C.2   192  ASP192      0.3671
     31  OD1       -1.5600   12.9930  -36.0960 O.co2 192  ASP192     -0.2456
     32  OD2       -2.8820   13.8440  -34.5810 O.co2 192  ASP192     -0.2456
     33  N          1.4870   16.3940  -38.2130 N.3   194  SER194     -0.1217
     34  CA         0.9530   16.4460  -39.5630 C.3   194  SER194      0.1889
     35  C          0.5620   17.8700  -39.9130 C.2   194  SER194      0.2288
     36  O          0.5160   18.7520  -39.0370 O.2   194  SER194     -0.2866
     37  CB        -0.2470   15.5080  -39.7230 C.3   194  SER194      0.2089
     38  OG        -1.2700   15.8010  -38.7860 O.3   194  SER194     -0.2183
     39  N         -2.0320   19.4720  -40.5490 N.3   196  ASP196     -0.1225
     40  CA        -3.1490   20.1390  -39.8960 C.3   196  ASP196      0.1805
     41  C         -2.8240   20.6210  -38.4790 C.2   196  ASP196      0.2597
     42  O         -3.6240   21.3280  -37.8800 O.2   196  ASP196     -0.2718
     43  CB        -4.3820   19.2390  -39.8700 C.3   196  ASP196      0.1424
     44  CG        -4.1370   17.9400  -39.1230 C.2   196  ASP196      0.3668
     45  OD1       -2.9720   17.4790  -39.0790 O.co2 196  ASP196     -0.2456
     46  OD2       -5.1120   17.3730  -38.5810 O.co2 196  ASP196     -0.2456
     47  N         -1.6610   20.2430  -37.9530 N.am  197  HIS197     -0.1975
     48  CA        -1.2270   20.7140  -36.6320 C.3   197  HIS197      0.1656
     49  C         -0.0750   21.6900  -36.7200 C.2   197  HIS197      0.2291
     50  O          0.5730   22.0000  -35.7150 O.2   197  HIS197     -0.2864
     51  CB        -0.8820   19.5330  -35.7390 C.3   197  HIS197      0.0771
     52  CG        -2.0180   18.5930  -35.5680 C.ar  197  HIS197      0.0820
     53  ND1       -1.8670   17.2300  -35.5080 N.ar  197  HIS197     -0.2267
     54  CD2       -3.3530   18.8270  -35.4990 C.ar  197  HIS197      0.1154
     55  CE1       -3.0540   16.6600  -35.3860 C.ar  197  HIS197      0.1986
     56  NE2       -3.9720   17.6100  -35.3750 N.ar  197  HIS197     -0.2212
     57  N         -1.3500   13.3260  -28.5700 N.3   215  ASP215     -0.1239
     58  CA        -0.7500   12.0360  -28.9020 C.3   215  ASP215      0.1674
     59  C          0.7090   11.9590  -28.4880 C.2   215  ASP215      0.2266
     60  O          1.3610   10.9300  -28.6710 O.2   215  ASP215     -0.2867
     61  CB        -0.8530   11.7650  -30.4060 C.3   215  ASP215      0.1410
     62  CG        -2.2670   11.4070  -30.8320 C.2   215  ASP215      0.3668
     63  OD1       -3.0680   11.0050  -29.9610 O.co2 215  ASP215     -0.2456
     64  OD2       -2.5850   11.5220  -32.0290 O.co2 215  ASP215     -0.2456
     65  N          5.0880   10.8390  -40.4150 N.3   227  SER227     -0.1217
     66  CA         3.7560   11.4520  -40.3970 C.3   227  SER227      0.1889
     67  C          3.6060   12.5850  -41.4270 C.2   227  SER227      0.2288
     68  O          2.5120   12.8340  -41.9090 O.2   227  SER227     -0.2866
     69  CB         3.4130   11.9740  -39.0030 C.3   227  SER227      0.2089
     70  OG         4.2600   13.0510  -38.6410 O.3   227  SER227     -0.2183
     71  N          3.4830   11.4440  -46.0740 N.3   229  GLU229     -0.1245
     72  CA         2.4280   10.9000  -46.9310 C.3   229  GLU229      0.1567
     73  C          2.1340   11.7980  -48.1230 C.2   229  GLU229      0.2260
     74  O          2.1620   13.0260  -48.0090 O.2   229  GLU229     -0.2867
     75  CB         1.1310   10.7240  -46.1490 C.3   229  GLU229      0.0388
     76  CG         1.2850   10.2260  -44.7210 C.3   229  GLU229      0.1160
     77  CD        -0.0640   10.0850  -44.0190 C.2   229  GLU229      0.3649
     78  OE1       -1.1030   10.4000  -44.6520 O.co2 229  GLU229     -0.2457
     79  OE2       -0.0760    9.6580  -42.8410 O.co2 229  GLU229     -0.2457
     80  N         -0.8640   11.5800  -50.1190 N.3   231  ASP231     -0.1225
     81  CA        -2.2860   11.9240  -50.1860 C.3   231  ASP231      0.1805
     82  C         -2.6300   13.1830  -49.3980 C.2   231  ASP231      0.2598
     83  O         -3.0330   14.1870  -49.9800 O.2   231  ASP231     -0.2718
     84  CB        -3.1660   10.7740  -49.6810 C.3   231  ASP231      0.1424
     85  CG        -3.3310    9.6520  -50.7020 C.2   231  ASP231      0.3668
     86  OD1       -3.2920    9.9270  -51.9270 O.co2 231  ASP231     -0.2456
     87  OD2       -3.5080    8.4890  -50.2680 O.co2 231  ASP231     -0.2456
     88  N         -2.4850   13.1140  -48.0760 N.am  232  GLU232     -0.1965
     89  CA        -2.9380   14.1880  -47.1880 C.3   232  GLU232      0.1733
     90  C         -1.8020   15.0180  -46.5860 C.2   232  GLU232      0.2616
     91  O         -2.0660   15.9490  -45.8310 O.2   232  GLU232     -0.2715
     92  CB        -3.7850   13.6200  -46.0350 C.3   232  GLU232      0.0429
     93  CG        -5.0660   12.8790  -46.4400 C.3   232  GLU232      0.1163
     94  CD        -5.8810   12.3780  -45.2400 C.2   232  GLU232      0.3649
     95  OE1       -5.4390   12.5820  -44.0810 O.co2 232  GLU232     -0.2457
     96  OE2       -6.9650   11.7870  -45.4610 O.co2 232  GLU232     -0.2457
     97  N         -0.5520   14.6760  -46.8910 N.am  233  GLU233     -0.1977
     98  CA         0.5770   15.3840  -46.2880 C.3   233  GLU233      0.1602
     99  C          1.5490   15.9970  -47.3120 C.2   233  GLU233      0.2287
    100  O          1.1530   16.3020  -48.4420 O.2   233  GLU233     -0.2864
    101  CB         1.2920   14.5080  -45.2500 C.3   233  GLU233      0.0415
    102  CG         0.3420   13.8890  -44.2130 C.3   233  GLU233      0.1163
    103  CD        -0.4530   14.9320  -43.4190 C.2   233  GLU233      0.3649
    104  OE1        0.0430   16.0670  -43.2410 O.co2 233  GLU233     -0.2457
    105  OE2       -1.5750   14.6100  -42.9660 O.co2 233  GLU233     -0.2457
    106  N          4.7710    1.6670  -42.1310 N.3   259  LYS259     -0.1231
    107  CA         3.6820    2.3840  -41.4760 C.3   259  LYS259      0.1693
    108  C          2.4650    2.4880  -42.3910 C.2   259  LYS259      0.2591
    109  O          1.3230    2.3600  -41.9440 O.2   259  LYS259     -0.2718
    110  CB         4.1340    3.7840  -41.0360 C.3   259  LYS259      0.0285
    111  CG         3.0310    4.6550  -40.4340 C.3   259  LYS259      0.0035
    112  CD         2.6460    4.2160  -39.0130 C.3   259  LYS259      0.0206
    113  CE         1.8100    5.2930  -38.2930 C.3   259  LYS259      0.1093
    114  NZ         0.5500    5.6250  -39.0340 N.3   259  LYS259     -0.1314
    115  N          2.7070    2.7090  -43.6780 N.am  260  GLU260     -0.1979
    116  CA         1.5990    2.8680  -44.6240 C.3   260  GLU260      0.1602
    117  C          0.8310    1.5530  -44.7960 C.2   260  GLU260      0.2287
    118  O         -0.4020    1.5370  -44.8190 O.2   260  GLU260     -0.2864
    119  CB         2.0860    3.4000  -45.9800 C.3   260  GLU260      0.0415
    120  CG         2.5370    4.8730  -45.9420 C.3   260  GLU260      0.1163
    121  CD         1.5020    5.8050  -45.2960 C.2   260  GLU260      0.3649
    122  OE1        0.4590    6.0710  -45.9340 O.co2 260  GLU260     -0.2457
    123  OE2        1.7310    6.2590  -44.1420 O.co2 260  GLU260     -0.2457
    124  N         -1.4360    0.6370  -41.7120 N.3   263  TRP263     -0.1241
    125  CA        -2.6460    1.4270  -41.5080 C.3   263  TRP263      0.1605
    126  C         -3.9330    0.5990  -41.5060 C.2   263  TRP263      0.2264
    127  O         -4.8430    0.8600  -40.7240 O.2   263  TRP263     -0.2867
    128  CB        -2.7090    2.5250  -42.5720 C.3   263  TRP263      0.0550
    129  CG        -3.9490    3.3500  -42.5340 C.ar  263  TRP263      0.0003
    130  CD1       -4.8420    3.5370  -43.5550 C.ar  263  TRP263      0.0946
    131  CD2       -4.4460    4.1020  -41.4210 C.ar  263  TRP263      0.0152
    132  NE1       -5.8580    4.3670  -43.1450 N.ar  263  TRP263     -0.2442
    133  CE2       -5.6410    4.7200  -41.8390 C.ar  263  TRP263      0.0810
    134  CE3       -3.9980    4.3130  -40.1150 C.ar  263  TRP263      0.0012
    135  CZ2       -6.3900    5.5310  -40.9970 C.ar  263  TRP263      0.0191
    136  CZ3       -4.7470    5.1230  -39.2800 C.ar  263  TRP263      0.0001
    137  CH2       -5.9260    5.7260  -39.7280 C.ar  263  TRP263      0.0015
    138  N         -4.4300   -0.7080  -38.0180 N.3   266  GLU266     -0.1245
    139  CA        -4.8350    0.3350  -37.0840 C.3   266  GLU266      0.1567
    140  C         -6.3000    0.6410  -37.2750 C.2   266  GLU266      0.2260
    141  O         -7.0130    0.8700  -36.3150 O.2   266  GLU266     -0.2867
    142  CB        -4.0010    1.5870  -37.3080 C.3   266  GLU266      0.0388
    143  CG        -2.5210    1.2790  -37.2930 C.3   266  GLU266      0.1160
    144  CD        -1.6820    2.4260  -36.7940 C.2   266  GLU266      0.3649
    145  OE1       -1.6830    3.4910  -37.4680 O.co2 266  GLU266     -0.2457
    146  OE2       -1.0240    2.2580  -35.7270 O.co2 266  GLU266     -0.2457
    147  N         -8.2010    0.7220  -33.9220 N.3   270  TYR270     -0.1241
    148  CA        -8.7120    2.0670  -33.6630 C.3   270  TYR270      0.1605
    149  C        -10.2020    2.1140  -34.0030 C.2   270  TYR270      0.2264
    150  O        -10.9860    2.7020  -33.2660 O.2   270  TYR270     -0.2867
    151  CB        -7.9110    3.0580  -34.5100 C.3   270  TYR270      0.0534
    152  CG        -7.9390    4.5200  -34.1140 C.ar  270  TYR270     -0.0201
    153  CD1       -6.7880    5.1500  -33.6420 C.ar  270  TYR270     -0.0009
    154  CD2       -9.1000    5.2930  -34.2590 C.ar  270  TYR270     -0.0009
    155  CE1       -6.7960    6.5010  -33.3060 C.ar  270  TYR270      0.0417
    156  CE2       -9.1160    6.6500  -33.9280 C.ar  270  TYR270      0.0417
    157  CZ        -7.9610    7.2480  -33.4540 C.ar  270  TYR270      0.1957
    158  OH        -7.9610    8.5840  -33.1200 O.3   270  TYR270     -0.2866
    159  N        -14.3360    2.3130  -40.2670 N.3   278  TRP278     -0.1241
    160  CA       -12.9010    2.0180  -40.3010 C.3   278  TRP278      0.1605
    161  C        -12.6230    0.5160  -40.1890 C.2   278  TRP278      0.2264
    162  O        -11.7150   -0.0070  -40.8370 O.2   278  TRP278     -0.2867
    163  CB       -12.1380    2.7750  -39.2040 C.3   278  TRP278      0.0550
    164  CG       -11.7190    4.1540  -39.6270 C.ar  278  TRP278      0.0003
    165  CD1      -12.1510    4.8320  -40.7270 C.ar  278  TRP278      0.0946
    166  CD2      -10.7630    5.0110  -38.9770 C.ar  278  TRP278      0.0152
    167  NE1      -11.5330    6.0640  -40.7990 N.ar  278  TRP278     -0.2442
    168  CE2      -10.6830    6.1980  -39.7350 C.ar  278  TRP278      0.0810
    169  CE3       -9.9780    4.8920  -37.8280 C.ar  278  TRP278      0.0012
    170  CZ2       -9.8440    7.2620  -39.3750 C.ar  278  TRP278      0.0191
    171  CZ3       -9.1440    5.9490  -37.4730 C.ar  278  TRP278      0.0001
    172  CH2       -9.0840    7.1170  -38.2430 C.ar  278  TRP278      0.0015
@<TRIPOS>BOND
     1    86    85   ar
     2    85    87   ar
     3    85    84    1
     4    81    80    1
     5    81    84    1
     6    81    82    1
     7    83    82    2
     8    82    88   am
     9   100    99    2
    10    73    74    2
    11    73    72    1
    12    88    89    1
    13    99    98    1
    14    89    90    1
    15    89    92    1
    16    72    75    1
    17    72    71    1
    18    97    90   am
    19    97    98    1
    20    90    91    2
    21    93    92    1
    22    93    94    1
    23    98   101    1
    24    75    76    1
    25   119   120    1
    26   119   116    1
    27   120   121    1
    28   122   121   ar
    29    96    94   ar
    30   121   123   ar
    31   101   102    1
    32    94    95   ar
    33   118   117    2
    34   117   116    1
    35    76    77    1
    36    78    77   ar
    37   116   115    1
    38   102   103    1
    39    77    79   ar
    40   115   108   am
    41   130   132   ar
    42   130   129   ar
    43   103   104   ar
    44   103   105   ar
    45   132   133   ar
    46   128   129    1
    47   128   125    1
    48   129   131   ar
    49   108   109    2
    50   108   107    1
    51   106   107    1
    52    68    67    2
    53   133   131   ar
    54   133   135   ar
    55   124   125    1
    56   125   126    1
    57   126   127    2
    58   107   110    1
    59    67    66    1
    60   131   134   ar
    61   110   111    1
    62   135   137   ar
    63   162   161    2
    64   167   165   ar
    65   167   168   ar
    66   165   164   ar
    67    39    40    1
    68   111   112    1
    69    65    66    1
    70    66    69    1
    71   160   159    1
    72   160   161    1
    73   160   163    1
    74   134   136   ar
    75    35    34    1
    76    35    36    2
    77    40    43    1
    78    40    41    1
    79    43    44    1
    80   168   170   ar
    81   168   166   ar
    82   137   136   ar
    83    37    34    1
    84    37    38    1
    85   164   163    1
    86   164   166   ar
    87    34    33    1
    88   170   172   ar
    89    44    45   ar
    90    44    46   ar
    91   114   113    1
    92   112   113    1
    93    69    70    1
    94   166   169   ar
    95    41    47   am
    96    41    42    2
    97   172   171   ar
    98   138   139    1
    99    47    48    1
   100   169   171   ar
   101   145   144   ar
   102   142   143    1
   103   142   139    1
   104   143   144    1
   105   140   139    1
   106   140   141    2
   107   144   146   ar
   108    49    48    1
   109    49    50    2
   110    48    51    1
   111    31    30   ar
   112    51    52    1
   113    28    27    2
   114    52    53   ar
   115    52    54   ar
   116    53    55   ar
   117    54    56   ar
   118    27    26    1
   119    55    56   ar
   120     7     6    2
   121     8     6   am
   122    30    32   ar
   123    30    29    1
   124    26    29    1
   125    26    25    1
   126     6     5    1
   127   151   152    1
   128   151   148    1
   129   154   152   ar
   130   154   156   ar
   131   152   153   ar
   132   149   148    1
   133   149   150    2
   134   156   157   ar
   135   147   148    1
   136    25    19   am
   137   153   155   ar
   138    20    19    2
   139   157   155   ar
   140   157   158    1
   141    19    18    1
   142     1     2    1
   143     5     2    1
   144     2     3    1
   145    23    22    2
   146    18    17    1
   147    18    21    1
   148    64    62   ar
   149    22    21    1
   150    22    24   am
   151     3     4    2
   152     3     9   am
   153    62    61    1
   154    62    63   ar
   155     9    10    1
   156    61    58    1
   157    16    14   ar
   158    14    15   ar
   159    14    13    1
   160    10    13    1
   161    10    11    1
   162    58    57    1
   163    58    59    1
   164    60    59    2
   165    11    12    2
