@<TRIPOS>MOLECULE
tmp/4dfwA00.pdb
 213 212 0 0 0
SMALL
GASTEIGER

@<TRIPOS>ATOM
      1  N        -14.8690  -11.6510    9.4240 N.3    40  SER40      -0.1202
      2  CA       -16.2370  -12.1330    9.2050 C.3    40  SER40       0.2020
      3  C        -17.1900  -11.8930   10.3810 C.2    40  SER40       0.2619
      4  O        -18.3860  -11.8410   10.1790 O.2    40  SER40      -0.2717
      5  CB       -16.2240  -13.6150    8.8540 C.3    40  SER40       0.2103
      6  OG       -15.3450  -14.3060    9.6970 O.3    40  SER40      -0.2182
      7  N        -16.6560  -11.7850   11.5920 N.am   41  LYS41      -0.1965
      8  CA       -17.4510  -11.5530   12.8080 C.3    41  LYS41       0.1728
      9  C        -16.6240  -10.7500   13.7920 C.2    41  LYS41       0.2616
     10  O        -15.4020  -10.8680   13.8080 O.2    41  LYS41      -0.2715
     11  CB       -17.8160  -12.8850   13.5090 C.3    41  LYS41       0.0311
     12  CG       -18.4900  -13.9080   12.6170 C.3    41  LYS41       0.0038
     13  CD       -18.9550  -15.1070   13.4160 C.3    41  LYS41       0.0206
     14  CE       -19.7280  -16.0340   12.5420 C.3    41  LYS41       0.1093
     15  NZ       -20.3790  -17.1550   13.2940 N.3    41  LYS41      -0.1314
     16  N        -17.2710   -9.9730   14.6420 N.am   42  TRP42      -0.1960
     17  CA       -16.5560   -9.2920   15.7270 C.3    42  TRP42       0.1771
     18  C        -17.4690   -9.0220   16.9110 C.2    42  TRP42       0.2620
     19  O        -18.7130   -8.8960   16.7750 O.2    42  TRP42      -0.2715
     20  CB       -15.8490   -7.9860   15.2380 C.3    42  TRP42       0.0590
     21  CG       -16.7900   -6.9430   14.6470 C.ar   42  TRP42       0.0006
     22  CD1      -17.0920   -6.7720   13.3310 C.ar   42  TRP42       0.0946
     23  CD2      -17.6170   -6.0150   15.3730 C.ar   42  TRP42       0.0152
     24  NE1      -18.0370   -5.7700   13.1860 N.ar   42  TRP42      -0.2442
     25  CE2      -18.3730   -5.2930   14.4240 C.ar   42  TRP42       0.0810
     26  CE3      -17.7510   -5.7010   16.7230 C.ar   42  TRP42       0.0012
     27  CZ2      -19.2710   -4.2890   14.7910 C.ar   42  TRP42       0.0191
     28  CZ3      -18.6390   -4.7100   17.0920 C.ar   42  TRP42       0.0001
     29  CH2      -19.3920   -4.0210   16.1330 C.ar   42  TRP42       0.0015
     30  N        -16.8220   -8.8910   18.0630 N.am   43  VAL43      -0.1963
     31  CA       -17.4940   -8.6460   19.3440 C.3    43  VAL43       0.1727
     32  C        -16.6850   -7.6240   20.1240 C.2    43  VAL43       0.2616
     33  O        -15.5400   -7.8840   20.5100 O.2    43  VAL43      -0.2715
     34  CB       -17.6230   -9.9530   20.1870 C.3    43  VAL43       0.0290
     35  CG1      -18.3400   -9.6680   21.5300 C.3    43  VAL43       0.0023
     36  CG2      -18.3250  -11.0240   19.4190 C.3    43  VAL43       0.0023
     37  N        -17.2670   -6.4550   20.3480 N.am   44  ASP44      -0.1957
     38  CA       -16.6090   -5.4000   21.1020 C.3    44  ASP44       0.1840
     39  C        -16.9980   -5.5390   22.5830 C.2    44  ASP44       0.2622
     40  O        -18.1070   -5.1530   23.0000 O.2    44  ASP44      -0.2715
     41  CB       -17.0140   -4.0480   20.5220 C.3    44  ASP44       0.1450
     42  CG       -16.5950   -2.8700   21.3790 C.2    44  ASP44       0.3671
     43  OD1      -15.8110   -3.0520   22.3550 O.co2  44  ASP44      -0.2456
     44  OD2      -17.0420   -1.7450   21.0430 O.co2  44  ASP44      -0.2456
     45  N        -16.1320   -6.1760   23.3620 N.am   45  TYR45      -0.1974
     46  CA       -16.3250   -6.2580   24.8210 C.3    45  TYR45       0.1639
     47  C        -15.2220   -5.4210   25.4810 C.2    45  TYR45       0.2290
     48  O        -14.6260   -5.8490   26.4620 O.2    45  TYR45      -0.2864
     49  CB       -16.2950   -7.7220   25.2900 C.3    45  TYR45       0.0560
     50  CG       -16.9850   -8.0470   26.6080 C.ar   45  TYR45      -0.0198
     51  CD1      -16.9560   -9.3430   27.1000 C.ar   45  TYR45      -0.0009
     52  CD2      -17.6510   -7.0770   27.3440 C.ar   45  TYR45      -0.0009
     53  CE1      -17.5590   -9.6750   28.2910 C.ar   45  TYR45       0.0417
     54  CE2      -18.2680   -7.3970   28.5320 C.ar   45  TYR45       0.0417
     55  CZ       -18.2200   -8.7030   28.9950 C.ar   45  TYR45       0.1957
     56  OH       -18.8220   -9.0610   30.1850 O.3    45  TYR45      -0.2866
     57  N        -12.6450   -6.5970   28.4250 N.3    49  TYR49      -0.1241
     58  CA       -11.5780   -7.4860   27.9380 C.3    49  TYR49       0.1605
     59  C        -10.9160   -7.0880   26.6420 C.2    49  TYR49       0.2264
     60  O         -9.7030   -7.1530   26.5450 O.2    49  TYR49      -0.2867
     61  CB       -12.0800   -8.9190   27.8010 C.3    49  TYR49       0.0534
     62  CG       -12.5840   -9.5000   29.0960 C.ar   49  TYR49      -0.0201
     63  CD1      -13.9190   -9.8110   29.2480 C.ar   49  TYR49      -0.0009
     64  CD2      -11.7260   -9.7280   30.1630 C.ar   49  TYR49      -0.0009
     65  CE1      -14.3930  -10.3470   30.4420 C.ar   49  TYR49       0.0417
     66  CE2      -12.1970  -10.2610   31.3590 C.ar   49  TYR49       0.0417
     67  CZ       -13.5160  -10.5690   31.4790 C.ar   49  TYR49       0.1957
     68  OH       -13.9510  -11.0920   32.6720 O.3    49  TYR49      -0.2866
     69  N        -10.7230  -16.5950   27.7550 N.3   104  LEU104     -0.1245
     70  CA       -11.4430  -15.4770   27.1480 C.3   104  LEU104      0.1561
     71  C        -11.6350  -15.6810   25.6380 C.2   104  LEU104      0.2260
     72  O        -12.7370  -15.4470   25.1250 O.2   104  LEU104     -0.2867
     73  CB       -10.7460  -14.1550   27.4260 C.3   104  LEU104      0.0270
     74  CG       -10.6800  -13.7560   28.9130 C.3   104  LEU104      0.0019
     75  CD1       -9.7700  -12.5640   29.1160 C.3   104  LEU104      0.0001
     76  CD2      -12.0560  -13.4700   29.4480 C.3   104  LEU104      0.0001
     77  N        -14.3860  -18.1010   24.9620 N.3   107  TYR107     -0.1227
     78  CA       -15.7100  -17.5410   25.2300 C.3   107  TYR107      0.1736
     79  C        -16.1110  -16.6180   24.0710 C.2   107  TYR107      0.2595
     80  O        -17.2570  -16.6450   23.6190 O.2   107  TYR107     -0.2718
     81  CB       -15.7540  -16.7920   26.5720 C.3   107  TYR107      0.0548
     82  CG       -15.6090  -17.6730   27.8100 C.ar  107  TYR107     -0.0200
     83  CD1      -15.6070  -17.0920   29.0640 C.ar  107  TYR107     -0.0009
     84  CD2      -15.4600  -19.0420   27.7200 C.ar  107  TYR107     -0.0009
     85  CE1      -15.4890  -17.8700   30.2130 C.ar  107  TYR107      0.0417
     86  CE2      -15.3280  -19.8200   28.8660 C.ar  107  TYR107      0.0417
     87  CZ       -15.3470  -19.2150   30.0920 C.ar  107  TYR107      0.1957
     88  OH       -15.2200  -19.9810   31.2330 O.3   107  TYR107     -0.2866
     89  N        -15.1800  -15.8070   23.5620 N.am  108  PHE108     -0.1976
     90  CA       -15.4850  -15.0050   22.3850 C.3   108  PHE108      0.1639
     91  C        -15.8590  -15.9000   21.2110 C.2   108  PHE108      0.2290
     92  O        -16.7960  -15.6330   20.4800 O.2   108  PHE108     -0.2864
     93  CB       -14.2780  -14.1620   21.9950 C.3   108  PHE108      0.0560
     94  CG       -14.1620  -12.8450   22.7320 C.ar  108  PHE108     -0.0200
     95  CD1      -13.1490  -12.6330   23.6640 C.ar  108  PHE108     -0.0042
     96  CD2      -15.0370  -11.7860   22.4650 C.ar  108  PHE108     -0.0042
     97  CE1      -13.0210  -11.4160   24.3250 C.ar  108  PHE108     -0.0003
     98  CE2      -14.8930  -10.5520   23.1170 C.ar  108  PHE108     -0.0003
     99  CZ       -13.9010  -10.3680   24.0360 C.ar  108  PHE108     -0.0000
    100  N        -19.3930  -17.2090   21.6500 N.3   111  TYR111     -0.1241
    101  CA       -20.3850  -16.1310   21.4210 C.3   111  TYR111      0.1605
    102  C        -20.5840  -15.8560   19.9280 C.2   111  TYR111      0.2264
    103  O        -21.7150  -15.6970   19.4500 O.2   111  TYR111     -0.2867
    104  CB       -19.9540  -14.8430   22.1660 C.3   111  TYR111      0.0534
    105  CG       -20.9660  -13.7220   22.1780 C.ar  111  TYR111     -0.0201
    106  CD1      -21.7850  -13.5030   23.2890 C.ar  111  TYR111     -0.0009
    107  CD2      -21.0700  -12.8490   21.1030 C.ar  111  TYR111     -0.0009
    108  CE1      -22.6880  -12.4610   23.3020 C.ar  111  TYR111      0.0417
    109  CE2      -21.9620  -11.8030   21.1120 C.ar  111  TYR111      0.0417
    110  CZ       -22.7790  -11.6210   22.2070 C.ar  111  TYR111      0.1957
    111  OH       -23.6930  -10.5730   22.2320 O.3   111  TYR111     -0.2866
    112  N        -24.2830  -16.4140   18.0890 N.3   115  HIS115     -0.1226
    113  CA       -25.1210  -15.2400   17.8140 C.3   115  HIS115      0.1752
    114  C        -24.9370  -14.5670   16.4600 C.2   115  HIS115      0.2596
    115  O        -25.7950  -13.7970   16.0640 O.2   115  HIS115     -0.2718
    116  CB       -24.9110  -14.1670   18.8500 C.3   115  HIS115      0.0759
    117  CG       -25.1900  -14.6050   20.2480 C.ar  115  HIS115      0.0818
    118  ND1      -26.4560  -14.9320   20.6880 N.ar  115  HIS115     -0.2268
    119  CD2      -24.3710  -14.7150   21.3220 C.ar  115  HIS115      0.1154
    120  CE1      -26.4000  -15.2620   21.9660 C.ar  115  HIS115      0.1986
    121  NE2      -25.1470  -15.1310   22.3810 N.ar  115  HIS115     -0.2212
    122  N        -23.8210  -14.7870   15.7710 N.am  116  LEU116     -0.1966
    123  CA       -23.4780  -13.8920   14.6430 C.3   116  LEU116      0.1728
    124  C        -23.3740  -14.5760   13.2920 C.2   116  LEU116      0.2616
    125  O        -22.9930  -15.7590   13.2000 O.2   116  LEU116     -0.2715
    126  CB       -22.1530  -13.1540   14.9210 C.3   116  LEU116      0.0311
    127  CG       -21.9840  -12.5570   16.3310 C.3   116  LEU116      0.0022
    128  CD1      -20.6110  -11.9390   16.5170 C.3   116  LEU116      0.0001
    129  CD2      -23.0630  -11.5290   16.6610 C.3   116  LEU116      0.0001
    130  N        -23.7040  -13.8050   12.2510 N.am  117  LEU117     -0.1977
    131  CA       -23.5410  -14.2300   10.8630 C.3   117  LEU117      0.1596
    132  C        -22.0880  -14.0680   10.4040 C.2   117  LEU117      0.2287
    133  O        -21.3420  -13.2430   10.9390 O.2   117  LEU117     -0.2864
    134  CB       -24.4250  -13.4060    9.9310 C.3   117  LEU117      0.0297
    135  CG       -25.9180  -13.2020   10.2100 C.3   117  LEU117      0.0022
    136  CD1      -26.4930  -12.2510    9.1770 C.3   117  LEU117      0.0001
    137  CD2      -26.6850  -14.5080   10.1810 C.3   117  LEU117      0.0001
    138  N        -19.7740  -12.5790    7.7520 N.3   119  ALA119     -0.1245
    139  CA       -19.7240  -11.6220    6.6440 C.3   119  ALA119      0.1562
    140  C        -18.9660  -12.2450    5.4970 C.2   119  ALA119      0.2260
    141  O        -17.9090  -12.8610    5.6770 O.2   119  ALA119     -0.2867
    142  CB       -19.0570  -10.3240    7.0590 C.3   119  ALA119      0.0290
    143  N        -14.3530    2.5920   16.4500 N.3   142  ARG142     -0.1245
    144  CA       -15.7280    2.7710   16.0350 C.3   142  ARG142      0.1563
    145  C        -15.9760    4.2710   15.8430 C.2   142  ARG142      0.2260
    146  O        -15.5190    5.1040   16.6370 O.2   142  ARG142     -0.2867
    147  CB       -16.6690    2.2020   17.1030 C.3   142  ARG142      0.0307
    148  CG       -18.1400    2.2310   16.7470 C.3   142  ARG142      0.0489
    149  CD       -19.0140    1.7580   17.9120 C.3   142  ARG142      0.2205
    150  NE       -20.4300    1.7960   17.5440 N.pl3 142  ARG142     -0.0865
    151  CZ       -21.1800    0.7220   17.3200 C.cat 142  ARG142      0.5346
    152  NH1      -20.6640   -0.5000   17.4480 N.pl3 142  ARG142      0.1354
    153  NH2      -22.4580    0.8700   16.9810 N.pl3 142  ARG142      0.1354
    154  N        -16.6950   -1.5340    8.1060 N.3   159  ASN159     -0.1225
    155  CA       -18.0420   -2.0810    8.0780 C.3   159  ASN159      0.1785
    156  C        -19.0020   -0.9980    8.5120 C.2   159  ASN159      0.2597
    157  O        -18.9470   -0.5380    9.6590 O.2   159  ASN159     -0.2718
    158  CB       -18.2180   -3.2430    9.0520 C.3   159  ASN159      0.1169
    159  CG       -17.5110   -4.5260    8.6420 C.2   159  ASN159      0.2627
    160  OD1      -16.7270   -4.5930    7.7030 O.2   159  ASN159     -0.2716
    161  ND2      -17.8080   -5.5720    9.3880 N.am  159  ASN159     -0.0877
    162  N        -19.8690   -0.6090    7.5920 N.am  160  PHE160     -0.1962
    163  CA       -20.8230    0.4860    7.8140 C.3   160  PHE160      0.1771
    164  C        -22.0860    0.0190    8.5160 C.2   160  PHE160      0.2619
    165  O        -22.7100   -0.9530    8.1060 O.2   160  PHE160     -0.2715
    166  CB       -21.1570    1.1550    6.4770 C.3   160  PHE160      0.0574
    167  CG       -19.9760    1.8390    5.8420 C.ar  160  PHE160     -0.0200
    168  CD1      -19.1220    1.1410    5.0020 C.ar  160  PHE160     -0.0042
    169  CD2      -19.6940    3.1770    6.1230 C.ar  160  PHE160     -0.0042
    170  CE1      -18.0070    1.7560    4.4410 C.ar  160  PHE160     -0.0003
    171  CE2      -18.5890    3.8020    5.5640 C.ar  160  PHE160     -0.0003
    172  CZ       -17.7510    3.0970    4.7150 C.ar  160  PHE160     -0.0000
    173  N        -22.4430    0.7100    9.5940 N.am  161  PHE161     -0.1974
    174  CA       -23.5810    0.3100   10.4240 C.3   161  PHE161      0.1639
    175  C        -24.9690    0.4620    9.7910 C.2   161  PHE161      0.2290
    176  O        -25.8130   -0.4000    9.9770 O.2   161  PHE161     -0.2864
    177  CB       -23.5840    1.0980   11.7310 C.3   161  PHE161      0.0560
    178  CG       -22.3850    0.8570   12.6090 C.ar  161  PHE161     -0.0200
    179  CD1      -21.5720    1.9040   12.9630 C.ar  161  PHE161     -0.0042
    180  CD2      -22.1040   -0.4020   13.1110 C.ar  161  PHE161     -0.0042
    181  CE1      -20.4810    1.7270   13.7780 C.ar  161  PHE161     -0.0003
    182  CE2      -20.9970   -0.6040   13.9290 C.ar  161  PHE161     -0.0003
    183  CZ       -20.1780    0.4650   14.2610 C.ar  161  PHE161     -0.0000
    184  N        -25.1170   -1.9090    6.3500 N.3   164  HIS164     -0.1241
    185  CA       -24.3440   -3.1530    6.3930 C.3   164  HIS164      0.1621
    186  C        -23.3960   -3.3370    5.2120 C.2   164  HIS164      0.2264
    187  O        -22.9920   -4.4620    4.9150 O.2   164  HIS164     -0.2867
    188  CB       -25.2830   -4.3530    6.5030 C.3   164  HIS164      0.0745
    189  CG       -26.2240   -4.2360    7.6480 C.ar  164  HIS164      0.0817
    190  ND1      -25.8240   -4.4450    8.9500 N.ar  164  HIS164     -0.2268
    191  CD2      -27.5260   -3.8670    7.7030 C.ar  164  HIS164      0.1154
    192  CE1      -26.8520   -4.2430    9.7590 C.ar  164  HIS164      0.1986
    193  NE2      -27.8960   -3.8900    9.0270 N.ar  164  HIS164     -0.2212
    194  N        -19.7560   -3.0180    3.3280 N.3   166  LYS166     -0.1245
    195  CA       -18.4100   -3.2300    3.8470 C.3   166  LYS166      0.1561
    196  C        -17.3780   -3.0090    2.7560 C.2   166  LYS166      0.2260
    197  O        -17.5650   -3.3830    1.5970 O.2   166  LYS166     -0.2867
    198  CB       -18.2690   -4.6470    4.4300 C.3   166  LYS166      0.0271
    199  CG       -19.3540   -4.9970    5.4550 C.3   166  LYS166      0.0035
    200  CD       -19.2890   -6.4470    5.9730 C.3   166  LYS166      0.0206
    201  CE       -20.3020   -6.6550    7.0610 C.3   166  LYS166      0.1093
    202  NZ       -21.6880   -6.4870    6.5510 N.3   166  LYS166     -0.1314
    203  N        -25.5890   -7.9950   -0.1560 N.3   183  ARG183     -0.1245
    204  CA       -24.5510   -8.9910    0.0810 C.3   183  ARG183      0.1563
    205  C        -23.8810   -9.4610   -1.2200 C.2   183  ARG183      0.2260
    206  O        -23.0970  -10.4040   -1.2190 O.2   183  ARG183     -0.2867
    207  CB       -25.0740  -10.1690    0.8880 C.3   183  ARG183      0.0307
    208  CG       -25.5890   -9.7580    2.2580 C.3   183  ARG183      0.0489
    209  CD       -25.5200  -10.9280    3.2150 C.3   183  ARG183      0.2205
    210  NE       -26.1120  -10.6240    4.5100 N.pl3 183  ARG183     -0.0865
    211  CZ       -25.4410  -10.5080    5.6590 C.cat 183  ARG183      0.5346
    212  NH1      -24.1100  -10.6640    5.7230 N.pl3 183  ARG183      0.1354
    213  NH2      -26.1270  -10.2380    6.7600 N.pl3 183  ARG183      0.1354
@<TRIPOS>BOND
     1   205   206    2
     2   205   204    1
     3   203   204    1
     4   204   207    1
     5   207   208    1
     6   197   196    2
     7   208   209    1
     8   196   195    1
     9   209   210    1
    10   194   195    1
    11   195   198    1
    12   198   199    1
    13   170   172   ar
    14   170   168   ar
    15   210   211    2
    16   172   171   ar
    17   187   186    2
    18   168   167   ar
    19   186   185    1
    20   199   200    1
    21   140   141    2
    22   140   139    1
    23   171   169   ar
    24   211   212    1
    25   211   213    1
    26   167   169   ar
    27   167   166    1
    28   200   201    1
    29   184   185    1
    30   185   188    1
    31   166   163    1
    32   188   189    1
    33   202   201    1
    34   139   142    1
    35   139   138    1
    36   162   163    1
    37   162   156   am
    38   189   191   ar
    39   189   190   ar
    40   191   193   ar
    41   160   159    2
    42   163   164    1
    43   155   154    1
    44   155   156    1
    45   155   158    1
    46   165   164    2
    47   156   157    2
    48   164   173   am
    49   159   158    1
    50   159   161   am
    51     5     2    1
    52     5     6    1
    53   190   192   ar
    54   193   192   ar
    55   136   135    1
    56     2     1    1
    57     2     3    1
    58   173   174    1
    59   175   176    2
    60   175   174    1
    61   134   135    1
    62   134   131    1
    63     4     3    2
    64   137   135    1
    65     3     7   am
    66   132   131    1
    67   132   133    2
    68   174   177    1
    69   131   130    1
    70     7     8    1
    71   177   178    1
    72   130   124   am
    73    14    15    1
    74    14    13    1
    75   178   179   ar
    76   178   180   ar
    77    12    13    1
    78    12    11    1
    79     8    11    1
    80     8     9    1
    81   179   181   ar
    82   180   182   ar
    83    24    22   ar
    84    24    25   ar
    85   125   124    2
    86   124   123    1
    87    22    21   ar
    88   181   183   ar
    89     9    10    2
    90     9    16   am
    91   182   183   ar
    92    25    27   ar
    93    25    23   ar
    94    16    17    1
    95   123   126    1
    96   123   122    1
    97    21    20    1
    98    21    23   ar
    99    27    29   ar
   100   126   127    1
   101    20    17    1
   102    23    26   ar
   103    17    18    1
   104   122   114   am
   105   145   144    1
   106   145   146    2
   107   144   143    1
   108   144   147    1
   109   115   114    2
   110    29    28   ar
   111   127   128    1
   112   127   129    1
   113   114   113    1
   114    26    28   ar
   115   148   147    1
   116   148   149    1
   117    19    18    2
   118    18    30   am
   119   153   151    1
   120   151   152    1
   121   151   150    2
   122   150   149    1
   123   113   112    1
   124   113   116    1
   125    30    31    1
   126   116   117    1
   127    31    32    1
   128    31    34    1
   129    36    34    1
   130   103   102    2
   131   102   101    1
   132    32    37   am
   133    32    33    2
   134    34    35    1
   135   117   118   ar
   136   117   119   ar
   137    37    38    1
   138    92    91    2
   139    41    38    1
   140    41    42    1
   141   118   120   ar
   142    44    42   ar
   143    38    39    1
   144   107   109   ar
   145   107   105   ar
   146   109   110   ar
   147    91    90    1
   148   119   121   ar
   149    42    43   ar
   150   101   100    1
   151   101   104    1
   152   120   121   ar
   153    93    90    1
   154    93    94    1
   155   104   105    1
   156   105   106   ar
   157   110   111    1
   158   110   108   ar
   159    90    89    1
   160    96    94   ar
   161    96    98   ar
   162    39    40    2
   163    39    45   am
   164    94    95   ar
   165    98    99   ar
   166   106   108   ar
   167    45    46    1
   168    89    79   am
   169    80    79    2
   170    95    97   ar
   171    99    97   ar
   172    79    78    1
   173    46    49    1
   174    46    47    1
   175    77    78    1
   176    72    71    2
   177    78    81    1
   178    49    50    1
   179    47    48    2
   180    71    70    1
   181    60    59    2
   182    81    82    1
   183    50    51   ar
   184    50    52   ar
   185    59    58    1
   186    51    53   ar
   187    70    73    1
   188    70    69    1
   189    52    54   ar
   190    73    74    1
   191    84    82   ar
   192    84    86   ar
   193    61    58    1
   194    61    62    1
   195    82    83   ar
   196    58    57    1
   197    53    55   ar
   198    54    55   ar
   199    86    87   ar
   200    74    75    1
   201    74    76    1
   202    55    56    1
   203    83    85   ar
   204    62    63   ar
   205    62    64   ar
   206    63    65   ar
   207    87    85   ar
   208    87    88    1
   209    64    66   ar
   210    65    67   ar
   211    66    67   ar
   212    67    68    1
