@<TRIPOS>MOLECULE
tmp/4dg0A00.pdb
 110 106 0 0 0
SMALL
GASTEIGER

@<TRIPOS>ATOM
      1  N        -29.8470  -25.3460   32.8670 N.3     5  SER5       -0.1202
      2  CA       -30.0370  -24.5070   31.6820 C.3     5  SER5        0.2020
      3  C        -28.7240  -24.2880   30.9290 C.2     5  SER5        0.2618
      4  O        -28.7050  -24.2780   29.6970 O.2     5  SER5       -0.2717
      5  CB       -30.6530  -23.1600   32.0660 C.3     5  SER5        0.2103
      6  OG       -29.7970  -22.3550   32.8020 O.3     5  SER5       -0.2182
      7  N        -27.6390  -24.1140   31.6820 N.am    6  VAL6       -0.1979
      8  CA       -26.3020  -23.9180   31.1150 C.3     6  VAL6        0.1595
      9  C        -25.7680  -25.2250   30.5150 C.2     6  VAL6        0.2287
     10  O        -25.1940  -25.2230   29.4210 O.2     6  VAL6       -0.2864
     11  CB       -25.3060  -23.3590   32.1720 C.3     6  VAL6        0.0276
     12  CG1      -23.9460  -23.0690   31.5470 C.3     6  VAL6        0.0022
     13  CG2      -25.8630  -22.0970   32.8270 C.3     6  VAL6        0.0022
     14  N        -27.5370  -26.1230   27.2030 N.3     9  PHE9       -0.1227
     15  CA       -27.0380  -25.2240   26.1650 C.3     9  PHE9        0.1736
     16  C        -25.6670  -25.6660   25.6490 C.2     9  PHE9        0.2595
     17  O        -25.4420  -25.7130   24.4390 O.2     9  PHE9       -0.2718
     18  CB       -26.9720  -23.7750   26.6680 C.3     9  PHE9        0.0547
     19  CG       -26.2110  -22.8530   25.7520 C.ar    9  PHE9       -0.0202
     20  CD1      -26.8220  -22.3090   24.6270 C.ar    9  PHE9       -0.0042
     21  CD2      -24.8760  -22.5420   26.0050 C.ar    9  PHE9       -0.0042
     22  CE1      -26.1210  -21.4690   23.7710 C.ar    9  PHE9       -0.0003
     23  CE2      -24.1650  -21.6990   25.1520 C.ar    9  PHE9       -0.0003
     24  CZ       -24.7900  -21.1610   24.0340 C.ar    9  PHE9       -0.0000
     25  N        -24.7620  -25.9840   26.5740 N.am   10  LEU10      -0.1980
     26  CA       -23.3920  -26.3710   26.2270 C.3    10  LEU10       0.1596
     27  C        -23.3200  -27.7190   25.5090 C.2    10  LEU10       0.2287
     28  O        -22.4740  -27.9110   24.6330 O.2    10  LEU10      -0.2864
     29  CB       -22.4910  -26.3700   27.4680 C.3    10  LEU10       0.0297
     30  CG       -22.1050  -25.0040   28.0520 C.3    10  LEU10       0.0022
     31  CD1      -21.4740  -25.1660   29.4270 C.3    10  LEU10       0.0001
     32  CD2      -21.1770  -24.2270   27.1170 C.3    10  LEU10       0.0001
     33  N        -20.7840  -18.1500   19.1120 N.3    91  PHE91      -0.1241
     34  CA       -21.0220  -17.5000   20.4090 C.3    91  PHE91       0.1605
     35  C        -21.1960  -15.9860   20.2220 C.2    91  PHE91       0.2264
     36  O        -20.5740  -15.4070   19.3300 O.2    91  PHE91      -0.2867
     37  CB       -19.8760  -17.8090   21.3850 C.3    91  PHE91       0.0534
     38  CG       -20.2810  -17.7740   22.8340 C.ar   91  PHE91      -0.0203
     39  CD1      -21.1780  -18.7120   23.3440 C.ar   91  PHE91      -0.0042
     40  CD2      -19.7640  -16.8070   23.6900 C.ar   91  PHE91      -0.0042
     41  CE1      -21.5570  -18.6840   24.6800 C.ar   91  PHE91      -0.0003
     42  CE2      -20.1360  -16.7710   25.0300 C.ar   91  PHE91      -0.0003
     43  CZ       -21.0340  -17.7110   25.5270 C.ar   91  PHE91      -0.0000
     44  N        -17.6610  -15.7710   30.0810 N.3   142  LEU142     -0.1245
     45  CA       -18.6330  -16.6110   29.3830 C.3   142  LEU142      0.1561
     46  C        -18.0580  -17.2210   28.1080 C.2   142  LEU142      0.2260
     47  O        -18.3340  -18.3800   27.7920 O.2   142  LEU142     -0.2867
     48  CB       -19.9070  -15.8210   29.0590 C.3   142  LEU142      0.0270
     49  CG       -20.8210  -15.3980   30.2150 C.3   142  LEU142      0.0019
     50  CD1      -21.8340  -14.3720   29.7330 C.3   142  LEU142      0.0001
     51  CD2      -21.5290  -16.5910   30.8440 C.3   142  LEU142      0.0001
     52  N        -15.7520  -20.0150   29.1690 N.3   145  GLU145     -0.1231
     53  CA       -16.6000  -21.1350   29.5840 C.3   145  GLU145      0.1699
     54  C        -17.0730  -21.9250   28.3580 C.2   145  GLU145      0.2592
     55  O        -17.0490  -23.1570   28.3610 O.2   145  GLU145     -0.2718
     56  CB       -17.7940  -20.6480   30.4090 C.3   145  GLU145      0.0402
     57  CG       -18.6410  -21.7700   31.0270 C.3   145  GLU145      0.1161
     58  CD       -19.8230  -21.2500   31.8300 C.2   145  GLU145      0.3649
     59  OE1      -20.0500  -20.0250   31.8360 O.co2 145  GLU145     -0.2457
     60  OE2      -20.5330  -22.0680   32.4550 O.co2 145  GLU145     -0.2457
     61  N        -17.4820  -21.2020   27.3140 N.am  146  TYR146     -0.1976
     62  CA       -17.9140  -21.8050   26.0530 C.3   146  TYR146      0.1639
     63  C        -16.7680  -22.5420   25.3510 C.2   146  TYR146      0.2290
     64  O        -16.8880  -23.7290   25.0370 O.2   146  TYR146     -0.2864
     65  CB       -18.5120  -20.7330   25.1290 C.3   146  TYR146      0.0560
     66  CG       -18.7430  -21.1880   23.7010 C.ar  146  TYR146     -0.0198
     67  CD1      -19.8660  -21.9440   23.3620 C.ar  146  TYR146     -0.0009
     68  CD2      -17.8420  -20.8550   22.6880 C.ar  146  TYR146     -0.0009
     69  CE1      -20.0840  -22.3610   22.0520 C.ar  146  TYR146      0.0417
     70  CE2      -18.0470  -21.2710   21.3760 C.ar  146  TYR146      0.0417
     71  CZ       -19.1710  -22.0220   21.0660 C.ar  146  TYR146      0.1957
     72  OH       -19.3810  -22.4320   19.7680 O.3   146  TYR146     -0.2866
     73  N        -17.3380  -16.6280   38.6840 N.3   281  LYS281     -0.1245
     74  CA       -18.7040  -16.1080   38.5610 C.3   281  LYS281      0.1561
     75  C        -19.3340  -15.6920   39.8930 C.2   281  LYS281      0.2260
     76  O        -20.0760  -14.7090   39.9500 O.2   281  LYS281     -0.2867
     77  CB       -19.6070  -17.1300   37.8720 C.3   281  LYS281      0.0271
     78  CG       -19.4880  -17.1660   36.3600 C.3   281  LYS281      0.0035
     79  CD       -20.4120  -18.2350   35.8040 C.3   281  LYS281      0.0206
     80  CE       -20.7410  -17.9900   34.3510 C.3   281  LYS281      0.1093
     81  NZ       -21.5780  -19.0930   33.8100 N.3   281  LYS281     -0.1314
     82  N        -26.7960  -14.0540   32.6970 N.3   292  ILE292     -0.1245
     83  CA       -27.7380  -14.3440   31.6140 C.3   292  ILE292      0.1561
     84  C        -27.9870  -13.0950   30.7620 C.2   292  ILE292      0.2260
     85  O        -27.9850  -13.1690   29.5310 O.2   292  ILE292     -0.2867
     86  CB       -29.0750  -14.9350   32.1540 C.3   292  ILE292      0.0252
     87  CG1      -28.8430  -16.2960   32.8370 C.3   292  ILE292      0.0019
     88  CG2      -30.1350  -15.0390   31.0480 C.3   292  ILE292      0.0019
     89  CD1      -28.1830  -17.3710   31.9610 C.3   292  ILE292      0.0001
     90  N        -25.0370  -12.4890   28.4970 N.3   295  TYR295     -0.1227
     91  CA       -25.1300  -13.4200   27.3690 C.3   295  TYR295      0.1736
     92  C        -26.1780  -12.9640   26.3490 C.2   295  TYR295      0.2595
     93  O        -25.9270  -12.9830   25.1420 O.2   295  TYR295     -0.2718
     94  CB       -25.4380  -14.8500   27.8440 C.3   295  TYR295      0.0548
     95  CG       -25.7600  -15.8000   26.7070 C.ar  295  TYR295     -0.0200
     96  CD1      -27.0830  -16.1090   26.3840 C.ar  295  TYR295     -0.0009
     97  CD2      -24.7420  -16.3690   25.9370 C.ar  295  TYR295     -0.0009
     98  CE1      -27.3840  -16.9670   25.3310 C.ar  295  TYR295      0.0417
     99  CE2      -25.0330  -17.2280   24.8830 C.ar  295  TYR295      0.0417
    100  CZ       -26.3550  -17.5200   24.5870 C.ar  295  TYR295      0.1957
    101  OH       -26.6480  -18.3660   23.5470 O.3   295  TYR295     -0.2866
    102  N        -27.3420  -12.5540   26.8500 N.am  296  GLN296     -0.1979
    103  CA       -28.4470  -12.0980   26.0050 C.3   296  GLN296      0.1601
    104  C        -28.2260  -10.6840   25.4620 C.2   296  GLN296      0.2287
    105  O        -29.0370  -10.1810   24.6820 O.2   296  GLN296     -0.2864
    106  CB       -29.7750  -12.1740   26.7710 C.3   296  GLN296      0.0394
    107  CG       -30.2260  -13.5940   27.1050 C.3   296  GLN296      0.0908
    108  CD       -31.5840  -13.6520   27.7880 C.2   296  GLN296      0.2608
    109  OE1      -32.3960  -14.5270   27.4930 O.2   296  GLN296     -0.2717
    110  NE2      -31.8350  -12.7240   28.7050 N.am  296  GLN296     -0.0878
@<TRIPOS>BOND
     1    33    34    1
     2    36    35    2
     3    72    71    1
     4    35    34    1
     5    34    37    1
     6    71    70   ar
     7    71    69   ar
     8    70    68   ar
     9    37    38    1
    10    69    67   ar
    11    68    66   ar
    12    38    39   ar
    13    38    40   ar
    14    39    41   ar
    15    67    66   ar
    16   101   100    1
    17    40    42   ar
    18    66    65    1
    19    22    24   ar
    20    22    20   ar
    21    24    23   ar
    22    17    16    2
    23   100    99   ar
    24   100    98   ar
    25    20    19   ar
    26    28    27    2
    27    41    43   ar
    28   105   104    2
    29    99    97   ar
    30    42    43   ar
    31    64    63    2
    32    65    62    1
    33    93    92    2
    34    23    21   ar
    35    98    96   ar
    36    63    62    1
    37   104   103    1
    38    27    26    1
    39    16    15    1
    40    16    25   am
    41    19    21   ar
    42    19    18    1
    43    97    95   ar
    44   103   106    1
    45   103   102    1
    46    62    61    1
    47    15    18    1
    48    15    14    1
    49    26    25    1
    50    26    29    1
    51    92   102   am
    52    92    91    1
    53    96    95   ar
    54    95    94    1
    55   106   107    1
    56   107   108    1
    57    32    30    1
    58    61    54   am
    59    91    94    1
    60    91    90    1
    61    29    30    1
    62   109   108    2
    63   108   110   am
    64    47    46    2
    65    30    31    1
    66    46    45    1
    67    54    55    2
    68    54    53    1
    69    48    45    1
    70    48    49    1
    71    52    53    1
    72    45    44    1
    73    10     9    2
    74    85    84    2
    75    53    56    1
    76     4     3    2
    77    50    49    1
    78    49    51    1
    79    56    57    1
    80     9     8    1
    81    84    83    1
    82     3     7   am
    83     3     2    1
    84    57    58    1
    85    88    86    1
    86     8     7    1
    87     8    11    1
    88    12    11    1
    89    83    86    1
    90    83    82    1
    91     2     5    1
    92     2     1    1
    93    58    59   ar
    94    58    60   ar
    95    89    87    1
    96     5     6    1
    97    86    87    1
    98    11    13    1
    99    81    80    1
   100    80    79    1
   101    79    78    1
   102    78    77    1
   103    77    74    1
   104    74    73    1
   105    74    75    1
   106    75    76    2
