@<TRIPOS>MOLECULE
tmp/4dg8A00.pdb
 167 157 0 0 0
SMALL
GASTEIGER

@<TRIPOS>ATOM
      1  N          2.5430   20.3540   20.6520 N.3   200  ASP200     -0.1239
      2  CA         3.2560   20.5000   21.9200 C.3   200  ASP200      0.1674
      3  C          2.3230   20.5800   23.1340 C.2   200  ASP200      0.2266
      4  O          2.7950   20.7360   24.2590 O.2   200  ASP200     -0.2867
      5  CB         4.3100   21.6360   21.9230 C.3   200  ASP200      0.1410
      6  CG         3.6920   23.0220   21.8520 C.2   200  ASP200      0.3668
      7  OD1        4.4580   24.0090   21.8620 O.co2 200  ASP200     -0.2456
      8  OD2        2.4480   23.1280   21.7870 O.co2 200  ASP200     -0.2456
      9  N         -7.4140   26.2920   25.4580 N.3   268  GLY268     -0.1210
     10  CA        -6.7220   27.3440   24.7320 C.3   268  GLY268      0.1956
     11  C         -6.4470   26.9470   23.2940 C.2   268  GLY268      0.2612
     12  O         -7.1810   26.1410   22.7100 O.2   268  GLY268     -0.2717
     13  N         -5.4000   27.5290   22.7060 N.am  269  GLY269     -0.1942
     14  CA        -5.0490   27.2080   21.3360 C.3   269  GLY269      0.2014
     15  C         -5.7760   28.0990   20.3520 C.2   269  GLY269      0.2639
     16  O         -5.3100   28.3100   19.2450 O.2   269  GLY269     -0.2714
     17  N         -6.9250   28.6200   20.7750 N.am  270  ASP270     -0.1957
     18  CA        -7.6810   29.6400   20.0550 C.3   270  ASP270      0.1840
     19  C         -8.3220   30.5390   21.0950 C.2   270  ASP270      0.2622
     20  O         -8.3120   30.2200   22.2880 O.2   270  ASP270     -0.2715
     21  CB        -8.7890   29.0260   19.2000 C.3   270  ASP270      0.1450
     22  CG        -8.3280   28.6860   17.8080 C.2   270  ASP270      0.3671
     23  OD1       -7.9860   29.6230   17.0350 O.co2 270  ASP270     -0.2456
     24  OD2       -8.3260   27.4790   17.4860 O.co2 270  ASP270     -0.2456
     25  N         -8.8720   31.6580   20.6380 N.am  271  ILE271     -0.1963
     26  CA        -9.6730   32.5280   21.4860 C.3   271  ILE271      0.1727
     27  C        -10.7870   31.7050   22.1380 C.2   271  ILE271      0.2616
     28  O        -11.5850   31.0390   21.4570 O.2   271  ILE271     -0.2715
     29  CB       -10.2670   33.6860   20.6470 C.3   271  ILE271      0.0290
     30  CG1       -9.1710   34.6670   20.2540 C.3   271  ILE271      0.0022
     31  CG2      -11.4220   34.4460   21.3920 C.3   271  ILE271      0.0023
     32  CD1       -9.6240   35.6710   19.1420 C.3   271  ILE271      0.0001
     33  N        -10.8390   31.7570   23.4640 N.am  272  LEU272     -0.1977
     34  CA       -11.8460   31.0090   24.1860 C.3   272  LEU272      0.1596
     35  C        -13.2170   31.6500   23.9840 C.2   272  LEU272      0.2287
     36  O        -13.3460   32.8790   23.8560 O.2   272  LEU272     -0.2864
     37  CB       -11.5140   30.9320   25.6820 C.3   272  LEU272      0.0297
     38  CG       -10.1830   30.3260   26.1340 C.3   272  LEU272      0.0022
     39  CD1      -10.2310   30.1530   27.6490 C.3   272  LEU272      0.0001
     40  CD2       -9.8990   28.9890   25.4390 C.3   272  LEU272      0.0001
     41  N         -6.8080   29.1980   31.0960 N.3   291  ASN291     -0.1225
     42  CA        -6.6530   29.5790   29.6990 C.3   291  ASN291      0.1785
     43  C         -5.1420   29.6160   29.4530 C.2   291  ASN291      0.2598
     44  O         -4.4500   30.4570   30.0080 O.2   291  ASN291     -0.2718
     45  CB        -7.2840   30.9640   29.4500 C.3   291  ASN291      0.1169
     46  CG        -7.2390   31.3960   27.9800 C.2   291  ASN291      0.2627
     47  OD1       -6.8220   30.6370   27.1040 O.2   291  ASN291     -0.2716
     48  ND2       -7.7030   32.6270   27.7030 N.am  291  ASN291     -0.0877
     49  N         -4.6230   28.6350   28.7110 N.am  292  GLY292     -0.1942
     50  CA        -3.2260   28.6680   28.3080 C.3   292  GLY292      0.2014
     51  C         -3.0180   29.2600   26.9240 C.2   292  GLY292      0.2639
     52  O         -3.6830   28.8530   25.9640 O.2   292  GLY292     -0.2714
     53  N         -1.9970   30.1010   26.7900 N.am  293  TYR293     -0.1959
     54  CA        -1.6840   30.7410   25.5160 C.3   293  TYR293      0.1771
     55  C         -0.1930   30.5890   25.2670 C.2   293  TYR293      0.2620
     56  O          0.6050   30.7530   26.1890 O.2   293  TYR293     -0.2715
     57  CB        -2.0110   32.2420   25.5410 C.3   293  TYR293      0.0574
     58  CG        -1.0800   33.0080   24.6170 C.ar  293  TYR293     -0.0198
     59  CD1       -1.3510   33.1000   23.2600 C.ar  293  TYR293     -0.0009
     60  CD2        0.1020   33.5890   25.0930 C.ar  293  TYR293     -0.0009
     61  CE1       -0.5060   33.7690   22.4040 C.ar  293  TYR293      0.0417
     62  CE2        0.9630   34.2590   24.2390 C.ar  293  TYR293      0.0417
     63  CZ         0.6480   34.3400   22.8840 C.ar  293  TYR293      0.1957
     64  OH         1.4810   34.9860   21.9910 O.3   293  TYR293     -0.2866
     65  N          0.1880   30.2540   24.0410 N.am  294  GLY294     -0.1940
     66  CA         1.5810   30.3930   23.6580 C.3   294  GLY294      0.1998
     67  C          1.8770   29.7660   22.3150 C.2   294  GLY294      0.2481
     68  O          1.1440   28.8720   21.8710 O.2   294  GLY294     -0.2729
     69  N          2.9660   30.2060   21.6630 N.am  295  PRO295     -0.2715
     70  CA         3.3190   29.4910   20.4340 C.3   295  PRO295      0.1536
     71  C          4.3300   28.3760   20.6930 C.2   295  PRO295      0.2599
     72  O          4.9260   28.3000   21.7680 O.2   295  PRO295     -0.2715
     73  CB         3.9290   30.5970   19.5650 C.3   295  PRO295      0.0310
     74  CG         4.5850   31.5290   20.5800 C.3   295  PRO295      0.0237
     75  CD         3.7600   31.4350   21.8520 C.3   295  PRO295      0.0939
     76  N          4.5870   27.5700   19.6740 N.am  296  THR296     -0.1951
     77  CA         5.4650   26.4060   19.8090 C.3   296  THR296      0.1897
     78  C          6.9310   26.8180   20.0400 C.2   296  THR296      0.2313
     79  O          7.6730   26.1420   20.7600 O.2   296  THR296     -0.2863
     80  CB         5.3200   25.4880   18.5630 C.3   296  THR296      0.1794
     81  OG1        3.9510   25.0670   18.4380 O.3   296  THR296     -0.2208
     82  CG2        6.2440   24.2610   18.6410 C.3   296  THR296      0.0378
     83  N          4.9880   25.2050   24.2030 N.3   300  THR300     -0.1218
     84  CA         3.6730   25.0460   24.8430 C.3   300  THR300      0.1862
     85  C          3.0070   26.3380   25.3270 C.2   300  THR300      0.2287
     86  O          2.1040   26.8430   24.6490 O.2   300  THR300     -0.2866
     87  CB         3.6810   23.9460   25.9120 C.3   300  THR300      0.1770
     88  OG1        4.2950   22.7720   25.3630 O.3   300  THR300     -0.2211
     89  CG2        2.2500   23.6110   26.3510 C.3   300  THR300      0.0375
     90  N         -5.6530   35.9860   28.9580 N.3   319  ILE319     -0.1245
     91  CA        -4.6230   34.9570   28.8160 C.3   319  ILE319      0.1561
     92  C         -3.6140   35.1020   29.9530 C.2   319  ILE319      0.2260
     93  O         -2.6570   34.3370   30.0620 O.2   319  ILE319     -0.2867
     94  CB        -3.9220   34.9620   27.4340 C.3   319  ILE319      0.0252
     95  CG1       -3.2400   36.3080   27.1510 C.3   319  ILE319      0.0019
     96  CG2       -4.9270   34.5880   26.3340 C.3   319  ILE319      0.0019
     97  CD1       -2.5180   36.3770   25.7750 C.3   319  ILE319      0.0001
     98  N          6.0780   37.0220   18.7560 N.3   384  THR384     -0.1218
     99  CA         5.0780   36.0000   18.4700 C.3   384  THR384      0.1862
    100  C          4.2170   36.2620   17.2300 C.2   384  THR384      0.2287
    101  O          3.6500   35.3230   16.6480 O.2   384  THR384     -0.2866
    102  CB         4.1080   35.8380   19.6580 C.3   384  THR384      0.1770
    103  OG1        3.5100   37.1050   19.9280 O.3   384  THR384     -0.2211
    104  CG2        4.8290   35.3310   20.9130 C.3   384  THR384      0.0375
    105  N          1.5720   37.7710   17.7720 N.3   386  ASP386     -0.1239
    106  CA         0.2790   37.8990   18.4390 C.3   386  ASP386      0.1674
    107  C          0.0850   39.3140   19.0100 C.2   386  ASP386      0.2266
    108  O          0.9950   39.8990   19.6040 O.2   386  ASP386     -0.2867
    109  CB         0.1160   36.8390   19.5380 C.3   386  ASP386      0.1410
    110  CG         0.0080   35.4350   18.9820 C.2   386  ASP386      0.3668
    111  OD1       -0.7190   35.2280   17.9810 O.co2 386  ASP386     -0.2456
    112  OD2        0.6450   34.5310   19.5510 O.co2 386  ASP386     -0.2456
    113  N         -5.9140   38.8120   24.7920 N.3   398  PHE398     -0.1241
    114  CA        -5.5440   38.4710   23.4190 C.3   398  PHE398      0.1605
    115  C         -6.4260   39.1830   22.3860 C.2   398  PHE398      0.2264
    116  O         -7.6560   39.1860   22.4820 O.2   398  PHE398     -0.2867
    117  CB        -5.6030   36.9620   23.2180 C.3   398  PHE398      0.0534
    118  CG        -5.1560   36.5110   21.8600 C.ar  398  PHE398     -0.0203
    119  CD1       -3.8300   36.1490   21.6350 C.ar  398  PHE398     -0.0042
    120  CD2       -6.0610   36.4340   20.8100 C.ar  398  PHE398     -0.0042
    121  CE1       -3.4140   35.7260   20.3850 C.ar  398  PHE398     -0.0003
    122  CE2       -5.6530   36.0060   19.5580 C.ar  398  PHE398     -0.0003
    123  CZ        -4.3260   35.6560   19.3410 C.ar  398  PHE398     -0.0000
    124  N         -4.1810   38.3870   15.1500 N.3   401  ARG401     -0.1245
    125  CA        -2.9970   38.5230   14.2960 C.3   401  ARG401      0.1563
    126  C         -3.2470   39.4440   13.1120 C.2   401  ARG401      0.2260
    127  O         -4.3840   39.6390   12.6910 O.2   401  ARG401     -0.2867
    128  CB        -2.4970   37.1550   13.8080 C.3   401  ARG401      0.0307
    129  CG        -2.1040   36.2140   14.9460 C.3   401  ARG401      0.0489
    130  CD        -1.6480   34.8800   14.4160 C.3   401  ARG401      0.2205
    131  NE        -0.4040   35.0040   13.6620 N.pl3 401  ARG401     -0.0865
    132  CZ         0.8030   35.0470   14.2140 C.cat 401  ARG401      0.5346
    133  NH1        0.9260   34.9920   15.5410 N.pl3 401  ARG401      0.1354
    134  NH2        1.8830   35.1640   13.4410 N.pl3 401  ARG401      0.1354
    135  N         -2.3110   33.9360    9.2430 N.3   405  GLN405     -0.1245
    136  CA        -2.1630   32.6550    9.9190 C.3   405  GLN405      0.1566
    137  C         -3.4360   32.2370   10.6520 C.2   405  GLN405      0.2260
    138  O         -3.9820   33.0000   11.4530 O.2   405  GLN405     -0.2867
    139  CB        -0.9920   32.7140   10.8940 C.3   405  GLN405      0.0367
    140  CG        -0.9020   31.5160   11.8230 C.3   405  GLN405      0.0905
    141  CD         0.3260   31.5880   12.7320 C.2   405  GLN405      0.2608
    142  OE1        1.4660   31.5960   12.2600 O.2   405  GLN405     -0.2717
    143  NE2        0.0920   31.6520   14.0380 N.am  405  GLN405     -0.0878
    144  N         -5.6230   28.8480   12.7480 N.3   407  LYS407     -0.1245
    145  CA        -5.4550   27.5680   13.4370 C.3   407  LYS407      0.1561
    146  C         -6.4080   26.5230   12.8590 C.2   407  LYS407      0.2260
    147  O         -7.6260   26.6810   12.9400 O.2   407  LYS407     -0.2867
    148  CB        -5.6910   27.7150   14.9490 C.3   407  LYS407      0.0271
    149  CG        -4.6840   28.6110   15.6950 C.3   407  LYS407      0.0035
    150  CD        -3.2910   27.9650   15.7720 C.3   407  LYS407      0.0206
    151  CE        -3.2360   26.7300   16.7060 C.3   407  LYS407      0.1093
    152  NZ        -3.1100   27.0610   18.1630 N.3   407  LYS407     -0.1314
    153  N         -5.6170   22.1950   15.4140 N.3   410  GLY410     -0.1225
    154  CA        -4.4040   22.1080   16.2090 C.3   410  GLY410      0.1811
    155  C         -3.1530   22.6420   15.5400 C.2   410  GLY410      0.2280
    156  O         -2.1600   22.8990   16.2140 O.2   410  GLY410     -0.2866
    157  N         -1.0710   25.5110   13.1800 N.3   412  ARG412     -0.1245
    158  CA        -0.9910   26.7960   12.4970 C.3   412  ARG412      0.1563
    159  C         -0.8400   26.5790   10.9800 C.2   412  ARG412      0.2260
    160  O         -0.1540   25.6600   10.5110 O.2   412  ARG412     -0.2867
    161  CB         0.1780   27.6280   13.0230 C.3   412  ARG412      0.0307
    162  CG        -0.0010   28.1360   14.4340 C.3   412  ARG412      0.0489
    163  CD         1.2950   28.7860   14.9380 C.3   412  ARG412      0.2205
    164  NE         2.3950   27.8270   15.0400 N.pl3 412  ARG412     -0.0865
    165  CZ         3.5750   28.1020   15.5950 C.cat 412  ARG412      0.5346
    166  NH1        3.8130   29.3120   16.0940 N.pl3 412  ARG412      0.1354
    167  NH2        4.5220   27.1660   15.6480 N.pl3 412  ARG412      0.1354
@<TRIPOS>BOND
     1   135   136    1
     2   136   137    1
     3   136   139    1
     4   160   159    2
     5   137   138    2
     6   139   140    1
     7   159   158    1
     8   140   141    1
     9   142   141    2
    10   158   161    1
    11   158   157    1
    12   127   126    2
    13   141   143   am
    14   144   145    1
    15   146   147    2
    16   146   145    1
    17   161   162    1
    18   126   125    1
    19   145   148    1
    20   134   132    1
    21   131   132    2
    22   131   130    1
    23   128   125    1
    24   128   129    1
    25   132   133    1
    26   125   124    1
    27   130   129    1
    28   162   163    1
    29   163   164    1
    30   148   149    1
    31   164   165    2
    32   153   154    1
    33   155   154    1
    34   155   156    2
    35   165   167    1
    36   165   166    1
    37   149   150    1
    38   150   151    1
    39   101   100    2
    40   151   152    1
    41    23    22   ar
    42   100    99    1
    43    24    22   ar
    44   105   106    1
    45    22    21    1
    46   111   110   ar
    47    81    80    1
    48   106   107    1
    49   106   109    1
    50    99    98    1
    51    99   102    1
    52    80    82    1
    53    80    77    1
    54   110   109    1
    55   110   112   ar
    56   107   108    2
    57    32    30    1
    58    21    18    1
    59    16    15    2
    60   123   122   ar
    61   123   121   ar
    62   122   120   ar
    63    73    70    1
    64    73    74    1
    65   102   103    1
    66   102   104    1
    67    76    77    1
    68    76    71   am
    69    77    78    1
    70    78    79    2
    71    18    17    1
    72    18    19    1
    73    30    29    1
    74    15    17   am
    75    15    14    1
    76   121   119   ar
    77    70    71    1
    78    70    69    1
    79    74    75    1
    80    25    19   am
    81    25    26    1
    82    29    31    1
    83    29    26    1
    84     1     2    1
    85    71    72    2
    86   120   118   ar
    87    19    20    2
    88    14    13    1
    89    28    27    2
    90    26    27    1
    91   119   118   ar
    92    69    75    1
    93    69    67   am
    94     8     6   ar
    95     6     7   ar
    96     6     5    1
    97   118   117    1
    98    68    67    2
    99     2     5    1
   100     2     3    1
   101    64    63    1
   102    27    33   am
   103    67    66    1
   104   115   116    2
   105   115   114    1
   106    61    63   ar
   107    61    59   ar
   108    13    11   am
   109    12    11    2
   110    63    62   ar
   111     3     4    2
   112   117   114    1
   113    59    58   ar
   114    11    10    1
   115   114   113    1
   116    33    34    1
   117    66    65    1
   118    36    35    2
   119    35    34    1
   120    65    55   am
   121    34    37    1
   122    83    84    1
   123    62    60   ar
   124    58    60   ar
   125    58    57    1
   126    86    85    2
   127    10     9    1
   128    84    85    1
   129    84    87    1
   130    55    54    1
   131    55    56    2
   132    88    87    1
   133    40    38    1
   134    54    57    1
   135    54    53    1
   136    37    38    1
   137    97    95    1
   138    87    89    1
   139    52    51    2
   140    38    39    1
   141    96    94    1
   142    53    51   am
   143    51    50    1
   144    47    46    2
   145    95    94    1
   146    94    91    1
   147    48    46   am
   148    46    45    1
   149    50    49    1
   150    49    43   am
   151    91    90    1
   152    91    92    1
   153    45    42    1
   154    43    42    1
   155    43    44    2
   156    42    41    1
   157    92    93    2
