@<TRIPOS>MOLECULE
tmp/4dgbA00.pdb
 112 109 0 0 0
SMALL
GASTEIGER

@<TRIPOS>ATOM
      1  N         11.5560    9.7800   10.0840 N.3    54  ARG54      -0.1245
      2  CA        12.8360    9.7310   10.7800 C.3    54  ARG54       0.1563
      3  C         13.8440    9.0470    9.8710 C.2    54  ARG54       0.2260
      4  O         13.7320    7.8530    9.5840 O.2    54  ARG54      -0.2867
      5  CB        12.7120    8.9750   12.1050 C.3    54  ARG54       0.0307
      6  CG        14.0020    8.9590   12.9220 C.3    54  ARG54       0.0489
      7  CD        13.8170    8.2810   14.2700 C.3    54  ARG54       0.2205
      8  NE        13.1080    9.1090   15.2400 N.pl3  54  ARG54      -0.0865
      9  CZ        11.8420    8.9240   15.6050 C.cat  54  ARG54       0.5346
     10  NH1       11.1260    7.9320   15.0910 N.pl3  54  ARG54       0.1354
     11  NH2       11.2900    9.7250   16.4980 N.pl3  54  ARG54       0.1354
     12  N         17.9980    8.7290    9.3660 N.3    56  ILE56      -0.1245
     13  CA        19.2970    9.0020    9.9990 C.3    56  ILE56       0.1561
     14  C         20.3630    8.4080    9.0910 C.2    56  ILE56       0.2260
     15  O         20.4520    7.1710    8.9810 O.2    56  ILE56      -0.2867
     16  CB        19.4130    8.4130   11.4120 C.3    56  ILE56       0.0252
     17  CG1       18.3770    9.0540   12.3430 C.3    56  ILE56       0.0019
     18  CG2       20.8220    8.6480   11.9930 C.3    56  ILE56       0.0019
     19  CD1       18.2210    8.3610   13.6790 C.3    56  ILE56       0.0001
     20  N         22.4170    4.9230    9.0580 N.3    59  PHE59      -0.1227
     21  CA        21.6830    4.1010   10.0010 C.3    59  PHE59       0.1736
     22  C         20.4140    3.5290    9.3750 C.2    59  PHE59       0.2595
     23  O         20.4040    2.3700    8.9740 O.2    59  PHE59      -0.2718
     24  CB        21.4200    4.9040   11.2960 C.3    59  PHE59       0.0547
     25  CG        20.6610    4.1630   12.3690 C.ar   59  PHE59      -0.0202
     26  CD1       20.6780    2.7740   12.4640 C.ar   59  PHE59      -0.0042
     27  CD2       19.9710    4.8770   13.3390 C.ar   59  PHE59      -0.0042
     28  CE1       19.9840    2.1160   13.4750 C.ar   59  PHE59      -0.0003
     29  CE2       19.2730    4.2100   14.3490 C.ar   59  PHE59      -0.0003
     30  CZ        19.3000    2.8320   14.4160 C.ar   59  PHE59      -0.0000
     31  N         19.3440    4.3100    9.2720 N.am   60  MET60      -0.1979
     32  CA        18.0900    3.7560    8.7630 C.3    60  MET60       0.1605
     33  C         17.1120    4.8300    8.3670 C.2    60  MET60       0.2287
     34  O         17.2410    5.9990    8.7960 O.2    60  MET60      -0.2864
     35  CB        17.4310    2.8360    9.7990 C.3    60  MET60       0.0413
     36  CG        17.1500    3.4760   11.1190 C.3    60  MET60       0.0598
     37  SD        15.5180    4.2480   11.2260 S.3    60  MET60      -0.1393
     38  CE        15.9980    5.8380   11.9090 C.3    60  MET60       0.0692
     39  N         13.0230    5.4300    8.6240 N.3    62  GLN62      -0.1245
     40  CA        11.8620    4.9170    9.3290 C.3    62  GLN62       0.1566
     41  C         10.5830    5.5990    8.8690 C.2    62  GLN62       0.2260
     42  O         10.5500    6.8110    8.6950 O.2    62  GLN62      -0.2867
     43  CB        12.0390    5.1200   10.8310 C.3    62  GLN62       0.0367
     44  CG        10.8350    4.7610   11.7170 C.3    62  GLN62       0.0905
     45  CD        11.1150    4.9820   13.1910 C.2    62  GLN62       0.2608
     46  OE1       12.2400    5.3310   13.5940 O.2    62  GLN62      -0.2717
     47  NE2       10.1050    4.7590   14.0210 N.am   62  GLN62      -0.0878
     48  N          9.8610   -1.1320   13.8090 N.3   100  ALA100     -0.1231
     49  CA        10.0130   -0.1830   14.8930 C.3   100  ALA100      0.1694
     50  C          9.1040   -0.6290   16.0420 C.2   100  ALA100      0.2592
     51  O          8.1280   -1.3390   15.8450 O.2   100  ALA100     -0.2718
     52  CB         9.6570    1.2520   14.4230 C.3   100  ALA100      0.0304
     53  N          9.4440   -0.2330   17.2570 N.am  101  ASN101     -0.1974
     54  CA         8.6110   -0.5550   18.3970 C.3   101  ASN101      0.1688
     55  C          8.9000    0.3680   19.5900 C.2   101  ASN101      0.2292
     56  O          9.7850    1.2360   19.5140 O.2   101  ASN101     -0.2864
     57  CB         8.7750   -2.0400   18.7760 C.3   101  ASN101      0.1181
     58  CG        10.1660   -2.3760   19.2500 C.2   101  ASN101      0.2629
     59  OD1       10.7180   -1.7060   20.1240 O.2   101  ASN101     -0.2716
     60  ND2       10.7520   -3.4270   18.6650 N.am  101  ASN101     -0.0877
     61  N         11.4120    0.2370    9.6910 N.3   112  PHE112     -0.1241
     62  CA        12.5620    0.9430    9.1670 C.3   112  PHE112      0.1605
     63  C         13.3670    0.1080    8.1940 C.2   112  PHE112      0.2264
     64  O         13.2920   -1.1150    8.2010 O.2   112  PHE112     -0.2867
     65  CB        13.4340    1.4880   10.3110 C.3   112  PHE112      0.0534
     66  CG        13.9610    0.4320   11.2450 C.ar  112  PHE112     -0.0203
     67  CD1       13.1880   -0.0330   12.3110 C.ar  112  PHE112     -0.0042
     68  CD2       15.2470   -0.0800   11.0770 C.ar  112  PHE112     -0.0042
     69  CE1       13.7070   -1.0070   13.1920 C.ar  112  PHE112     -0.0003
     70  CE2       15.7560   -1.0510   11.9450 C.ar  112  PHE112     -0.0003
     71  CZ        14.9650   -1.5130   13.0060 C.ar  112  PHE112     -0.0000
     72  N         23.2430   -4.2260   16.9400 N.3   120  TRP120     -0.1227
     73  CA        22.7360   -3.8830   18.2880 C.3   120  TRP120      0.1737
     74  C         21.2240   -3.8830   18.3770 C.2   120  TRP120      0.2595
     75  O         20.6720   -3.8210   19.4810 O.2   120  TRP120     -0.2718
     76  CB        23.2770   -2.5170   18.7640 C.3   120  TRP120      0.0564
     77  CG        22.8710   -1.3640   17.9170 C.ar  120  TRP120      0.0003
     78  CD1       21.7730   -0.5580   18.0890 C.ar  120  TRP120      0.0946
     79  CD2       23.5280   -0.8910   16.7450 C.ar  120  TRP120      0.0152
     80  NE1       21.7220    0.3840   17.1150 N.ar  120  TRP120     -0.2442
     81  CE2       22.7820    0.2090   16.2650 C.ar  120  TRP120      0.0810
     82  CE3       24.6870   -1.2770   16.0560 C.ar  120  TRP120      0.0012
     83  CZ2       23.1450    0.9240   15.1180 C.ar  120  TRP120      0.0191
     84  CZ3       25.0390   -0.5790   14.9130 C.ar  120  TRP120      0.0001
     85  CH2       24.2700    0.5150   14.4540 C.ar  120  TRP120      0.0015
     86  N         20.5540   -3.9290   17.2260 N.am  121  LEU121     -0.1980
     87  CA        19.1010   -4.0840   17.1720 C.3   121  LEU121      0.1596
     88  C         18.6690   -5.5600   17.1130 C.2   121  LEU121      0.2287
     89  O         17.4850   -5.8710   17.2350 O.2   121  LEU121     -0.2864
     90  CB        18.5540   -3.3310   15.9660 C.3   121  LEU121      0.0297
     91  CG        18.8700   -1.8350   15.8680 C.3   121  LEU121      0.0022
     92  CD1       18.2620   -1.2820   14.5650 C.3   121  LEU121      0.0001
     93  CD2       18.3660   -1.0550   17.1150 C.3   121  LEU121      0.0001
     94  N         15.9020   -7.1650   19.3730 N.3   124  LYS124     -0.1231
     95  CA        15.0720   -6.0550   19.8470 C.3   124  LYS124      0.1693
     96  C         14.0110   -5.6520   18.8260 C.2   124  LYS124      0.2592
     97  O         12.9470   -5.1690   19.2080 O.2   124  LYS124     -0.2718
     98  CB        15.9430   -4.8520   20.2230 C.3   124  LYS124      0.0285
     99  CG        16.8710   -5.1300   21.3960 C.3   124  LYS124      0.0035
    100  CD        17.7960   -3.9710   21.6610 C.3   124  LYS124      0.0206
    101  CE        18.5040   -4.1270   23.0020 C.3   124  LYS124      0.1093
    102  NZ        19.7150   -3.2350   23.0460 N.3   124  LYS124     -0.1314
    103  N         14.3250   -5.8130   17.5460 N.am  125  HIS125     -0.1976
    104  CA        13.4250   -5.4750   16.4550 C.3   125  HIS125      0.1656
    105  C         13.2940   -6.6600   15.5400 C.2   125  HIS125      0.2291
    106  O         14.2820   -7.3100   15.2090 O.2   125  HIS125     -0.2864
    107  CB        13.9640   -4.2660   15.6860 C.3   125  HIS125      0.0771
    108  CG        14.0890   -3.0520   16.5460 C.ar  125  HIS125      0.0820
    109  ND1       13.0490   -2.1620   16.7230 N.ar  125  HIS125     -0.2267
    110  CD2       15.0680   -2.6680   17.3960 C.ar  125  HIS125      0.1154
    111  CE1       13.4110   -1.2530   17.6120 C.ar  125  HIS125      0.1986
    112  NE2       14.6340   -1.5320   18.0270 N.ar  125  HIS125     -0.2212
@<TRIPOS>BOND
     1    63    64    2
     2    63    62    1
     3    33    32    1
     4    33    34    2
     5    39    40    1
     6    42    41    2
     7    32    31    1
     8    32    35    1
     9    41    40    1
    10    23    22    2
    11    15    14    2
    12    20    21    1
    13    14    13    1
    14    62    61    1
    15    62    65    1
    16    31    22   am
    17    40    43    1
    18    12    13    1
    19    22    21    1
    20     4     3    2
    21    35    36    1
    22     3     2    1
    23    13    16    1
    24    21    24    1
    25     1     2    1
    26    65    66    1
    27     2     5    1
    28    43    44    1
    29    68    66   ar
    30    68    70   ar
    31    36    37    1
    32    37    38    1
    33    66    67   ar
    34    24    25    1
    35    16    18    1
    36    16    17    1
    37    44    45    1
    38    70    71   ar
    39     5     6    1
    40    67    69   ar
    41    17    19    1
    42    25    26   ar
    43    25    27   ar
    44    26    28   ar
    45     6     7    1
    46    71    69   ar
    47    45    46    2
    48    45    47   am
    49    27    29   ar
    50    28    30   ar
    51    48    49    1
    52     7     8    1
    53    29    30   ar
    54    52    49    1
    55    85    84   ar
    56    85    83   ar
    57    92    91    1
    58    49    50    1
    59    84    82   ar
    60    10     9    1
    61    83    81   ar
    62   106   105    2
    63     8     9    2
    64   105   104    1
    65     9    11    1
    66   107   104    1
    67   107   108    1
    68    51    50    2
    69    91    90    1
    70    91    93    1
    71    90    87    1
    72    50    53   am
    73    82    79   ar
    74    81    79   ar
    75    81    80   ar
    76   104   103    1
    77   108   109   ar
    78   108   110   ar
    79   109   111   ar
    80    79    77   ar
    81    72    73    1
    82    88    87    1
    83    88    89    2
    84    80    78   ar
    85    87    86    1
    86    86    74   am
    87    53    54    1
    88   110   112   ar
    89   103    96   am
    90   111   112   ar
    91    77    78   ar
    92    77    76    1
    93    73    74    1
    94    73    76    1
    95    74    75    2
    96    54    57    1
    97    54    55    1
    98    60    58   am
    99    57    58    1
   100    96    97    2
   101    96    95    1
   102    58    59    2
   103    94    95    1
   104    56    55    2
   105    95    98    1
   106    98    99    1
   107    99   100    1
   108   100   101    1
   109   101   102    1
