@<TRIPOS>MOLECULE
tmp/4dggB00.pdb
 202 187 0 0 0
SMALL
GASTEIGER

@<TRIPOS>ATOM
      1  N         -2.0570  -76.6470  -32.8570 N.3    18  LEU18      -0.1231
      2  CA        -1.9230  -75.9860  -31.5470 C.3    18  LEU18       0.1693
      3  C         -3.1230  -76.2320  -30.6100 C.2    18  LEU18       0.2592
      4  O         -2.9950  -76.1340  -29.3820 O.2    18  LEU18      -0.2718
      5  CB        -1.7300  -74.4720  -31.7420 C.3    18  LEU18       0.0284
      6  CG        -0.3890  -73.9690  -32.2910 C.3    18  LEU18       0.0019
      7  CD1       -0.5020  -72.5140  -32.7220 C.3    18  LEU18       0.0001
      8  CD2        0.7350  -74.1480  -31.2850 C.3    18  LEU18       0.0001
      9  N         -4.2830  -76.5430  -31.1890 N.am   19  GLY19      -0.1957
     10  CA        -5.5130  -76.7490  -30.4200 C.3    19  GLY19       0.1869
     11  C         -6.5790  -77.4720  -31.2280 C.2    19  GLY19       0.2309
     12  O         -6.5840  -77.4350  -32.4600 O.2    19  GLY19      -0.2863
     13  N         -6.9220  -75.2070  -34.4330 N.3    26  VAL26      -0.1245
     14  CA        -6.0610  -74.0310  -34.5610 C.3    26  VAL26       0.1561
     15  C         -4.6320  -74.4420  -34.8910 C.2    26  VAL26       0.2260
     16  O         -4.0700  -75.3070  -34.2250 O.2    26  VAL26      -0.2867
     17  CB        -6.0540  -73.1940  -33.2810 C.3    26  VAL26       0.0252
     18  CG1       -5.1020  -72.0250  -33.4470 C.3    26  VAL26       0.0019
     19  CG2       -7.4530  -72.6930  -32.9590 C.3    26  VAL26       0.0019
     20  N         -1.4770  -67.4110  -37.3230 N.3    38  ALA38      -0.1245
     21  CA        -2.3240  -68.4150  -36.6940 C.3    38  ALA38       0.1562
     22  C         -3.4810  -68.6480  -37.6380 C.2    38  ALA38       0.2260
     23  O         -3.9650  -67.7050  -38.2590 O.2    38  ALA38      -0.2867
     24  CB        -2.8320  -67.9260  -35.3560 C.3    38  ALA38       0.0290
     25  N         -7.3520  -70.5840  -37.7810 N.3    40  LYS40      -0.1245
     26  CA        -8.4070  -71.3170  -37.0780 C.3    40  LYS40       0.1561
     27  C         -9.3430  -71.8890  -38.1080 C.2    40  LYS40       0.2260
     28  O         -9.9780  -71.1390  -38.8420 O.2    40  LYS40      -0.2867
     29  CB        -9.1810  -70.4310  -36.0970 C.3    40  LYS40       0.0271
     30  CG       -10.4150  -71.1060  -35.4880 C.3    40  LYS40       0.0035
     31  CD       -10.7420  -70.6180  -34.0690 C.3    40  LYS40       0.0206
     32  CE       -11.7200  -71.5770  -33.3680 C.3    40  LYS40       0.1093
     33  NZ       -11.7450  -71.5830  -31.8640 N.3    40  LYS40      -0.1314
     34  N        -21.7700  -67.0920  -41.7300 N.3    46  PHE46      -0.1241
     35  CA       -20.8200  -66.4400  -40.8100 C.3    46  PHE46       0.1605
     36  C        -20.1550  -65.1390  -41.3140 C.2    46  PHE46       0.2264
     37  O        -19.3520  -64.5500  -40.5930 O.2    46  PHE46      -0.2867
     38  CB       -19.7510  -67.4620  -40.3710 C.3    46  PHE46       0.0534
     39  CG       -20.3130  -68.6440  -39.6050 C.ar   46  PHE46      -0.0203
     40  CD1      -20.1840  -68.7130  -38.2310 C.ar   46  PHE46      -0.0042
     41  CD2      -20.9710  -69.6910  -40.2640 C.ar   46  PHE46      -0.0042
     42  CE1      -20.6990  -69.7870  -37.5230 C.ar   46  PHE46      -0.0003
     43  CE2      -21.4860  -70.7720  -39.5620 C.ar   46  PHE46      -0.0003
     44  CZ       -21.3510  -70.8180  -38.1850 C.ar   46  PHE46      -0.0000
     45  N        -21.2540  -62.6730  -38.8630 N.3    49  GLU49      -0.1231
     46  CA       -20.4360  -62.7220  -37.6400 C.3    49  GLU49       0.1699
     47  C        -18.9780  -62.2970  -37.8500 C.2    49  GLU49       0.2592
     48  O        -18.2770  -61.9570  -36.8910 O.2    49  GLU49      -0.2718
     49  CB       -20.4790  -64.1270  -37.0370 C.3    49  GLU49       0.0402
     50  CG       -21.8810  -64.6030  -36.6750 C.3    49  GLU49       0.1161
     51  CD       -22.5770  -63.7160  -35.6500 C.2    49  GLU49       0.3649
     52  OE1      -22.0460  -63.5610  -34.5240 O.co2  49  GLU49      -0.2457
     53  OE2      -23.6640  -63.1820  -35.9750 O.co2  49  GLU49      -0.2457
     54  N        -18.5230  -62.3150  -39.0960 N.am   50  ALA50      -0.1980
     55  CA       -17.1600  -61.9000  -39.4230 C.3    50  ALA50       0.1597
     56  C        -16.9750  -60.3960  -39.3060 C.2    50  ALA50       0.2287
     57  O        -15.8810  -59.9300  -38.9660 O.2    50  ALA50      -0.2864
     58  CB       -16.7930  -62.3490  -40.8280 C.3    50  ALA50       0.0319
     59  N        -17.6740  -58.2010  -37.1770 N.3    52  VAL52      -0.1231
     60  CA       -17.0610  -57.8280  -35.8950 C.3    52  VAL52       0.1692
     61  C        -15.5290  -57.7940  -35.9910 C.2    52  VAL52       0.2591
     62  O        -14.9000  -56.7600  -35.7520 O.2    52  VAL52      -0.2718
     63  CB       -17.4820  -58.8100  -34.7540 C.3    52  VAL52       0.0266
     64  CG1      -16.5290  -58.7330  -33.5660 C.3    52  VAL52       0.0020
     65  CG2      -18.9220  -58.5550  -34.3080 C.3    52  VAL52       0.0020
     66  N        -14.9360  -58.9240  -36.3600 N.am   53  MET53      -0.1979
     67  CA       -13.4760  -59.0420  -36.3910 C.3    53  MET53       0.1605
     68  C        -12.8700  -58.2860  -37.5660 C.2    53  MET53       0.2287
     69  O        -11.6670  -58.0270  -37.5690 O.2    53  MET53      -0.2864
     70  CB       -13.0450  -60.5140  -36.4280 C.3    53  MET53       0.0413
     71  CG       -11.7060  -60.7610  -35.7480 C.3    53  MET53       0.0598
     72  SD       -11.3800  -62.4950  -35.3770 S.3    53  MET53      -0.1393
     73  CE       -10.2070  -62.3070  -34.0200 C.3    53  MET53       0.0692
     74  N         -6.6810  -59.2990  -30.9680 N.3    62  VAL62      -0.1245
     75  CA        -6.0220  -60.1760  -31.9610 C.3    62  VAL62       0.1561
     76  C         -6.4650  -59.7930  -33.3670 C.2    62  VAL62       0.2260
     77  O         -7.6530  -59.8480  -33.6730 O.2    62  VAL62      -0.2867
     78  CB        -6.3840  -61.6750  -31.7700 C.3    62  VAL62       0.0252
     79  CG1       -5.7460  -62.5200  -32.8610 C.3    62  VAL62       0.0019
     80  CG2       -5.9820  -62.1660  -30.3930 C.3    62  VAL62       0.0019
     81  N         -7.2190  -59.7030  -37.2750 N.3    64  LEU64      -0.1245
     82  CA        -7.5350  -60.4940  -38.4480 C.3    64  LEU64       0.1561
     83  C         -6.5560  -60.1190  -39.5480 C.2    64  LEU64       0.2260
     84  O         -6.2220  -58.9540  -39.7140 O.2    64  LEU64      -0.2867
     85  CB        -8.9530  -60.1910  -38.9110 C.3    64  LEU64       0.0270
     86  CG        -9.5340  -61.1280  -39.9560 C.3    64  LEU64       0.0019
     87  CD1       -9.9720  -62.4120  -39.2650 C.3    64  LEU64       0.0001
     88  CD2      -10.6840  -60.4690  -40.7130 C.3    64  LEU64       0.0001
     89  N         -9.2320  -64.2770  -44.5700 N.3    67  VAL67      -0.1245
     90  CA       -10.2460  -65.3360  -44.4170 C.3    67  VAL67       0.1561
     91  C        -10.3360  -66.1930  -45.6850 C.2    67  VAL67       0.2260
     92  O        -10.1230  -65.6950  -46.7970 O.2    67  VAL67      -0.2867
     93  CB       -11.6600  -64.7710  -44.1210 C.3    67  VAL67       0.0252
     94  CG1      -11.6600  -63.9440  -42.8430 C.3    67  VAL67       0.0019
     95  CG2      -12.1650  -63.9390  -45.2950 C.3    67  VAL67       0.0019
     96  N        -10.0040  -68.7950  -40.7110 N.3    75  ILE75      -0.1245
     97  CA        -9.7350  -67.4050  -40.3140 C.3    75  ILE75       0.1561
     98  C         -8.2510  -67.3070  -39.9660 C.2    75  ILE75       0.2260
     99  O         -7.7550  -68.0880  -39.1520 O.2    75  ILE75      -0.2867
    100  CB       -10.5230  -66.9760  -39.0590 C.3    75  ILE75       0.0252
    101  CG1      -12.0130  -67.3130  -39.1810 C.3    75  ILE75       0.0019
    102  CG2      -10.3460  -65.4920  -38.7980 C.3    75  ILE75       0.0019
    103  CD1      -12.4120  -68.6110  -38.5010 C.3    75  ILE75       0.0001
    104  N         -5.1920  -65.0570  -38.4580 N.3    77  THR77      -0.1203
    105  CA        -4.9450  -63.9170  -37.5700 C.3    77  THR77       0.1994
    106  C         -3.4680  -63.8260  -37.1900 C.2    77  THR77       0.2618
    107  O         -2.7020  -64.7370  -37.4720 O.2    77  THR77      -0.2717
    108  CB        -5.8110  -64.0310  -36.2980 C.3    77  THR77       0.1784
    109  OG1       -5.3310  -65.0890  -35.4630 O.3    77  THR77      -0.2211
    110  CG2       -7.2460  -64.3250  -36.6630 C.3    77  THR77       0.0376
    111  N         -3.0630  -62.7390  -36.5480 N.am   78  GLU78      -0.1965
    112  CA        -1.7040  -62.6600  -36.0180 C.3    78  GLU78       0.1733
    113  C         -1.3940  -63.8280  -35.0570 C.2    78  GLU78       0.2616
    114  O         -2.2890  -64.3590  -34.3920 O.2    78  GLU78      -0.2715
    115  CB        -1.4540  -61.3150  -35.3190 C.3    78  GLU78       0.0429
    116  CG        -2.1370  -61.1260  -33.9690 C.3    78  GLU78       0.1163
    117  CD        -1.9140  -59.7370  -33.3800 C.2    78  GLU78       0.3649
    118  OE1       -2.9050  -58.9790  -33.2220 O.co2  78  GLU78      -0.2457
    119  OE2       -0.7580  -59.4050  -33.0660 O.co2  78  GLU78      -0.2457
    120  N         -0.1220  -64.2180  -34.9840 N.am   79  TYR79      -0.1960
    121  CA         0.3160  -65.3240  -34.1240 C.3    79  TYR79       0.1771
    122  C          0.7670  -64.8360  -32.7360 C.2    79  TYR79       0.2619
    123  O          1.5910  -63.9330  -32.6260 O.2    79  TYR79      -0.2715
    124  CB         1.4530  -66.0780  -34.7970 C.3    79  TYR79       0.0574
    125  CG         2.0050  -67.2100  -33.9710 C.ar   79  TYR79      -0.0198
    126  CD1        1.2720  -68.3750  -33.7930 C.ar   79  TYR79      -0.0009
    127  CD2        3.2570  -67.1140  -33.3580 C.ar   79  TYR79      -0.0009
    128  CE1        1.7610  -69.4180  -33.0210 C.ar   79  TYR79       0.0417
    129  CE2        3.7620  -68.1470  -32.5900 C.ar   79  TYR79       0.0417
    130  CZ         3.0130  -69.3020  -32.4240 C.ar   79  TYR79       0.1957
    131  OH         3.5060  -70.3450  -31.6600 O.3    79  TYR79      -0.2866
    132  N          0.2230  -65.4410  -31.6830 N.am   80  MET80      -0.1977
    133  CA         0.5490  -65.0570  -30.3130 C.3    80  MET80       0.1605
    134  C          1.3870  -66.1500  -29.6660 C.2    80  MET80       0.2287
    135  O          0.8830  -67.2100  -29.3060 O.2    80  MET80      -0.2864
    136  CB        -0.7310  -64.8290  -29.5280 C.3    80  MET80       0.0413
    137  CG        -1.6390  -63.7970  -30.1680 C.3    80  MET80       0.0598
    138  SD        -0.9750  -62.1360  -30.0390 S.3    80  MET80      -0.1393
    139  CE        -1.4360  -61.7950  -28.3420 C.3    80  MET80       0.0692
    140  N          0.3330  -68.5700  -26.3390 N.3    83  GLY83      -0.1210
    141  CA        -0.9470  -69.2660  -26.1970 C.3    83  GLY83       0.1956
    142  C         -1.9450  -68.5000  -25.3390 C.2    83  GLY83       0.2612
    143  O         -1.8710  -67.2820  -25.2160 O.2    83  GLY83      -0.2717
    144  N         -2.8870  -69.2080  -24.7330 N.am   84  SER84      -0.1952
    145  CA        -3.9550  -68.5520  -23.9950 C.3    84  SER84       0.1924
    146  C         -3.4510  -68.0850  -22.6520 C.2    84  SER84       0.2314
    147  O         -2.5120  -68.6550  -22.1200 O.2    84  SER84      -0.2863
    148  CB        -5.1580  -69.4880  -23.8080 C.3    84  SER84       0.2116
    149  OG        -4.8660  -70.5230  -22.8990 O.3    84  SER84      -0.2180
    150  N         -3.7680  -70.9300  -19.9260 N.3    87  ASP87      -0.1239
    151  CA        -2.6420  -71.8740  -19.8810 C.3    87  ASP87       0.1674
    152  C         -1.3890  -71.2120  -19.3090 C.2    87  ASP87       0.2266
    153  O         -0.6190  -71.8410  -18.5940 O.2    87  ASP87      -0.2867
    154  CB        -2.3620  -72.4860  -21.2580 C.3    87  ASP87       0.1410
    155  CG        -3.4930  -73.4010  -21.7370 C.2    87  ASP87       0.3668
    156  OD1       -4.2480  -73.9330  -20.8840 O.co2  87  ASP87      -0.2456
    157  OD2       -3.6340  -73.5810  -22.9700 O.co2  87  ASP87      -0.2456
    158  N         -9.6470  -67.8330  -20.9730 N.3   129  ALA129     -0.1245
    159  CA        -9.5150  -68.7860  -22.0820 C.3   129  ALA129      0.1562
    160  C         -9.5070  -68.0930  -23.4560 C.2   129  ALA129      0.2260
    161  O         -8.9070  -68.6070  -24.4040 O.2   129  ALA129     -0.2867
    162  CB       -10.6290  -69.8140  -22.0300 C.3   129  ALA129      0.0290
    163  N         -5.1650  -64.1170  -25.4290 N.3   132  LEU132     -0.1245
    164  CA        -3.9050  -64.6880  -25.9220 C.3   132  LEU132      0.1561
    165  C         -2.7540  -63.8170  -25.4490 C.2   132  LEU132      0.2260
    166  O         -2.9140  -62.6010  -25.2860 O.2   132  LEU132     -0.2867
    167  CB        -3.9130  -64.7690  -27.4510 C.3   132  LEU132      0.0270
    168  CG        -5.0920  -65.5570  -28.0120 C.3   132  LEU132      0.0019
    169  CD1       -5.1340  -65.5410  -29.5220 C.3   132  LEU132      0.0001
    170  CD2       -4.9890  -66.9780  -27.4870 C.3   132  LEU132      0.0001
    171  N         -9.4810  -61.9570  -27.6060 N.3   142  ALA142     -0.1231
    172  CA        -9.7050  -62.8670  -28.7550 C.3   142  ALA142      0.1694
    173  C        -11.1100  -63.4990  -28.7450 C.2   142  ALA142      0.2592
    174  O        -11.7930  -63.4660  -27.7270 O.2   142  ALA142     -0.2718
    175  CB        -8.6450  -63.9640  -28.7580 C.3   142  ALA142      0.0304
    176  N        -11.5400  -64.0350  -29.8910 N.am  143  ASP143     -0.1960
    177  CA       -12.7390  -64.9160  -29.9760 C.3   143  ASP143      0.1840
    178  C        -14.0160  -64.2450  -29.4780 C.2   143  ASP143      0.2622
    179  O        -14.4670  -64.5190  -28.3660 O.2   143  ASP143     -0.2715
    180  CB       -12.5430  -66.2470  -29.1900 C.3   143  ASP143      0.1450
    181  CG       -13.7680  -67.2200  -29.3020 C.2   143  ASP143      0.3671
    182  OD1      -13.8120  -68.0460  -30.2520 O.co2 143  ASP143     -0.2456
    183  OD2      -14.6780  -67.1770  -28.4210 O.co2 143  ASP143     -0.2456
    184  N        -14.6050  -63.3910  -30.3030 N.am  144  PHE144     -0.1974
    185  CA       -15.7850  -62.6160  -29.9110 C.3   144  PHE144      0.1639
    186  C        -17.1130  -63.3880  -30.0060 C.2   144  PHE144      0.2290
    187  O        -17.8690  -63.2320  -30.9710 O.2   144  PHE144     -0.2864
    188  CB       -15.8800  -61.3540  -30.7790 C.3   144  PHE144      0.0560
    189  CG       -14.8670  -60.3010  -30.4430 C.ar  144  PHE144     -0.0200
    190  CD1      -15.2600  -59.1110  -29.8450 C.ar  144  PHE144     -0.0042
    191  CD2      -13.5280  -60.4840  -30.7540 C.ar  144  PHE144     -0.0042
    192  CE1      -14.3370  -58.1310  -29.5390 C.ar  144  PHE144     -0.0003
    193  CE2      -12.6000  -59.5060  -30.4470 C.ar  144  PHE144     -0.0003
    194  CZ       -13.0050  -58.3310  -29.8340 C.ar  144  PHE144     -0.0000
    195  N        -17.7220  -66.2410  -30.9210 N.3   146  LEU146     -0.1245
    196  CA       -17.6390  -67.3300  -31.9000 C.3   146  LEU146      0.1561
    197  C        -17.7980  -68.6730  -31.1880 C.2   146  LEU146      0.2260
    198  O        -18.3720  -69.6100  -31.7380 O.2   146  LEU146     -0.2867
    199  CB       -16.2880  -67.2880  -32.6260 C.3   146  LEU146      0.0270
    200  CG       -15.9720  -68.3650  -33.6790 C.3   146  LEU146      0.0019
    201  CD1      -16.7650  -68.0830  -34.9470 C.3   146  LEU146      0.0001
    202  CD2      -14.4770  -68.4600  -33.9920 C.3   146  LEU146      0.0001
@<TRIPOS>BOND
     1    92    91    2
     2    91    90    1
     3    95    93    1
     4    89    90    1
     5    90    93    1
     6    93    94    1
     7    34    35    1
     8    36    35    1
     9    36    37    2
    10    58    55    1
    11    35    38    1
    12    88    86    1
    13    96    97    1
    14    38    39    1
    15    97    98    1
    16    97   100    1
    17    41    39   ar
    18    41    43   ar
    19    98    99    2
    20    86    87    1
    21    86    85    1
    22    84    83    2
    23    39    40   ar
    24    43    44   ar
    25    83    82    1
    26    55    56    1
    27    55    54    1
    28    56    57    2
    29   101   100    1
    30   101   103    1
    31    54    47   am
    32   100   102    1
    33    85    82    1
    34    45    46    1
    35    28    27    2
    36   104   105    1
    37    82    81    1
    38    23    22    2
    39    40    42   ar
    40    44    42   ar
    41    27    26    1
    42    47    46    1
    43    47    48    2
    44    25    26    1
    45    46    49    1
    46    22    21    1
    47   105   106    1
    48   105   108    1
    49    69    68    2
    50    68    67    1
    51   107   106    2
    52    20    21    1
    53   106   111   am
    54    59    60    1
    55    26    29    1
    56    49    50    1
    57    21    24    1
    58    50    51    1
    59   110   108    1
    60   111   112    1
    61    70    67    1
    62    70    71    1
    63    67    66    1
    64    66    61   am
    65   108   109    1
    66    29    30    1
    67   112   115    1
    68   112   113    1
    69    61    60    1
    70    61    62    2
    71    53    51   ar
    72    60    63    1
    73    71    72    1
    74    51    52   ar
    75    30    31    1
    76    72    73    1
    77   115   116    1
    78   113   120   am
    79   113   114    2
    80   120   121    1
    81   201   200    1
    82    15    14    1
    83    15    16    2
    84   124   121    1
    85   124   125    1
    86    63    65    1
    87    63    64    1
    88    14    13    1
    89    14    17    1
    90   121   122    1
    91    31    32    1
    92   202   200    1
    93   125   126   ar
    94   125   127   ar
    95   116   117    1
    96   126   128   ar
    97   200   199    1
    98    77    76    2
    99    18    17    1
   100   117   118   ar
   101   117   119   ar
   102    32    33    1
   103    76    75    1
   104   127   129   ar
   105    17    19    1
   106   128   130   ar
   107    79    78    1
   108     1     2    1
   109   122   123    2
   110   122   132   am
   111     7     6    1
   112   199   196    1
   113   129   130   ar
   114    12    11    2
   115   130   131    1
   116     6     5    1
   117     6     8    1
   118    75    78    1
   119    75    74    1
   120   196   197    1
   121   196   195    1
   122    78    80    1
   123     5     2    1
   124   198   197    2
   125   132   133    1
   126     2     3    1
   127    11    10    1
   128     9     3   am
   129     9    10    1
   130   187   186    2
   131   188   189    1
   132   188   185    1
   133   191   193   ar
   134   191   189   ar
   135     3     4    2
   136   193   194   ar
   137   189   190   ar
   138   133   134    1
   139   133   136    1
   140   184   185    1
   141   184   178   am
   142   182   181   ar
   143   137   138    1
   144   137   136    1
   145   138   139    1
   146   186   185    1
   147   177   176    1
   148   177   178    1
   149   177   180    1
   150   176   173   am
   151   190   192   ar
   152   194   192   ar
   153   134   135    2
   154   169   168    1
   155   178   179    2
   156   181   180    1
   157   181   183   ar
   158   175   172    1
   159   172   173    1
   160   172   171    1
   161   173   174    2
   162   168   170    1
   163   168   167    1
   164   167   164    1
   165   140   141    1
   166   141   142    1
   167   164   165    1
   168   164   163    1
   169   165   166    2
   170   142   143    2
   171   142   144   am
   172   144   145    1
   173   161   160    2
   174   145   148    1
   175   145   146    1
   176   148   149    1
   177   160   159    1
   178   157   155   ar
   179   146   147    2
   180   159   162    1
   181   159   158    1
   182   155   154    1
   183   155   156   ar
   184   154   151    1
   185   150   151    1
   186   151   152    1
   187   152   153    2
