@<TRIPOS>MOLECULE
tmp/4dgmA01.pdb
 161 152 0 0 0
SMALL
GASTEIGER

@<TRIPOS>ATOM
      1  N         27.5610   13.3240   28.5470 N.3    37  ARG37      -0.1245
      2  CA        27.5540   11.9600   29.1040 C.3    37  ARG37       0.1563
      3  C         27.5280   10.9010   28.0130 C.2    37  ARG37       0.2260
      4  O         26.9660   11.1210   26.9390 O.2    37  ARG37      -0.2867
      5  CB        26.3620   11.7340   30.0520 C.3    37  ARG37       0.0307
      6  CG        25.0280   12.1420   29.4730 C.3    37  ARG37       0.0489
      7  CD        23.8620   11.4610   30.1610 C.3    37  ARG37       0.2205
      8  NE        22.7490   11.3920   29.2190 N.pl3  37  ARG37      -0.0865
      9  CZ        21.8740   10.3980   29.1370 C.cat  37  ARG37       0.5346
     10  NH1       21.9620    9.3460   29.9530 N.pl3  37  ARG37       0.1354
     11  NH2       20.9190   10.4580   28.2200 N.pl3  37  ARG37       0.1354
     12  N         26.1170    7.6530   26.2010 N.3    39  VAL39      -0.1231
     13  CA        24.7890    7.0360   26.1070 C.3    39  VAL39       0.1692
     14  C         24.8310    5.6620   25.4550 C.2    39  VAL39       0.2592
     15  O         23.8950    4.8800   25.5930 O.2    39  VAL39      -0.2718
     16  CB        23.7320    7.9330   25.4000 C.3    39  VAL39       0.0266
     17  CG1       23.4260    9.1710   26.2280 C.3    39  VAL39       0.0020
     18  CG2       24.1640    8.3030   23.9910 C.3    39  VAL39       0.0020
     19  N         25.8950    5.3640   24.7130 N.am   40  GLY40      -0.1957
     20  CA        25.9060    4.1130   23.9620 C.3    40  GLY40       0.1869
     21  C         27.2330    3.8220   23.3240 C.2    40  GLY40       0.2309
     22  O         28.1370    4.6500   23.3520 O.2    40  GLY40      -0.2863
     23  N         31.6380    2.6290   17.0790 N.3    45  SER45      -0.1217
     24  CA        31.5560    3.9810   17.6140 C.3    45  SER45       0.1889
     25  C         31.2420    4.0170   19.0930 C.2    45  SER45       0.2288
     26  O         30.8180    3.0090   19.6900 O.2    45  SER45      -0.2866
     27  CB        30.4830    4.7900   16.8570 C.3    45  SER45       0.2089
     28  OG        29.1980    4.1980   16.9930 O.3    45  SER45      -0.2183
     29  N         28.9420    6.8120   21.6060 N.3    47  VAL47      -0.1245
     30  CA        27.8870    7.7940   21.3970 C.3    47  VAL47       0.1561
     31  C         27.6610    8.5310   22.7070 C.2    47  VAL47       0.2260
     32  O         27.5610    7.9140   23.7620 O.2    47  VAL47      -0.2867
     33  CB        26.5840    7.1280   20.8870 C.3    47  VAL47       0.0252
     34  CG1       25.5290    8.1800   20.6790 C.3    47  VAL47       0.0019
     35  CG2       26.8490    6.4210   19.5620 C.3    47  VAL47       0.0019
     36  N         23.8210   14.8160   19.7060 N.3    60  ILE60      -0.1245
     37  CA        24.4820   13.5340   19.8880 C.3    60  ILE60       0.1561
     38  C         25.8170   13.6460   19.1960 C.2    60  ILE60       0.2260
     39  O         25.8970   14.1650   18.0830 O.2    60  ILE60      -0.2867
     40  CB        23.6510   12.3710   19.3030 C.3    60  ILE60       0.0252
     41  CG1       22.4530   12.0950   20.2130 C.3    60  ILE60       0.0019
     42  CG2       24.5200   11.1400   19.0760 C.3    60  ILE60       0.0019
     43  CD1       22.7920   11.3470   21.4900 C.3    60  ILE60       0.0001
     44  N         28.7720   11.3190   17.9100 N.3    62  LYS62      -0.1245
     45  CA        29.1460    9.9420   17.5910 C.3    62  LYS62       0.1561
     46  C         30.6100    9.8990   17.2540 C.2    62  LYS62       0.2260
     47  O         31.0010   10.3420   16.1740 O.2    62  LYS62      -0.2867
     48  CB        28.3220    9.4230   16.3950 C.3    62  LYS62       0.0271
     49  CG        28.5570    7.9420   16.0840 C.3    62  LYS62       0.0035
     50  CD        27.6600    7.4970   14.9320 C.3    62  LYS62       0.0206
     51  CE        27.9230    6.0800   14.4590 C.3    62  LYS62       0.1093
     52  NZ        26.9800    5.7090   13.3740 N.3    62  LYS62      -0.1314
     53  N         28.9450    6.3550    5.0100 N.3    75  GLU75      -0.1245
     54  CA        27.9770    6.7340    6.0420 C.3    75  GLU75       0.1567
     55  C         27.6100    8.2130    5.9190 C.2    75  GLU75       0.2260
     56  O         26.4260    8.5670    5.9440 O.2    75  GLU75      -0.2867
     57  CB        28.4880    6.4150    7.4550 C.3    75  GLU75       0.0388
     58  CG        27.5660    6.9090    8.5550 C.3    75  GLU75       0.1160
     59  CD        27.8810    6.3890    9.9550 C.2    75  GLU75       0.3649
     60  OE1       28.8710    5.6460   10.1420 O.co2  75  GLU75      -0.2457
     61  OE2       27.0950    6.7230   10.8780 O.co2  75  GLU75      -0.2457
     62  N         23.9110    9.7330    4.9140 N.3    79  LEU79      -0.1245
     63  CA        23.2500   10.6350    5.8380 C.3    79  LEU79       0.1561
     64  C         22.8560   11.9610    5.1810 C.2    79  LEU79       0.2260
     65  O         21.7640   12.4840    5.4450 O.2    79  LEU79      -0.2867
     66  CB        24.1150   10.8660    7.0820 C.3    79  LEU79       0.0270
     67  CG        24.2040    9.6560    8.0210 C.3    79  LEU79       0.0019
     68  CD1       25.4440    9.8170    8.8810 C.3    79  LEU79       0.0001
     69  CD2       22.9460    9.5070    8.8730 C.3    79  LEU79       0.0001
     70  N         17.3560    9.9160   11.2300 N.3    89  VAL89      -0.1245
     71  CA        18.2260   10.7590   12.0800 C.3    89  VAL89       0.1561
     72  C         18.8760   11.8790   11.2500 C.2    89  VAL89       0.2260
     73  O         19.3220   11.6170   10.1440 O.2    89  VAL89      -0.2867
     74  CB        19.3110    9.9170   12.8050 C.3    89  VAL89       0.0252
     75  CG1       20.3950    9.4540   11.8390 C.3    89  VAL89       0.0019
     76  CG2       19.9050   10.6880   14.0030 C.3    89  VAL89       0.0019
     77  N         24.7130   14.7270   15.5660 N.3   107  PHE107     -0.1227
     78  CA        23.3180   14.4530   15.1770 C.3   107  PHE107      0.1736
     79  C         22.3540   15.2310   16.0550 C.2   107  PHE107      0.2595
     80  O         22.7010   15.6780   17.1580 O.2   107  PHE107     -0.2718
     81  CB        23.0020   12.9590   15.3170 C.3   107  PHE107      0.0547
     82  CG        23.7690   12.0820   14.3860 C.ar  107  PHE107     -0.0202
     83  CD1       23.3170   11.8340   13.0950 C.ar  107  PHE107     -0.0042
     84  CD2       24.9430   11.4570   14.8090 C.ar  107  PHE107     -0.0042
     85  CE1       24.0470   11.0070   12.2370 C.ar  107  PHE107     -0.0003
     86  CE2       25.6620   10.6200   13.9650 C.ar  107  PHE107     -0.0003
     87  CZ        25.2100   10.4000   12.6620 C.ar  107  PHE107     -0.0000
     88  N         21.1120   15.3640   15.5790 N.am  108  GLU108     -0.1965
     89  CA        20.0280   15.8240   16.4440 C.3   108  GLU108      0.1733
     90  C         19.9710   14.8830   17.6370 C.2   108  GLU108      0.2616
     91  O         20.3480   13.7130   17.5320 O.2   108  GLU108     -0.2715
     92  CB        18.6900   15.7530   15.7000 C.3   108  GLU108      0.0429
     93  CG        18.3700   14.3370   15.2120 C.3   108  GLU108      0.1163
     94  CD        16.9500   14.1790   14.6670 C.2   108  GLU108      0.3649
     95  OE1       15.9490   14.5510   15.3400 O.co2 108  GLU108     -0.2457
     96  OE2       16.8420   13.6620   13.5620 O.co2 108  GLU108     -0.2457
     97  N         19.5230   15.4000   18.7780 N.am  109  TYR109     -0.1960
     98  CA        19.3630   14.5700   19.9510 C.3   109  TYR109      0.1771
     99  C         17.9560   14.0070   20.0310 C.2   109  TYR109      0.2619
    100  O         16.9960   14.7370   19.8200 O.2   109  TYR109     -0.2715
    101  CB        19.6540   15.3770   21.2110 C.3   109  TYR109      0.0574
    102  CG        19.4460   14.5950   22.4780 C.ar  109  TYR109     -0.0198
    103  CD1       20.4000   13.6720   22.9130 C.ar  109  TYR109     -0.0009
    104  CD2       18.2950   14.7770   23.2460 C.ar  109  TYR109     -0.0009
    105  CE1       20.2200   12.9560   24.0880 C.ar  109  TYR109      0.0417
    106  CE2       18.1020   14.0630   24.4200 C.ar  109  TYR109      0.0417
    107  CZ        19.0590   13.1510   24.8300 C.ar  109  TYR109      0.1957
    108  OH        18.8600   12.4420   25.9900 O.3   109  TYR109     -0.2866
    109  N         17.8590   12.7120   20.3280 N.am  110  VAL110     -0.1977
    110  CA        16.5650   12.0740   20.5880 C.3   110  VAL110      0.1596
    111  C         16.5950   11.6070   22.0220 C.2   110  VAL110      0.2287
    112  O         17.5580   10.9460   22.4370 O.2   110  VAL110     -0.2864
    113  CB        16.2990   10.8660   19.6670 C.3   110  VAL110      0.0276
    114  CG1       14.9860   10.2060   20.0590 C.3   110  VAL110      0.0022
    115  CG2       16.2500   11.3080   18.2100 C.3   110  VAL110      0.0022
    116  N         15.8500    9.2110   23.9140 N.3   112  ASN112     -0.1240
    117  CA        15.5230    7.7930   23.8330 C.3   112  ASN112      0.1653
    118  C         15.2560    7.0650   25.1490 C.2   112  ASN112      0.2266
    119  O         15.8840    7.3440   26.1760 O.2   112  ASN112     -0.2867
    120  CB        16.6550    7.0600   23.1020 C.3   112  ASN112      0.1155
    121  CG        16.3220    5.6140   22.8280 C.2   112  ASN112      0.2627
    122  OD1       15.3970    5.3200   22.0500 O.2   112  ASN112     -0.2716
    123  ND2       17.0490    4.6970   23.4760 N.am  112  ASN112     -0.0877
    124  N         15.6200    4.8630   17.6850 N.3   157  MET157     -0.1245
    125  CA        15.5050    5.7760   18.8420 C.3   157  MET157      0.1570
    126  C         14.0700    6.2430   18.9400 C.2   157  MET157      0.2261
    127  O         13.4750    6.6400   17.9430 O.2   157  MET157     -0.2867
    128  CB        16.4330    6.9810   18.7010 C.3   157  MET157      0.0387
    129  CG        17.9240    6.6360   18.6920 C.3   157  MET157      0.0595
    130  SD        18.5290    5.8370   20.1960 S.3   157  MET157     -0.1393
    131  CE        18.3560    4.1000   19.9090 C.3   157  MET157      0.0692
    132  N         18.4840    5.2880   13.2240 N.3   168  ILE168     -0.1231
    133  CA        19.8930    5.7050   13.3960 C.3   168  ILE168      0.1692
    134  C         20.8920    4.6590   12.8830 C.2   168  ILE168      0.2592
    135  O         20.5110    3.5710   12.4160 O.2   168  ILE168     -0.2718
    136  CB        20.2110    6.0190   14.8880 C.3   168  ILE168      0.0266
    137  CG1       20.0080    4.7810   15.7880 C.3   168  ILE168      0.0019
    138  CG2       19.3140    7.1450   15.3660 C.3   168  ILE168      0.0020
    139  CD1       20.8760    4.7040   17.0450 C.3   168  ILE168      0.0001
    140  N         22.1740    5.0130   13.0380 N.am  169  ASP169     -0.1960
    141  CA        23.3440    4.1960   12.6610 C.3   169  ASP169      0.1840
    142  C         23.3200    3.6660   11.2300 C.2   169  ASP169      0.2622
    143  O         23.0540    2.4750   10.9750 O.2   169  ASP169     -0.2715
    144  CB        23.6580    3.0990   13.6760 C.3   169  ASP169      0.1450
    145  CG        25.1390    2.7010   13.6490 C.2   169  ASP169      0.3671
    146  OD1       25.8510    3.0000   12.6520 O.co2 169  ASP169     -0.2456
    147  OD2       25.6470    2.1060   14.6300 O.co2 169  ASP169     -0.2456
    148  N         23.6450    4.5710   10.3150 N.am  170  TRP170     -0.1974
    149  CA        23.7240    4.2820    8.8920 C.3   170  TRP170      0.1640
    150  C         25.0860    3.7780    8.4560 C.2   170  TRP170      0.2290
    151  O         25.3910    3.7790    7.2680 O.2   170  TRP170     -0.2864
    152  CB        23.2820    5.5240    8.1300 C.3   170  TRP170      0.0576
    153  CG        21.8010    5.7970    8.4550 C.ar  170  TRP170      0.0006
    154  CD1       21.2700    6.4620    9.5660 C.ar  170  TRP170      0.0946
    155  CD2       20.6490    5.3270    7.7130 C.ar  170  TRP170      0.0152
    156  NE1       19.8990    6.4730    9.5460 N.ar  170  TRP170     -0.2442
    157  CE2       19.4660    5.7860    8.4460 C.ar  170  TRP170      0.0810
    158  CE3       20.4880    4.6150    6.5400 C.ar  170  TRP170      0.0012
    159  CZ2       18.1700    5.5390    7.9770 C.ar  170  TRP170      0.0191
    160  CZ3       19.1880    4.3470    6.1000 C.ar  170  TRP170      0.0001
    161  CH2       18.0750    4.7990    6.8040 C.ar  170  TRP170      0.0015
@<TRIPOS>BOND
     1    62    63    1
     2    53    54    1
     3    64    65    2
     4    64    63    1
     5    63    66    1
     6    55    56    2
     7    55    54    1
     8    54    57    1
     9   160   158   ar
    10   160   161   ar
    11   158   155   ar
    12   161   159   ar
    13    66    67    1
    14   151   150    2
    15    57    58    1
    16   155   157   ar
    17   155   153   ar
    18   159   157   ar
    19    67    69    1
    20    67    68    1
    21   152   153    1
    22   152   149    1
    23   157   156   ar
    24   153   154   ar
    25   150   149    1
    26    58    59    1
    27   149   148    1
    28   156   154   ar
    29    59    60   ar
    30    59    61   ar
    31    73    72    2
    32   148   142   am
    33   143   142    2
    34   142   141    1
    35    70    71    1
    36    72    71    1
    37    75    74    1
    38    71    74    1
    39    85    87   ar
    40    85    83   ar
    41   135   134    2
    42   146   145   ar
    43   141   140    1
    44   141   144    1
    45    87    86   ar
    46    74    76    1
    47   134   140   am
    48   134   133    1
    49    83    82   ar
    50   132   133    1
    51    52    51    1
    52   133   136    1
    53    96    94   ar
    54   145   144    1
    55   145   147   ar
    56    86    84   ar
    57    82    84   ar
    58    82    81    1
    59    51    50    1
    60    94    93    1
    61    94    95   ar
    62   136   138    1
    63   136   137    1
    64    50    49    1
    65    78    81    1
    66    78    77    1
    67    78    79    1
    68    93    92    1
    69    88    79   am
    70    88    89    1
    71    92    89    1
    72   137   139    1
    73    79    80    2
    74    49    48    1
    75    47    46    2
    76    48    45    1
    77    89    90    1
    78    27    28    1
    79    27    24    1
    80    23    24    1
    81    46    45    1
    82    91    90    2
    83    45    44    1
    84    24    25    1
    85    90    97   am
    86   124   125    1
    87   127   126    2
    88    39    38    2
    89   115   113    1
    90   129   128    1
    91   129   130    1
    92   128   125    1
    93    97    98    1
    94   125   126    1
    95    42    40    1
    96    25    26    2
    97    38    37    1
    98    40    37    1
    99    40    41    1
   100    35    33    1
   101   113   114    1
   102   113   110    1
   103    36    37    1
   104   100    99    2
   105   131   130    1
   106    98    99    1
   107    98   101    1
   108    99   109   am
   109    41    43    1
   110   109   110    1
   111   110   111    1
   112    34    33    1
   113    33    30    1
   114   101   102    1
   115    30    29    1
   116    30    31    1
   117   111   112    2
   118   122   121    2
   119   102   103   ar
   120   102   104   ar
   121    31    32    2
   122   121   120    1
   123   121   123   am
   124   103   105   ar
   125   120   117    1
   126   104   106   ar
   127    21    22    2
   128    21    20    1
   129   117   116    1
   130   117   118    1
   131    20    19    1
   132    18    16    1
   133   105   107   ar
   134   106   107   ar
   135    19    14   am
   136   107   108    1
   137   118   119    2
   138    16    13    1
   139    16    17    1
   140    14    15    2
   141    14    13    1
   142    13    12    1
   143     4     3    2
   144     3     2    1
   145    11     9    1
   146     1     2    1
   147     2     5    1
   148     9     8    2
   149     9    10    1
   150     8     7    1
   151     6     5    1
   152     6     7    1
