@<TRIPOS>MOLECULE
tmp/4dgmA00.pdb
 105 101 0 0 0
SMALL
GASTEIGER

@<TRIPOS>ATOM
      1  N         10.0460  -21.6650   10.1850 N.3   243  LEU243     -0.1245
      2  CA         9.4600  -21.6170    8.8490 C.3   243  LEU243      0.1561
      3  C          9.3610  -22.9750    8.1560 C.2   243  LEU243      0.2260
      4  O          8.5540  -23.1390    7.2450 O.2   243  LEU243     -0.2867
      5  CB        10.2130  -20.6090    7.9690 C.3   243  LEU243      0.0270
      6  CG        10.2290  -19.1270    8.3660 C.3   243  LEU243      0.0019
      7  CD1       10.7560  -18.3290    7.1870 C.3   243  LEU243      0.0001
      8  CD2        8.8510  -18.6490    8.7930 C.3   243  LEU243      0.0001
      9  N          9.9670  -25.1270    2.8210 N.3   247  GLY247     -0.1225
     10  CA        10.0410  -23.7540    2.3350 C.3   247  GLY247      0.1811
     11  C         11.4600  -23.3320    1.9940 C.2   247  GLY247      0.2280
     12  O         11.6810  -22.5840    1.0370 O.2   247  GLY247     -0.2866
     13  N         13.1510  -22.2420   -1.9650 N.3   251  TYR251     -0.1241
     14  CA        13.9780  -21.0410   -2.0050 C.3   251  TYR251      0.1605
     15  C         15.3560  -21.3200   -2.6090 C.2   251  TYR251      0.2264
     16  O         15.7410  -20.6900   -3.5950 O.2   251  TYR251     -0.2867
     17  CB        14.1260  -20.4790   -0.5780 C.3   251  TYR251      0.0534
     18  CG        15.0120  -19.2590   -0.4220 C.ar  251  TYR251     -0.0201
     19  CD1       14.7840  -18.1020   -1.1630 C.ar  251  TYR251     -0.0009
     20  CD2       16.0640  -19.2510    0.5020 C.ar  251  TYR251     -0.0009
     21  CE1       15.5780  -16.9760   -1.0040 C.ar  251  TYR251      0.0417
     22  CE2       16.8680  -18.1230    0.6710 C.ar  251  TYR251      0.0417
     23  CZ        16.6210  -16.9900   -0.0900 C.ar  251  TYR251      0.1957
     24  OH        17.3890  -15.8560    0.0510 O.3   251  TYR251     -0.2866
     25  N          6.9150  -26.8910    9.4570 N.3   272  ARG272     -0.1245
     26  CA         6.5680  -25.4960    9.7180 C.3   272  ARG272      0.1563
     27  C          5.7790  -25.4040   11.0180 C.2   272  ARG272      0.2260
     28  O          4.8180  -26.1440   11.2280 O.2   272  ARG272     -0.2867
     29  CB         5.7690  -24.8820    8.5570 C.3   272  ARG272      0.0307
     30  CG         5.2550  -23.4720    8.8260 C.3   272  ARG272      0.0489
     31  CD         4.7690  -22.7890    7.5540 C.3   272  ARG272      0.2205
     32  NE         3.9400  -21.6190    7.8450 N.pl3 272  ARG272     -0.0865
     33  CZ         3.5440  -20.7160    6.9440 C.cat 272  ARG272      0.5346
     34  NH1        3.9160  -20.8200    5.6740 N.pl3 272  ARG272      0.1354
     35  NH2        2.7780  -19.6940    7.3180 N.pl3 272  ARG272      0.1354
     36  N          2.3630  -19.6840   13.4770 N.3   275  TRP275     -0.1241
     37  CA         2.6200  -18.5090   14.3190 C.3   275  TRP275      0.1605
     38  C          1.9080  -18.5170   15.6520 C.2   275  TRP275      0.2264
     39  O          2.4360  -18.0150   16.6500 O.2   275  TRP275     -0.2867
     40  CB         2.3030  -17.2200   13.5520 C.3   275  TRP275      0.0550
     41  CG         3.1640  -17.0460   12.3240 C.ar  275  TRP275      0.0003
     42  CD1        2.7600  -17.0590   10.9860 C.ar  275  TRP275      0.0946
     43  CD2        4.6110  -16.8440   12.2800 C.ar  275  TRP275      0.0152
     44  NE1        3.8290  -16.8930   10.1460 N.ar  275  TRP275     -0.2442
     45  CE2        4.9710  -16.7530   10.8570 C.ar  275  TRP275      0.0810
     46  CE3        5.6210  -16.7370   13.2450 C.ar  275  TRP275      0.0012
     47  CZ2        6.2770  -16.5620   10.4440 C.ar  275  TRP275      0.0191
     48  CZ3        6.9320  -16.5350   12.8040 C.ar  275  TRP275      0.0001
     49  CH2        7.2450  -16.4570   11.4400 C.ar  275  TRP275      0.0015
     50  N          3.4630  -12.7530    8.8280 N.3   296  ASP296     -0.1239
     51  CA         3.6740  -13.8380    7.8940 C.3   296  ASP296      0.1674
     52  C          4.1280  -13.3360    6.5340 C.2   296  ASP296      0.2266
     53  O          4.8470  -14.0380    5.8040 O.2   296  ASP296     -0.2867
     54  CB         2.3950  -14.6460    7.7110 C.3   296  ASP296      0.1410
     55  CG         2.6090  -15.8480    6.8410 C.2   296  ASP296      0.3668
     56  OD1        3.3580  -16.7640    7.2390 O.co2 296  ASP296     -0.2456
     57  OD2        1.9930  -15.8690    5.7490 O.co2 296  ASP296     -0.2456
     58  N          8.1220  -12.3400    7.2080 N.3   299  LEU299     -0.1231
     59  CA         9.0400  -13.4400    7.4540 C.3   299  LEU299      0.1693
     60  C          8.8920  -14.5850    6.4300 C.2   299  LEU299      0.2592
     61  O          8.4000  -15.6620    6.7480 O.2   299  LEU299     -0.2718
     62  CB         8.9560  -13.9190    8.9020 C.3   299  LEU299      0.0284
     63  CG         9.4210  -12.9290    9.9850 C.3   299  LEU299      0.0019
     64  CD1        9.4230  -13.6120   11.3380 C.3   299  LEU299      0.0001
     65  CD2       10.8130  -12.3500    9.6790 C.3   299  LEU299      0.0001
     66  N          9.3410  -14.3050    5.2060 N.am  300  ARG300     -0.1966
     67  CA         9.3920  -15.2660    4.0940 C.3   300  ARG300      0.1729
     68  C         10.8570  -15.4820    3.7120 C.2   300  ARG300      0.2616
     69  O         11.6260  -14.5040    3.6170 O.2   300  ARG300     -0.2715
     70  CB         8.6570  -14.7110    2.8610 C.3   300  ARG300      0.0348
     71  CG         7.2200  -14.2600    3.0840 C.3   300  ARG300      0.0492
     72  CD         6.2970  -15.4580    3.0210 C.3   300  ARG300      0.2205
     73  NE         4.9290  -15.1080    3.3450 N.pl3 300  ARG300     -0.0865
     74  CZ         3.9560  -14.9810    2.4490 C.cat 300  ARG300      0.5346
     75  NH1        4.1990  -15.1780    1.1620 N.pl3 300  ARG300      0.1354
     76  NH2        2.7450  -14.6540    2.8440 N.pl3 300  ARG300      0.1354
     77  N         11.2530  -16.7380    3.5000 N.am  301  TYR301     -0.1960
     78  CA        12.6120  -17.0360    3.0040 C.3   301  TYR301      0.1771
     79  C         12.8980  -16.2260    1.7470 C.2   301  TYR301      0.2619
     80  O         13.9390  -15.5850    1.6190 O.2   301  TYR301     -0.2715
     81  CB        12.7790  -18.5180    2.6320 C.3   301  TYR301      0.0574
     82  CG        12.8600  -19.5030    3.7730 C.ar  301  TYR301     -0.0198
     83  CD1       13.9520  -19.5130    4.6470 C.ar  301  TYR301     -0.0009
     84  CD2       11.8650  -20.4680    3.9550 C.ar  301  TYR301     -0.0009
     85  CE1       14.0320  -20.4410    5.6740 C.ar  301  TYR301      0.0417
     86  CE2       11.9350  -21.3940    4.9780 C.ar  301  TYR301      0.0417
     87  CZ        13.0220  -21.3810    5.8360 C.ar  301  TYR301      0.1957
     88  OH        13.0900  -22.3040    6.8520 O.3   301  TYR301     -0.2866
     89  N         11.9580  -16.2680    0.8020 N.am  302  ASP302     -0.1971
     90  CA        12.1590  -15.6260   -0.4770 C.3   302  ASP302      0.1709
     91  C         12.0130  -14.1200   -0.3090 C.2   302  ASP302      0.2293
     92  O         10.9240  -13.6060   -0.0570 O.2   302  ASP302     -0.2864
     93  CB        11.1510  -16.1560   -1.5210 C.3   302  ASP302      0.1436
     94  CG        11.5590  -15.8200   -2.9400 C.2   302  ASP302      0.3671
     95  OD1       12.1990  -14.7640   -3.1620 O.co2 302  ASP302     -0.2456
     96  OD2       11.2520  -16.6130   -3.8530 O.co2 302  ASP302     -0.2456
     97  N          9.4050  -12.2160   -2.1690 N.3   305  GLU305     -0.1245
     98  CA         8.0290  -12.4970   -1.7520 C.3   305  GLU305      0.1567
     99  C          7.5800  -11.5790   -0.6160 C.2   305  GLU305      0.2260
    100  O          6.3810  -11.4110   -0.3960 O.2   305  GLU305     -0.2867
    101  CB         7.9990  -13.9490   -1.3130 C.3   305  GLU305      0.0388
    102  CG         6.6840  -14.6160   -1.0510 C.3   305  GLU305      0.1160
    103  CD         6.8910  -16.1180   -0.9570 C.2   305  GLU305      0.3649
    104  OE1        7.1410  -16.7440   -2.0150 O.co2 305  GLU305     -0.2457
    105  OE2        6.8240  -16.6660    0.1680 O.co2 305  GLU305     -0.2457
@<TRIPOS>BOND
     1    96    94   ar
     2    16    15    2
     3    95    94   ar
     4    94    93    1
     5    15    14    1
     6    97    98    1
     7   104   103   ar
     8    14    13    1
     9    14    17    1
    10    98   101    1
    11    98    99    1
    12    93    90    1
    13   101   102    1
    14    19    21   ar
    15    19    18   ar
    16   102   103    1
    17    21    23   ar
    18   103   105   ar
    19    99   100    2
    20    17    18    1
    21    90    91    1
    22    90    89    1
    23    18    20   ar
    24    91    92    2
    25    23    24    1
    26    23    22   ar
    27    20    22   ar
    28    89    79   am
    29    12    11    2
    30    75    74    1
    31    80    79    2
    32    79    78    1
    33    11    10    1
    34    10     9    1
    35    74    76    1
    36    74    73    2
    37    81    78    1
    38    81    82    1
    39    70    71    1
    40    70    67    1
    41    78    77    1
    42    72    71    1
    43    72    73    1
    44    77    68   am
    45    69    68    2
    46    68    67    1
    47    82    84   ar
    48    82    83   ar
    49    84    86   ar
    50    67    66    1
    51    83    85   ar
    52    86    87   ar
    53    66    60   am
    54    34    33    1
    55    85    87   ar
    56    57    55   ar
    57    53    52    2
    58    87    88    1
    59    60    61    2
    60    60    59    1
    61    52    51    1
    62    55    56   ar
    63    55    54    1
    64    33    35    1
    65    33    32    2
    66     7     6    1
    67    58    59    1
    68     4     3    2
    69    59    62    1
    70    31    32    1
    71    31    30    1
    72    54    51    1
    73    51    50    1
    74     5     6    1
    75     5     2    1
    76     3     2    1
    77     6     8    1
    78    29    30    1
    79    29    26    1
    80     2     1    1
    81    62    63    1
    82    25    26    1
    83    65    63    1
    84    26    27    1
    85    63    64    1
    86    44    45   ar
    87    44    42   ar
    88    47    45   ar
    89    47    49   ar
    90    45    43   ar
    91    42    41   ar
    92    27    28    2
    93    49    48   ar
    94    43    41   ar
    95    43    46   ar
    96    41    40    1
    97    48    46   ar
    98    36    37    1
    99    40    37    1
   100    37    38    1
   101    38    39    2
