@<TRIPOS>MOLECULE
tmp/4dgrA04.pdb
 206 193 0 0 0
SMALL
GASTEIGER

@<TRIPOS>ATOM
      1  N         15.8160   13.1200   63.2400 N.3    38  ARG38      -0.1231
      2  CA        16.2960   14.4970   63.1640 C.3    38  ARG38       0.1694
      3  C         16.8210   14.6730   61.7310 C.2    38  ARG38       0.2591
      4  O         16.8090   13.7160   60.9240 O.2    38  ARG38      -0.2718
      5  CB        17.3530   14.8340   64.2360 C.3    38  ARG38       0.0321
      6  CG        16.8170   15.6050   65.4560 C.3    38  ARG38       0.0489
      7  CD        17.8460   16.6160   66.0250 C.3    38  ARG38       0.2205
      8  NE        18.1360   17.6470   65.0330 N.pl3  38  ARG38      -0.0865
      9  CZ        19.2610   18.3510   64.9440 C.cat  38  ARG38       0.5346
     10  NH1       20.2780   18.1640   65.7880 N.pl3  38  ARG38       0.1354
     11  NH2       19.3830   19.2410   63.9630 N.pl3  38  ARG38       0.1354
     12  N         17.2510   15.8890   61.4150 N.am   39  GLU39      -0.1979
     13  CA        17.7260   16.2400   60.0840 C.3    39  GLU39       0.1602
     14  C         16.7390   15.8590   58.9840 C.2    39  GLU39       0.2287
     15  O         17.0820   15.1440   58.0350 O.2    39  GLU39      -0.2864
     16  CB        19.0950   15.6030   59.8380 C.3    39  GLU39       0.0415
     17  CG        20.1540   16.0510   60.8610 C.3    39  GLU39       0.1163
     18  CD        20.2030   15.2270   62.1450 C.2    39  GLU39       0.3649
     19  OE1       19.8080   14.0470   62.1090 O.co2  39  GLU39      -0.2457
     20  OE2       20.6420   15.7750   63.2020 O.co2  39  GLU39      -0.2457
     21  N         16.5840   11.4160   58.9630 N.3    54  LEU54      -0.1245
     22  CA        17.4000   10.3620   59.5410 C.3    54  LEU54       0.1561
     23  C         16.7050    9.7870   60.7680 C.2    54  LEU54       0.2260
     24  O         16.6010   10.4280   61.8040 O.2    54  LEU54      -0.2867
     25  CB        18.8020   10.8770   59.9170 C.3    54  LEU54       0.0270
     26  CG        19.6610   11.3370   58.7360 C.3    54  LEU54       0.0019
     27  CD1       20.9540   11.9650   59.2050 C.3    54  LEU54       0.0001
     28  CD2       19.9750   10.1800   57.7910 C.3    54  LEU54       0.0001
     29  N         24.3090   11.9790   67.4530 N.3    71  ASP71      -0.1225
     30  CA        24.1400   12.1570   66.0070 C.3    71  ASP71       0.1805
     31  C         24.4580   10.9460   65.1480 C.2    71  ASP71       0.2597
     32  O         23.8690   10.7750   64.0840 O.2    71  ASP71      -0.2718
     33  CB        24.9920   13.3400   65.5480 C.3    71  ASP71       0.1424
     34  CG        24.6220   14.6160   66.2650 C.2    71  ASP71       0.3668
     35  OD1       23.4140   14.9350   66.3500 O.co2  71  ASP71      -0.2456
     36  OD2       25.5420   15.3010   66.7540 O.co2  71  ASP71      -0.2456
     37  N         25.4010   10.1190   65.5880 N.am   72  ARG72      -0.1979
     38  CA        25.9190    9.0530   64.7350 C.3    72  ARG72       0.1597
     39  C         25.8740    7.7290   65.4710 C.2    72  ARG72       0.2287
     40  O         26.4540    7.5850   66.5370 O.2    72  ARG72      -0.2864
     41  CB        27.3550    9.3820   64.2930 C.3    72  ARG72       0.0334
     42  CG        27.4460   10.6920   63.5260 C.3    72  ARG72       0.0492
     43  CD        28.8860   11.0690   63.1310 C.3    72  ARG72       0.2205
     44  NE        29.7230   11.1400   64.3300 N.pl3  72  ARG72      -0.0865
     45  CZ        29.7040   12.1290   65.2150 C.cat  72  ARG72       0.5346
     46  NH1       28.9270   13.1770   65.0330 N.pl3  72  ARG72       0.1354
     47  NH2       30.4570   12.0550   66.3000 N.pl3  72  ARG72       0.1354
     48  N         20.8140    4.4220   62.6690 N.3    76  ARG76      -0.1245
     49  CA        20.2440    5.4670   61.8400 C.3    76  ARG76       0.1563
     50  C         20.1190    5.0510   60.3850 C.2    76  ARG76       0.2260
     51  O         20.8680    4.2010   59.8790 O.2    76  ARG76      -0.2867
     52  CB        21.0710    6.7540   61.9550 C.3    76  ARG76       0.0307
     53  CG        21.2130    7.2630   63.3910 C.3    76  ARG76       0.0489
     54  CD        21.4590    8.7650   63.4330 C.3    76  ARG76       0.2205
     55  NE        20.2200    9.5210   63.2170 N.pl3  76  ARG76      -0.0865
     56  CZ        20.1150   10.8410   63.3550 C.cat  76  ARG76       0.5346
     57  NH1       21.1920   11.5460   63.6630 N.pl3  76  ARG76       0.1354
     58  NH2       18.9410   11.4660   63.2060 N.pl3  76  ARG76       0.1354
     59  N         24.1120    7.9830   58.7690 N.3    99  TRP99      -0.1227
     60  CA        23.8570    9.0820   59.6980 C.3    99  TRP99       0.1737
     61  C         24.0870   10.4590   59.0660 C.2    99  TRP99       0.2596
     62  O         24.1450   11.4590   59.7630 O.2    99  TRP99      -0.2718
     63  CB        24.6580    8.9190   61.0030 C.3    99  TRP99       0.0564
     64  CG        26.0830    8.4550   60.8660 C.ar   99  TRP99       0.0003
     65  CD1       26.5940    7.2680   61.3190 C.ar   99  TRP99       0.0946
     66  CD2       27.1780    9.1560   60.2630 C.ar   99  TRP99       0.0152
     67  NE1       27.9390    7.1860   61.0290 N.ar   99  TRP99      -0.2442
     68  CE2       28.3190    8.3320   60.3760 C.ar   99  TRP99       0.0810
     69  CE3       27.3090   10.4040   59.6280 C.ar   99  TRP99       0.0012
     70  CZ2       29.5760    8.7160   59.8910 C.ar   99  TRP99       0.0191
     71  CZ3       28.5530   10.7720   59.1390 C.ar   99  TRP99       0.0001
     72  CH2       29.6700    9.9290   59.2740 C.ar   99  TRP99       0.0015
     73  N         24.1820   10.4840   57.7350 N.am  100  SER100     -0.1952
     74  CA        24.2510   11.7150   56.9540 C.3   100  SER100      0.1924
     75  C         23.7190   11.3780   55.5640 C.2   100  SER100      0.2314
     76  O         24.0310   10.3020   55.0330 O.2   100  SER100     -0.2863
     77  CB        25.6920   12.2510   56.8490 C.3   100  SER100      0.2116
     78  OG        25.7270   13.4790   56.1200 O.3   100  SER100     -0.2180
     79  N         37.6150   12.1840   59.0180 N.3   142  ASN142     -0.1225
     80  CA        36.9770   12.9420   60.0870 C.3   142  ASN142      0.1785
     81  C         35.5470   13.2950   59.7330 C.2   142  ASN142      0.2597
     82  O         35.2700   14.3910   59.2720 O.2   142  ASN142     -0.2718
     83  CB        37.8010   14.1920   60.4210 C.3   142  ASN142      0.1169
     84  CG        37.3420   14.8810   61.6910 C.2   142  ASN142      0.2627
     85  OD1       36.3890   14.4550   62.3390 O.2   142  ASN142     -0.2716
     86  ND2       38.0480   15.9390   62.0730 N.am  142  ASN142     -0.0877
     87  N         34.6670   12.3120   59.9150 N.am  143  ILE143     -0.1980
     88  CA        33.2230   12.4570   59.7440 C.3   143  ILE143      0.1595
     89  C         32.8650   12.9840   58.3560 C.2   143  ILE143      0.2287
     90  O         32.2770   14.0540   58.2030 O.2   143  ILE143     -0.2864
     91  CB        32.6170   13.3190   60.8590 C.3   143  ILE143      0.0276
     92  CG1       33.1140   12.8020   62.2210 C.3   143  ILE143      0.0022
     93  CG2       31.0990   13.2580   60.8140 C.3   143  ILE143      0.0022
     94  CD1       32.6290   13.6050   63.4190 C.3   143  ILE143      0.0001
     95  N         30.6450   13.7180   55.4540 N.3   145  ARG145     -0.1231
     96  CA        29.2790   14.1750   55.7040 C.3   145  ARG145      0.1694
     97  C         28.7600   15.0160   54.5420 C.2   145  ARG145      0.2592
     98  O         29.5420   15.5230   53.7340 O.2   145  ARG145     -0.2718
     99  CB        29.2330   14.9370   57.0310 C.3   145  ARG145      0.0321
    100  CG        30.1070   16.1710   57.0930 C.3   145  ARG145      0.0489
    101  CD        30.2720   16.6240   58.5490 C.3   145  ARG145      0.2205
    102  NE        31.1360   17.7990   58.7250 N.pl3 145  ARG145     -0.0865
    103  CZ        32.4600   17.7610   58.9080 C.cat 145  ARG145      0.5346
    104  NH1       33.1290   16.6150   58.9020 N.pl3 145  ARG145      0.1354
    105  NH2       33.1260   18.8910   59.0850 N.pl3 145  ARG145      0.1354
    106  N         27.4420   15.1450   54.4410 N.am  146  THR146     -0.1953
    107  CA        26.8500   15.8000   53.2750 C.3   146  THR146      0.1897
    108  C         25.6590   16.6890   53.6620 C.2   146  THR146      0.2313
    109  O         25.5970   17.1840   54.7920 O.2   146  THR146     -0.2863
    110  CB        26.5560   14.7590   52.1390 C.3   146  THR146      0.1794
    111  OG1       26.1630   15.4140   50.9310 O.3   146  THR146     -0.2208
    112  CG2       25.4670   13.7510   52.5180 C.3   146  THR146      0.0378
    113  N         22.1870   16.9350   54.0770 N.3   148  GLU148     -0.1245
    114  CA        20.9900   16.7960   54.9190 C.3   148  GLU148      0.1567
    115  C         19.7630   17.5080   54.3550 C.2   148  GLU148      0.2260
    116  O         18.8210   17.7830   55.0890 O.2   148  GLU148     -0.2867
    117  CB        21.2110   17.2460   56.3790 C.3   148  GLU148      0.0388
    118  CG        22.5760   16.9380   56.9850 C.3   148  GLU148      0.1160
    119  CD        23.0130   15.4660   56.9290 C.2   148  GLU148      0.3649
    120  OE1       22.2000   14.5590   56.6310 O.co2 148  GLU148     -0.2457
    121  OE2       24.2170   15.2130   57.1970 O.co2 148  GLU148     -0.2457
    122  N         36.5960   16.3810   57.4440 N.3   165  GLY165     -0.1225
    123  CA        37.5650   17.1670   58.1840 C.3   165  GLY165      0.1811
    124  C         36.9130   17.8600   59.3560 C.2   165  GLY165      0.2280
    125  O         35.7570   17.6010   59.6890 O.2   165  GLY165     -0.2866
    126  N         35.1350   20.3950   61.9250 N.3   167  ALA167     -0.1245
    127  CA        34.0110   21.3260   61.9070 C.3   167  ALA167      0.1562
    128  C         34.4070   22.6760   62.5180 C.2   167  ALA167      0.2260
    129  O         33.6070   23.6090   62.5410 O.2   167  ALA167     -0.2867
    130  CB        32.8410   20.7470   62.6770 C.3   167  ALA167      0.0290
    131  N         29.3270   23.4570   55.3920 N.3   197  GLU197     -0.1231
    132  CA        28.5550   22.3510   55.9520 C.3   197  GLU197      0.1699
    133  C         27.1170   22.4060   55.4510 C.2   197  GLU197      0.2592
    134  O         26.5580   23.4830   55.2260 O.2   197  GLU197     -0.2718
    135  CB        28.4850   22.4430   57.4840 C.3   197  GLU197      0.0402
    136  CG        29.8100   22.5600   58.1980 C.3   197  GLU197      0.1161
    137  CD        30.5040   21.2330   58.4480 C.2   197  GLU197      0.3649
    138  OE1       29.9450   20.1650   58.1190 O.co2 197  GLU197     -0.2457
    139  OE2       31.6200   21.2570   59.0070 O.co2 197  GLU197     -0.2457
    140  N         26.5220   21.2330   55.2940 N.am  198  GLU198     -0.1979
    141  CA        25.0670   21.0950   55.2670 C.3   198  GLU198      0.1602
    142  C         24.3830   22.0120   54.2490 C.2   198  GLU198      0.2287
    143  O         23.4480   22.7420   54.5780 O.2   198  GLU198     -0.2864
    144  CB        24.4930   21.3300   56.6750 C.3   198  GLU198      0.0415
    145  CG        24.9580   20.2860   57.6820 C.3   198  GLU198      0.1163
    146  CD        24.6240   20.6170   59.1260 C.2   198  GLU198      0.3649
    147  OE1       24.2300   21.7680   59.4150 O.co2 198  GLU198     -0.2457
    148  OE2       24.7270   19.7010   59.9780 O.co2 198  GLU198     -0.2457
    149  N         26.4260   26.3030   55.7440 N.3   213  ARG213     -0.1245
    150  CA        26.6840   26.6830   57.1260 C.3   213  ARG213      0.1563
    151  C         28.2020   26.7450   57.2880 C.2   213  ARG213      0.2260
    152  O         28.8680   25.7400   57.1190 O.2   213  ARG213     -0.2867
    153  CB        26.0860   25.6120   58.0490 C.3   213  ARG213      0.0307
    154  CG        26.6220   25.5560   59.5090 C.3   213  ARG213      0.0489
    155  CD        25.9790   24.3690   60.2260 C.3   213  ARG213      0.2205
    156  NE        26.4970   24.1200   61.5720 N.pl3 213  ARG213     -0.0865
    157  CZ        25.9560   23.2600   62.4260 C.cat 213  ARG213      0.5346
    158  NH1       24.8750   22.5730   62.0630 N.pl3 213  ARG213      0.1354
    159  NH2       26.5040   23.0740   63.6360 N.pl3 213  ARG213      0.1354
    160  N         30.5060   26.5910   59.8770 N.3   215  ASN215     -0.1240
    161  CA        30.5270   26.2620   61.2940 C.3   215  ASN215      0.1653
    162  C         31.7280   26.8420   62.0170 C.2   215  ASN215      0.2266
    163  O         31.7270   26.9590   63.2320 O.2   215  ASN215     -0.2867
    164  CB        30.5230   24.7440   61.4910 C.3   215  ASN215      0.1155
    165  CG        30.0480   24.3410   62.8750 C.2   215  ASN215      0.2627
    166  OD1       28.8730   24.5000   63.2070 O.2   215  ASN215     -0.2716
    167  ND2       30.9480   23.8000   63.6780 N.am  215  ASN215     -0.0877
    168  N         32.7000   28.0430   65.8370 N.3   266  ASN266     -0.1225
    169  CA        32.4970   26.6220   66.1420 C.3   266  ASN266      0.1785
    170  C         31.0650   26.2370   66.4770 C.2   266  ASN266      0.2597
    171  O         30.8140   25.4440   67.3880 O.2   266  ASN266     -0.2718
    172  CB        33.4230   26.2120   67.2890 C.3   266  ASN266      0.1169
    173  CG        34.8960   26.4700   66.9720 C.2   266  ASN266      0.2627
    174  OD1       35.2530   26.7540   65.8360 O.2   266  ASN266     -0.2716
    175  ND2       35.7510   26.3500   67.9770 N.am  266  ASN266     -0.0877
    176  N         30.1340   26.7740   65.7090 N.am  267  ASN267     -0.1974
    177  CA        28.7410   26.4220   65.8240 C.3   267  ASN267      0.1688
    178  C         27.9970   26.9420   64.6060 C.2   267  ASN267      0.2292
    179  O         28.5480   27.6630   63.7710 O.2   267  ASN267     -0.2864
    180  CB        28.1290   26.9980   67.1000 C.3   267  ASN267      0.1181
    181  CG        27.0360   26.1050   67.6800 C.2   267  ASN267      0.2629
    182  OD1       26.5100   25.2020   67.0080 O.2   267  ASN267     -0.2716
    183  ND2       26.6890   26.3530   68.9360 N.am  267  ASN267     -0.0877
    184  N         18.2500   27.9730   68.8910 N.3   291  ARG291     -0.1245
    185  CA        17.3960   27.5300   67.7920 C.3   291  ARG291      0.1563
    186  C         15.9370   27.6820   68.1550 C.2   291  ARG291      0.2260
    187  O         15.2170   26.7010   68.3780 O.2   291  ARG291     -0.2867
    188  CB        17.7160   26.0810   67.4310 C.3   291  ARG291      0.0307
    189  CG        19.1480   25.9250   66.9260 C.3   291  ARG291      0.0489
    190  CD        19.6040   24.4780   66.8860 C.3   291  ARG291      0.2205
    191  NE        20.9180   24.3770   66.2640 N.pl3 291  ARG291     -0.0865
    192  CZ        21.5110   23.2310   65.9390 C.cat 291  ARG291      0.5346
    193  NH1       20.9220   22.0580   66.1980 N.pl3 291  ARG291      0.1354
    194  NH2       22.6900   23.2620   65.3430 N.pl3 291  ARG291      0.1354
    195  N         17.0010   22.8710   62.0710 N.3   325  TYR325     -0.1241
    196  CA        17.5050   22.9150   60.7100 C.3   325  TYR325      0.1605
    197  C         16.4230   23.4130   59.7640 C.2   325  TYR325      0.2264
    198  O         15.2320   23.2610   60.0220 O.2   325  TYR325     -0.2867
    199  CB        17.9490   21.5120   60.2830 C.3   325  TYR325      0.0534
    200  CG        19.3230   21.1090   60.7750 C.ar  325  TYR325     -0.0201
    201  CD1       19.9500   21.8060   61.8030 C.ar  325  TYR325     -0.0009
    202  CD2       20.0200   20.0770   60.1550 C.ar  325  TYR325     -0.0009
    203  CE1       21.2280   21.4630   62.2230 C.ar  325  TYR325      0.0417
    204  CE2       21.2920   19.7250   60.5690 C.ar  325  TYR325      0.0417
    205  CZ        21.8920   20.4320   61.6020 C.ar  325  TYR325      0.1957
    206  OH        23.1530   20.1120   62.0380 O.3   325  TYR325     -0.2866
@<TRIPOS>BOND
     1   111   110    1
     2   110   112    1
     3   110   107    1
     4   107   108    1
     5   107   106    1
     6   108   109    2
     7    98    97    2
     8   113   114    1
     9   142   143    2
    10   142   141    1
    11   115   114    1
    12   115   116    2
    13   106    97   am
    14    97    96    1
    15   114   117    1
    16    76    75    2
    17   134   133    2
    18   141   140    1
    19   141   144    1
    20   140   133   am
    21   131   132    1
    22   133   132    1
    23    95    96    1
    24    75    74    1
    25    96    99    1
    26   149   150    1
    27   132   135    1
    28    78    77    1
    29   117   118    1
    30   120   119   ar
    31   144   145    1
    32    77    74    1
    33   119   118    1
    34   119   121   ar
    35    74    73    1
    36    99   100    1
    37   100   101    1
    38   152   151    2
    39   150   151    1
    40   150   153    1
    41   122   123    1
    42   135   136    1
    43   145   146    1
    44    73    61   am
    45    28    26    1
    46    15    14    2
    47   153   154    1
    48   138   137   ar
    49   123   124    1
    50   136   137    1
    51    90    89    2
    52    89    88    1
    53   137   139   ar
    54   101   102    1
    55   102   103    2
    56    26    27    1
    57    26    25    1
    58    59    60    1
    59   104   103    1
    60   103   105    1
    61    21    22    1
    62    14    13    1
    63    79    80    1
    64    61    60    1
    65    61    62    2
    66   146   147   ar
    67   146   148   ar
    68    71    72   ar
    69    71    69   ar
    70    82    81    2
    71    72    70   ar
    72   124   125    2
    73   154   155    1
    74    22    25    1
    75    22    23    1
    76    69    66   ar
    77    60    63    1
    78    81    87   am
    79    81    80    1
    80    88    87    1
    81    88    91    1
    82   197   198    2
    83   197   196    1
    84    16    13    1
    85    16    17    1
    86   160   161    1
    87    51    50    2
    88    70    68   ar
    89    13    12    1
    90    80    83    1
    91   202   204   ar
    92   202   200   ar
    93   155   156    1
    94    66    68   ar
    95    66    64   ar
    96   199   196    1
    97   199   200    1
    98    68    67   ar
    99    50    49    1
   100    83    84    1
   101   204   205   ar
   102   196   195    1
   103    23    24    2
   104   200   201   ar
   105    93    91    1
   106    91    92    1
   107    17    18    1
   108    64    63    1
   109    64    65   ar
   110     4     3    2
   111    67    65   ar
   112   161   164    1
   113   161   162    1
   114    12     3   am
   115   164   165    1
   116   156   157    2
   117   205   206    1
   118   205   203   ar
   119    84    86   am
   120    84    85    2
   121     3     2    1
   122   201   203   ar
   123    49    52    1
   124    49    48    1
   125   127   126    1
   126   127   128    1
   127   127   130    1
   128    52    53    1
   129   162   163    2
   130   158   157    1
   131    19    18   ar
   132    18    20   ar
   133    92    94    1
   134   157   159    1
   135   128   129    2
   136   165   166    2
   137   165   167   am
   138    43    42    1
   139    43    44    1
   140     2     1    1
   141     2     5    1
   142    58    56    1
   143    55    56    2
   144    55    54    1
   145    56    57    1
   146    53    54    1
   147    42    41    1
   148   179   178    2
   149    11     9    1
   150    32    31    2
   151     5     6    1
   152    41    38    1
   153    44    45    2
   154   178   177    1
   155    38    39    1
   156    38    37    1
   157     9     8    2
   158     9    10    1
   159    46    45    1
   160     8     7    1
   161    31    37   am
   162    31    30    1
   163    45    47    1
   164   194   192    1
   165     6     7    1
   166    39    40    2
   167    33    30    1
   168    33    34    1
   169   176   177    1
   170   176   170   am
   171   177   180    1
   172   174   173    2
   173   168   169    1
   174   192   193    1
   175   192   191    2
   176    30    29    1
   177   169   170    1
   178   169   172    1
   179   191   190    1
   180    34    35   ar
   181    34    36   ar
   182   170   171    2
   183   190   189    1
   184   189   188    1
   185   173   172    1
   186   173   175   am
   187   182   181    2
   188   180   181    1
   189   188   185    1
   190   181   183   am
   191   185   186    1
   192   185   184    1
   193   186   187    2
