@<TRIPOS>MOLECULE
tmp/4dgrA03.pdb
 92 93 0 0 0
SMALL
GASTEIGER

@<TRIPOS>ATOM
      1  N          9.5810    7.0370   69.6950 N.3    60  ILE60      -0.1231
      2  CA         9.8240    8.0680   70.6850 C.3    60  ILE60       0.1692
      3  C          9.4210    7.5960   72.0990 C.2    60  ILE60       0.2592
      4  O         10.1360    7.8700   73.0830 O.2    60  ILE60      -0.2718
      5  CB         9.1830    9.4070   70.2240 C.3    60  ILE60       0.0266
      6  CG1        9.5860   10.5500   71.1400 C.3    60  ILE60       0.0019
      7  CG2        7.6660    9.3020   70.0840 C.3    60  ILE60       0.0020
      8  CD1        9.3100   11.8980   70.5380 C.3    60  ILE60       0.0001
      9  N          8.3300    6.8470   72.1950 N.am   61  ARG61      -0.1966
     10  CA         7.9110    6.2890   73.4770 C.3    61  ARG61       0.1729
     11  C          8.7420    5.0760   73.8790 C.2    61  ARG61       0.2617
     12  O          8.7300    4.6640   75.0340 O.2    61  ARG61      -0.2715
     13  CB         6.4200    5.9310   73.4590 C.3    61  ARG61       0.0348
     14  CG         5.4760    7.1120   73.6310 C.3    61  ARG61       0.0492
     15  CD         5.5180    7.5520   75.0150 C.3    61  ARG61       0.2205
     16  NE         4.4110    8.4130   75.4490 N.pl3  61  ARG61      -0.0865
     17  CZ         4.3960    8.9460   76.6610 C.cat  61  ARG61       0.5346
     18  NH1        5.4040    8.6790   77.4810 N.pl3  61  ARG61       0.1354
     19  NH2        3.4090    9.7250   77.0480 N.pl3  61  ARG61       0.1354
     20  N          9.4610    4.4990   72.9270 N.am   62  GLY62      -0.1940
     21  CA        10.2860    3.3490   73.2160 C.3    62  GLY62       0.2014
     22  C         11.4290    3.6900   74.1510 C.2    62  GLY62       0.2638
     23  O         11.9380    4.8070   74.1510 O.2    62  GLY62      -0.2714
     24  N         11.8460    2.7030   74.9350 N.am   63  LYS63      -0.1977
     25  CA        12.9410    2.8830   75.8710 C.3    63  LYS63       0.1596
     26  C         14.2580    3.2060   75.1630 C.2    63  LYS63       0.2287
     27  O         15.1150    3.8840   75.7430 O.2    63  LYS63      -0.2864
     28  CB        13.0690    1.6600   76.7870 C.3    63  LYS63       0.0298
     29  CG        11.8580    1.4660   77.7130 C.3    63  LYS63       0.0038
     30  CD        12.0320    0.2400   78.5870 C.3    63  LYS63       0.0206
     31  CE        10.8610    0.0120   79.5280 C.3    63  LYS63       0.1093
     32  NZ        11.1200   -1.1750   80.4070 N.3    63  LYS63      -0.1314
     33  N         14.6350    5.3200   72.9720 N.3    65  SER65      -0.1202
     34  CA        14.7290    6.7470   72.6390 C.3    65  SER65       0.2020
     35  C         15.7360    7.4580   73.5540 C.2    65  SER65       0.2618
     36  O         16.1780    8.5700   73.2510 O.2    65  SER65      -0.2717
     37  CB        13.3650    7.4250   72.7250 C.3    65  SER65       0.2103
     38  OG        12.9190    7.5280   74.0620 O.3    65  SER65      -0.2182
     39  N         16.0690    6.8410   74.6840 N.am   66  ASN66      -0.1974
     40  CA        17.0630    7.4010   75.5950 C.3    66  ASN66       0.1688
     41  C         18.4200    7.3930   74.9140 C.2    66  ASN66       0.2292
     42  O         18.9100    6.3300   74.5390 O.2    66  ASN66      -0.2864
     43  CB        17.1180    6.5710   76.8850 C.3    66  ASN66       0.1181
     44  CG        18.0300    7.1700   77.9350 C.2    66  ASN66       0.2629
     45  OD1       18.6440    8.2180   77.7280 O.2    66  ASN66      -0.2716
     46  ND2       18.0940    6.5150   79.0930 N.am   66  ASN66      -0.0877
     47  N         12.9430   15.0820   79.3350 N.3   357  VAL357     -0.1231
     48  CA        12.8580   13.8190   78.6080 C.3   357  VAL357      0.1692
     49  C         14.2670   13.3950   78.2470 C.2   357  VAL357      0.2592
     50  O         15.1920   14.2170   78.2610 O.2   357  VAL357     -0.2718
     51  CB        12.0060   13.8940   77.3180 C.3   357  VAL357      0.0266
     52  CG1       10.5270   14.1330   77.6520 C.3   357  VAL357      0.0020
     53  CG2       12.5370   14.9410   76.3610 C.3   357  VAL357      0.0020
     54  N         14.4360   12.1120   77.9240 N.am  358  TRP358     -0.1962
     55  CA        15.7580   11.5800   77.6060 C.3   358  TRP358      0.1771
     56  C         16.0740   11.4870   76.1150 C.2   358  TRP358      0.2619
     57  O         17.1570   11.0140   75.7340 O.2   358  TRP358     -0.2715
     58  CB        15.9030   10.1900   78.2110 C.3   358  TRP358      0.0590
     59  CG        16.0650   10.2040   79.6960 C.ar  358  TRP358      0.0006
     60  CD1       15.0960    9.9640   80.6240 C.ar  358  TRP358      0.0946
     61  CD2       17.2690   10.4780   80.4280 C.ar  358  TRP358      0.0152
     62  NE1       15.6270   10.0600   81.8870 N.ar  358  TRP358     -0.2442
     63  CE2       16.9560   10.3800   81.7920 C.ar  358  TRP358      0.0810
     64  CE3       18.5800   10.7970   80.0570 C.ar  358  TRP358      0.0012
     65  CZ2       17.9070   10.5850   82.7920 C.ar  358  TRP358      0.0191
     66  CZ3       19.5240   10.9990   81.0460 C.ar  358  TRP358      0.0001
     67  CH2       19.1810   10.8990   82.3990 C.ar  358  TRP358      0.0015
     68  N         15.1310   11.9330   75.2870 N.am  359  TRP359     -0.1974
     69  CA        15.2190   11.8090   73.8530 C.3   359  TRP359      0.1640
     70  C         15.3620   13.1690   73.1920 C.2   359  TRP359      0.2290
     71  O         15.1570   14.2130   73.8250 O.2   359  TRP359     -0.2864
     72  CB        13.9930   11.0770   73.2900 C.3   359  TRP359      0.0576
     73  CG        12.6210   11.5610   73.7780 C.ar  359  TRP359      0.0006
     74  CD1       11.8550   10.9970   74.7700 C.ar  359  TRP359      0.0946
     75  CD2       11.8590   12.6580   73.2680 C.ar  359  TRP359      0.0152
     76  NE1       10.6770   11.6860   74.9090 N.ar  359  TRP359     -0.2442
     77  CE2       10.6610   12.7170   74.0050 C.ar  359  TRP359      0.0810
     78  CE3       12.0840   13.6140   72.2770 C.ar  359  TRP359      0.0012
     79  CZ2        9.6960   13.6780   73.7650 C.ar  359  TRP359      0.0191
     80  CZ3       11.1200   14.5510   72.0370 C.ar  359  TRP359      0.0001
     81  CH2        9.9520   14.5900   72.7840 C.ar  359  TRP359      0.0015
     82  N          4.9930   13.5270   78.1480 N.3   388  PHE388     -0.1241
     83  CA         5.9790   12.4640   77.9750 C.3   388  PHE388      0.1605
     84  C          6.6880   12.0890   79.2780 C.2   388  PHE388      0.2264
     85  O          7.5600   11.2170   79.2830 O.2   388  PHE388     -0.2867
     86  CB         7.0300   12.8900   76.9420 C.3   388  PHE388      0.0534
     87  CG         6.5420   12.8540   75.5180 C.ar  388  PHE388     -0.0203
     88  CD1        5.9490   13.9680   74.9460 C.ar  388  PHE388     -0.0042
     89  CD2        6.6950   11.7060   74.7470 C.ar  388  PHE388     -0.0042
     90  CE1        5.5110   13.9360   73.6360 C.ar  388  PHE388     -0.0003
     91  CE2        6.2700   11.6720   73.4400 C.ar  388  PHE388     -0.0003
     92  CZ         5.6740   12.7880   72.8840 C.ar  388  PHE388     -0.0000
@<TRIPOS>BOND
     1     1     2    1
     2     7     5    1
     3     5     2    1
     4     5     6    1
     5     8     6    1
     6     2     3    1
     7    80    78   ar
     8    80    81   ar
     9     3     9   am
    10     3     4    2
    11     9    10    1
    12    78    75   ar
    13    34    37    1
    14    34    33    1
    15    34    35    1
    16    37    38    1
    17    81    79   ar
    18    92    91   ar
    19    92    90   ar
    20    20    21    1
    21    20    11   am
    22    70    71    2
    23    70    69    1
    24    21    22    1
    25    36    35    2
    26    75    73   ar
    27    75    77   ar
    28    72    73    1
    29    72    69    1
    30    91    89   ar
    31    13    10    1
    32    13    14    1
    33    10    11    1
    34    35    39   am
    35    14    15    1
    36    90    88   ar
    37    79    77   ar
    38    73    74   ar
    39    69    68    1
    40    11    12    2
    41    77    76   ar
    42    23    22    2
    43    22    24   am
    44    42    41    2
    45    39    40    1
    46    89    87   ar
    47    74    76   ar
    48    41    40    1
    49    24    25    1
    50    88    87   ar
    51    15    16    1
    52    26    27    2
    53    26    25    1
    54    68    56   am
    55    16    17    2
    56    87    86    1
    57    40    43    1
    58    57    56    2
    59    25    28    1
    60    56    55    1
    61    53    51    1
    62    17    19    1
    63    17    18    1
    64    28    29    1
    65    43    44    1
    66    86    83    1
    67    51    52    1
    68    51    48    1
    69    55    54    1
    70    55    58    1
    71    29    30    1
    72    45    44    2
    73    54    49   am
    74    44    46   am
    75    83    82    1
    76    83    84    1
    77    58    59    1
    78    49    50    2
    79    49    48    1
    80    30    31    1
    81    48    47    1
    82    84    85    2
    83    31    32    1
    84    59    61   ar
    85    59    60   ar
    86    64    61   ar
    87    64    66   ar
    88    61    63   ar
    89    60    62   ar
    90    66    67   ar
    91    63    62   ar
    92    63    65   ar
    93    67    65   ar
