@<TRIPOS>MOLECULE
tmp/4dgrA01.pdb
 84 80 0 0 0
SMALL
GASTEIGER

@<TRIPOS>ATOM
      1  N         16.3800    7.3190   64.0210 N.3    56  GLN56      -0.1245
      2  CA        17.2680    6.8480   65.0810 C.3    56  GLN56       0.1566
      3  C         16.9950    5.3800   65.4470 C.2    56  GLN56       0.2260
      4  O         17.5660    4.8570   66.3880 O.2    56  GLN56      -0.2867
      5  CB        17.1010    7.7340   66.3100 C.3    56  GLN56       0.0367
      6  CG        17.6370    9.1530   66.1310 C.3    56  GLN56       0.0905
      7  CD        19.1310    9.2770   66.4170 C.2    56  GLN56       0.2608
      8  OE1       19.9000    8.3030   66.3300 O.2    56  GLN56      -0.2717
      9  NE2       19.5480   10.4860   66.7740 N.am   56  GLN56      -0.0878
     10  N         14.3020    3.7360   66.5920 N.3    58  THR58      -0.1218
     11  CA        13.5000    3.5220   67.7960 C.3    58  THR58       0.1862
     12  C         12.2910    4.4240   67.6830 C.2    58  THR58       0.2287
     13  O         12.3520    5.4400   67.0010 O.2    58  THR58      -0.2866
     14  CB        14.2820    3.8850   69.0800 C.3    58  THR58       0.1770
     15  OG1       13.4430    3.7200   70.2330 O.3    58  THR58      -0.2211
     16  CG2       14.8060    5.3370   69.0290 C.3    58  THR58       0.0375
     17  N         14.4140    2.7660   73.9070 N.3    64  HIS64      -0.1241
     18  CA        15.6270    3.0810   73.1520 C.3    64  HIS64       0.1621
     19  C         15.6710    4.5420   72.6910 C.2    64  HIS64       0.2264
     20  O         16.6470    4.9760   72.0910 O.2    64  HIS64      -0.2867
     21  CB        15.8050    2.1360   71.9540 C.3    64  HIS64       0.0745
     22  CG        16.0030    0.7020   72.3420 C.ar   64  HIS64       0.0817
     23  ND1       14.9770   -0.2120   72.3630 N.ar   64  HIS64      -0.2268
     24  CD2       17.1100    0.0350   72.7520 C.ar   64  HIS64       0.1154
     25  CE1       15.4400   -1.3880   72.7640 C.ar   64  HIS64       0.1986
     26  NE2       16.7360   -1.2620   73.0060 N.ar   64  HIS64      -0.2212
     27  N         16.0690    6.8410   74.6840 N.3    66  ASN66      -0.1225
     28  CA        17.0630    7.4010   75.5950 C.3    66  ASN66       0.1785
     29  C         18.4200    7.3930   74.9140 C.2    66  ASN66       0.2598
     30  O         18.9100    6.3300   74.5390 O.2    66  ASN66      -0.2718
     31  CB        17.1180    6.5710   76.8850 C.3    66  ASN66       0.1169
     32  CG        18.0300    7.1700   77.9350 C.2    66  ASN66       0.2627
     33  OD1       18.6440    8.2180   77.7280 O.2    66  ASN66      -0.2716
     34  ND2       18.0940    6.5150   79.0930 N.am   66  ASN66      -0.0877
     35  N         18.9970    8.5790   74.7100 N.am   67  GLY67      -0.1942
     36  CA        20.3090    8.7000   74.1020 C.3    67  GLY67       0.2014
     37  C         20.3010    9.2610   72.6920 C.2    67  GLY67       0.2639
     38  O         21.3490    9.4450   72.0880 O.2    67  GLY67      -0.2714
     39  N         19.1170    9.5440   72.1720 N.am   68  THR68      -0.1950
     40  CA        18.9800   10.0020   70.8030 C.3    68  THR68       0.1897
     41  C         19.3860   11.4520   70.5750 C.2    68  THR68       0.2313
     42  O         19.3020   11.9270   69.4550 O.2    68  THR68      -0.2863
     43  CB        17.5490    9.7850   70.2550 C.3    68  THR68       0.1794
     44  OG1       16.5810   10.2980   71.1730 O.3    68  THR68      -0.2208
     45  CG2       17.2950    8.3020   69.9840 C.3    68  THR68       0.0378
     46  N         22.3750   11.9290   70.4920 N.3    70  HIS70      -0.1241
     47  CA        23.5810   11.6150   69.7200 C.3    70  HIS70       0.1621
     48  C         23.3260   11.5250   68.2230 C.2    70  HIS70       0.2264
     49  O         22.2780   11.0700   67.7820 O.2    70  HIS70      -0.2867
     50  CB        24.2380   10.3470   70.2480 C.3    70  HIS70       0.0745
     51  CG        24.8740   10.5470   71.5830 C.ar   70  HIS70       0.0817
     52  ND1       24.3750    9.9970   72.7440 N.ar   70  HIS70      -0.2268
     53  CD2       25.9470   11.2890   71.9460 C.ar   70  HIS70       0.1154
     54  CE1       25.1250   10.3780   73.7640 C.ar   70  HIS70       0.1986
     55  NE2       26.0820   11.1670   73.3070 N.ar   70  HIS70      -0.2212
     56  N         25.4010   10.1190   65.5880 N.3    72  ARG72      -0.1231
     57  CA        25.9190    9.0530   64.7350 C.3    72  ARG72       0.1694
     58  C         25.8740    7.7290   65.4710 C.2    72  ARG72       0.2592
     59  O         26.4540    7.5850   66.5370 O.2    72  ARG72      -0.2718
     60  CB        27.3550    9.3820   64.2930 C.3    72  ARG72       0.0321
     61  CG        27.4460   10.6920   63.5260 C.3    72  ARG72       0.0489
     62  CD        28.8860   11.0690   63.1310 C.3    72  ARG72       0.2205
     63  NE        29.7230   11.1400   64.3300 N.pl3  72  ARG72      -0.0865
     64  CZ        29.7040   12.1290   65.2150 C.cat  72  ARG72       0.5346
     65  NH1       28.9270   13.1770   65.0330 N.pl3  72  ARG72       0.1354
     66  NH2       30.4570   12.0550   66.3000 N.pl3  72  ARG72       0.1354
     67  N         25.1420    6.7870   64.9070 N.am   73  SER73      -0.1952
     68  CA        25.0780    5.4260   65.4100 C.3    73  SER73       0.1924
     69  C         24.7730    4.5180   64.2550 C.2    73  SER73       0.2314
     70  O         24.3750    4.9740   63.1770 O.2    73  SER73      -0.2863
     71  CB        23.9530    5.2540   66.4310 C.3    73  SER73       0.2116
     72  OG        22.6980    5.1520   65.7700 O.3    73  SER73      -0.2180
     73  N         22.2570    2.6860   64.0870 N.3    75  TYR75      -0.1241
     74  CA        20.8180    2.4600   64.1040 C.3    75  TYR75       0.1605
     75  C         20.0670    3.5290   63.3240 C.2    75  TYR75       0.2264
     76  O         18.8370    3.5410   63.3230 O.2    75  TYR75      -0.2867
     77  CB        20.3110    2.3860   65.5610 C.3    75  TYR75       0.0534
     78  CG        21.3230    1.6380   66.4090 C.ar   75  TYR75      -0.0201
     79  CD1       21.6560    0.3310   66.1100 C.ar   75  TYR75      -0.0009
     80  CD2       21.9710    2.2460   67.4630 C.ar   75  TYR75      -0.0009
     81  CE1       22.6390   -0.3510   66.8170 C.ar   75  TYR75       0.0417
     82  CE2       22.9480    1.5700   68.1900 C.ar   75  TYR75       0.0417
     83  CZ        23.2770    0.2700   67.8600 C.ar   75  TYR75       0.1957
     84  OH        24.2480   -0.4130   68.5750 O.3    75  TYR75      -0.2866
@<TRIPOS>BOND
     1    62    61    1
     2    62    63    1
     3    70    69    2
     4    76    75    2
     5    75    74    1
     6    61    60    1
     7     1     2    1
     8    73    74    1
     9    74    77    1
    10    69    68    1
    11    60    57    1
    12    63    64    2
    13    57    58    1
    14    57    56    1
    15    67    68    1
    16    67    58   am
    17    65    64    1
    18     2     3    1
    19     2     5    1
    20    64    66    1
    21    68    71    1
    22     3     4    2
    23    58    59    2
    24    77    78    1
    25    72    71    1
    26    79    78   ar
    27    79    81   ar
    28     6     5    1
    29     6     7    1
    30     8     7    2
    31    78    80   ar
    32     7     9   am
    33    10    11    1
    34    81    83   ar
    35    13    12    2
    36    80    82   ar
    37    12    11    1
    38    49    48    2
    39    11    14    1
    40    83    82   ar
    41    83    84    1
    42    48    47    1
    43    16    14    1
    44    14    15    1
    45    42    41    2
    46    47    50    1
    47    47    46    1
    48    45    43    1
    49    50    51    1
    50    43    40    1
    51    43    44    1
    52    41    40    1
    53    40    39    1
    54    51    53   ar
    55    51    52   ar
    56    53    55   ar
    57    21    22    1
    58    21    18    1
    59    38    37    2
    60    20    19    2
    61    39    37   am
    62    22    23   ar
    63    22    24   ar
    64    23    25   ar
    65    19    18    1
    66    37    36    1
    67    52    54   ar
    68    24    26   ar
    69    25    26   ar
    70    18    17    1
    71    55    54   ar
    72    36    35    1
    73    30    29    2
    74    27    28    1
    75    35    29   am
    76    29    28    1
    77    28    31    1
    78    31    32    1
    79    33    32    2
    80    32    34   am
