@<TRIPOS>MOLECULE
tmp/4dgvA00.pdb
 101 101 0 0 0
SMALL
GASTEIGER

@<TRIPOS>ATOM
      1  N         17.3620    1.6110   22.6560 N.3    47  TRP47      -0.1241
      2  CA        18.7560    1.5490   23.0920 C.3    47  TRP47       0.1605
      3  C         19.3580    0.2080   22.6500 C.2    47  TRP47       0.2264
      4  O         18.6710   -0.8190   22.6780 O.2    47  TRP47      -0.2867
      5  CB        18.8440    1.7010   24.6160 C.3    47  TRP47       0.0550
      6  CG        20.2070    1.4120   25.1470 C.ar   47  TRP47       0.0003
      7  CD1       21.3070    2.2210   25.0860 C.ar   47  TRP47       0.0946
      8  CD2       20.6190    0.2140   25.7980 C.ar   47  TRP47       0.0152
      9  NE1       22.3900    1.5950   25.6810 N.ar   47  TRP47      -0.2442
     10  CE2       21.9850    0.3590   26.1290 C.ar   47  TRP47       0.0810
     11  CE3       19.9600   -0.9700   26.1560 C.ar   47  TRP47       0.0012
     12  CZ2       22.7020   -0.6370   26.7690 C.ar   47  TRP47       0.0191
     13  CZ3       20.6750   -1.9570   26.8060 C.ar   47  TRP47       0.0001
     14  CH2       22.0300   -1.7880   27.1050 C.ar   47  TRP47       0.0015
     15  N         25.9090   -0.2250   25.4100 N.3    50  VAL50      -0.1245
     16  CA        26.7530    0.7120   26.1360 C.3    50  VAL50       0.1561
     17  C         28.1760    0.1550   26.2630 C.2    50  VAL50       0.2260
     18  O         28.3860   -1.0570   26.4070 O.2    50  VAL50      -0.2867
     19  CB        26.1830    1.0530   27.5480 C.3    50  VAL50       0.0252
     20  CG1       26.0920   -0.2010   28.4410 C.3    50  VAL50       0.0019
     21  CG2       27.0100    2.1030   28.2420 C.3    50  VAL50       0.0019
     22  N         31.5700    1.2480   28.6980 N.3    52  TRP52      -0.1227
     23  CA        31.9650    2.1430   29.7760 C.3    52  TRP52       0.1737
     24  C         33.4270    2.5850   29.6290 C.2    52  TRP52       0.2595
     25  O         34.0090    2.4960   28.5370 O.2    52  TRP52      -0.2718
     26  CB        31.6890    1.4900   31.1320 C.3    52  TRP52       0.0564
     27  CG        31.3410    2.4660   32.2350 C.ar   52  TRP52       0.0003
     28  CD1       31.9760    2.6100   33.4320 C.ar   52  TRP52       0.0946
     29  CD2       30.2740    3.4280   32.2250 C.ar   52  TRP52       0.0152
     30  NE1       31.3650    3.6010   34.1770 N.ar   52  TRP52      -0.2442
     31  CE2       30.3210    4.1180   33.4560 C.ar   52  TRP52       0.0810
     32  CE3       29.2870    3.7770   31.2950 C.ar   52  TRP52       0.0012
     33  CZ2       29.4130    5.1320   33.7800 C.ar   52  TRP52       0.0191
     34  CZ3       28.3910    4.7770   31.6190 C.ar   52  TRP52       0.0001
     35  CH2       28.4610    5.4450   32.8440 C.ar   52  TRP52       0.0015
     36  N         34.0050    3.0820   30.7160 N.am   53  PHE53      -0.1962
     37  CA        35.3600    3.6310   30.6720 C.3    53  PHE53       0.1771
     38  C         36.3730    2.5790   30.2160 C.2    53  PHE53       0.2619
     39  O         37.2020    2.8320   29.3300 O.2    53  PHE53      -0.2715
     40  CB        35.7600    4.1910   32.0410 C.3    53  PHE53       0.0574
     41  CG        34.7930    5.2010   32.5990 C.ar   53  PHE53      -0.0200
     42  CD1       34.3070    6.2310   31.8150 C.ar   53  PHE53      -0.0042
     43  CD2       34.3710    5.1170   33.9130 C.ar   53  PHE53      -0.0042
     44  CE1       33.4050    7.1580   32.3360 C.ar   53  PHE53      -0.0003
     45  CE2       33.4780    6.0390   34.4370 C.ar   53  PHE53      -0.0003
     46  CZ        32.9980    7.0620   33.6510 C.ar   53  PHE53      -0.0000
     47  N         36.3080    1.4010   30.8230 N.am   54  ASP54      -0.1971
     48  CA        37.1710    0.2990   30.4020 C.3    54  ASP54       0.1709
     49  C         36.6100   -0.3410   29.1420 C.2    54  ASP54       0.2293
     50  O         35.4230   -0.6690   29.0790 O.2    54  ASP54      -0.2864
     51  CB        37.3270   -0.7420   31.5110 C.3    54  ASP54       0.1436
     52  CG        37.9840   -0.1700   32.7590 C.2    54  ASP54       0.3671
     53  OD1       38.7150    0.8400   32.6400 O.co2  54  ASP54      -0.2456
     54  OD2       37.7700   -0.7350   33.8570 O.co2  54  ASP54      -0.2456
     55  N         34.2830   -3.3540   29.1890 N.3    57  ASN57      -0.1240
     56  CA        33.1080   -3.2540   30.0640 C.3    57  ASN57       0.1653
     57  C         31.9040   -2.8130   29.2210 C.2    57  ASN57       0.2266
     58  O         31.7370   -1.6180   28.9520 O.2    57  ASN57      -0.2867
     59  CB        33.4220   -2.2270   31.1700 C.3    57  ASN57       0.1155
     60  CG        32.3340   -2.1070   32.2520 C.2    57  ASN57       0.2627
     61  OD1       31.3960   -2.9170   32.3540 O.2    57  ASN57      -0.2716
     62  ND2       32.4700   -1.0800   33.0680 N.am   57  ASN57      -0.0877
     63  N         27.6020   -3.5550   27.7880 N.3    59  TYR59      -0.1241
     64  CA        26.2700   -4.1700   27.8600 C.3    59  TYR59       0.1605
     65  C         25.4250   -3.9350   26.5900 C.2    59  TYR59       0.2264
     66  O         25.6890   -3.0170   25.8570 O.2    59  TYR59      -0.2867
     67  CB        25.4690   -3.8000   29.1370 C.3    59  TYR59       0.0534
     68  CG        26.1510   -4.2310   30.4200 C.ar   59  TYR59      -0.0201
     69  CD1       25.9870   -5.5170   30.9350 C.ar   59  TYR59      -0.0009
     70  CD2       26.9860   -3.3630   31.0940 C.ar   59  TYR59      -0.0009
     71  CE1       26.6340   -5.9170   32.1100 C.ar   59  TYR59       0.0417
     72  CE2       27.6310   -3.7480   32.2650 C.ar   59  TYR59       0.0417
     73  CZ        27.4510   -5.0220   32.7660 C.ar   59  TYR59       0.1957
     74  OH        28.1030   -5.3920   33.9230 O.3    59  TYR59      -0.2866
     75  N         28.7180   10.1310   35.1880 N.3   102  LEU102     -0.1245
     76  CA        29.0040   10.4320   36.6080 C.3   102  LEU102      0.1561
     77  C         29.2160   11.9040   36.9120 C.2   102  LEU102      0.2260
     78  O         29.4310   12.2860   38.0650 O.2   102  LEU102     -0.2867
     79  CB        30.1630    9.5940   37.1510 C.3   102  LEU102      0.0270
     80  CG        29.8790    8.0960   37.0710 C.3   102  LEU102      0.0019
     81  CD1       31.1190    7.2790   37.3500 C.3   102  LEU102      0.0001
     82  CD2       28.7780    7.7560   38.0480 C.3   102  LEU102      0.0001
     83  N         24.2720    8.7240   35.8610 N.3   107  PHE107     -0.1227
     84  CA        24.7480    7.8180   34.8210 C.3   107  PHE107      0.1736
     85  C         23.5910    7.1050   34.1270 C.2   107  PHE107      0.2595
     86  O         22.4770    7.0270   34.6700 O.2   107  PHE107     -0.2718
     87  CB        25.8250    6.8460   35.3470 C.3   107  PHE107      0.0547
     88  CG        25.3520    5.9200   36.4380 C.ar  107  PHE107     -0.0202
     89  CD1       25.1620    6.3810   37.7270 C.ar  107  PHE107     -0.0042
     90  CD2       25.1480    4.5720   36.1760 C.ar  107  PHE107     -0.0042
     91  CE1       24.7380    5.5210   38.7340 C.ar  107  PHE107     -0.0003
     92  CE2       24.7200    3.7110   37.1740 C.ar  107  PHE107     -0.0003
     93  CZ        24.5120    4.1810   38.4510 C.ar  107  PHE107     -0.0000
     94  N         23.8630    6.6200   32.9150 N.am  108  ILE108     -0.1980
     95  CA        22.8560    5.9960   32.0460 C.3   108  ILE108      0.1595
     96  C         21.7910    7.0050   31.6060 C.2   108  ILE108      0.2287
     97  O         20.5760    6.7350   31.6250 O.2   108  ILE108     -0.2864
     98  CB        22.2500    4.6990   32.6360 C.3   108  ILE108      0.0276
     99  CG1       23.3550    3.8370   33.2340 C.3   108  ILE108      0.0022
    100  CG2       21.5520    3.9170   31.5420 C.3   108  ILE108      0.0022
    101  CD1       24.3640    3.3310   32.2350 C.3   108  ILE108      0.0001
@<TRIPOS>BOND
     1     3     4    2
     2     3     2    1
     3     1     2    1
     4     2     5    1
     5     5     6    1
     6     7     6   ar
     7     7     9   ar
     8     6     8   ar
     9    15    16    1
    10     9    10   ar
    11     8    10   ar
    12     8    11   ar
    13    66    65    2
    14    10    12   ar
    15    16    17    1
    16    16    19    1
    17    11    13   ar
    18    17    18    2
    19    65    64    1
    20    12    14   ar
    21    13    14   ar
    22    19    21    1
    23    19    20    1
    24    63    64    1
    25    64    67    1
    26    25    24    2
    27    22    23    1
    28    58    57    2
    29    50    49    2
    30    67    68    1
    31    49    48    1
    32    55    56    1
    33    57    56    1
    34    39    38    2
    35    24    23    1
    36    24    36   am
    37    23    26    1
    38    56    59    1
    39    38    37    1
    40    38    47   am
    41    48    47    1
    42    48    51    1
    43    68    69   ar
    44    68    70   ar
    45    37    36    1
    46    37    40    1
    47    69    71   ar
    48    70    72   ar
    49    26    27    1
    50    59    60    1
    51    32    34   ar
    52    32    29   ar
    53    51    52    1
    54   100    98    1
    55    96    97    2
    56    96    95    1
    57    34    35   ar
    58    42    44   ar
    59    42    41   ar
    60    40    41    1
    61    95    98    1
    62    95    94    1
    63    71    73   ar
    64    29    27   ar
    65    29    31   ar
    66    27    28   ar
    67   101    99    1
    68    60    61    2
    69    60    62   am
    70    72    73   ar
    71    44    46   ar
    72    41    43   ar
    73    98    99    1
    74    53    52   ar
    75    52    54   ar
    76    73    74    1
    77    35    33   ar
    78    94    85   am
    79    28    30   ar
    80    31    33   ar
    81    31    30   ar
    82    46    45   ar
    83    43    45   ar
    84    85    86    2
    85    85    84    1
    86    84    87    1
    87    84    83    1
    88    75    76    1
    89    87    88    1
    90    90    88   ar
    91    90    92   ar
    92    88    89   ar
    93    76    77    1
    94    76    79    1
    95    77    78    2
    96    80    79    1
    97    80    81    1
    98    80    82    1
    99    92    93   ar
   100    89    91   ar
   101    93    91   ar
