@<TRIPOS>MOLECULE
tmp/4dhfB00.pdb
 179 169 0 0 0
SMALL
GASTEIGER

@<TRIPOS>ATOM
      1  N        -47.1090   43.6940  -40.4180 N.3    10  ARG10      -0.1245
      2  CA       -46.4470   43.8400  -39.1140 C.3    10  ARG10       0.1563
      3  C        -44.9980   44.2200  -39.3080 C.2    10  ARG10       0.2260
      4  O        -44.4300   43.9360  -40.3510 O.2    10  ARG10      -0.2867
      5  CB       -46.5530   42.5520  -38.2710 C.3    10  ARG10       0.0307
      6  CG       -45.8760   41.3150  -38.8550 C.3    10  ARG10       0.0489
      7  CD       -45.7790   40.1520  -37.8610 C.3    10  ARG10       0.2205
      8  NE       -45.0530   39.0590  -38.4950 N.pl3  10  ARG10      -0.0865
      9  CZ       -43.7860   38.7430  -38.2320 C.cat  10  ARG10       0.5346
     10  NH1      -43.1250   39.4200  -37.3050 N.pl3  10  ARG10       0.1354
     11  NH2      -43.1770   37.7510  -38.8950 N.pl3  10  ARG10       0.1354
     12  N        -41.1080   43.7780  -39.1700 N.3    12  LEU12      -0.1231
     13  CA       -40.3110   42.5430  -39.2590 C.3    12  LEU12       0.1693
     14  C        -39.0230   42.5560  -38.4580 C.2    12  LEU12       0.2593
     15  O        -38.4060   41.5070  -38.2830 O.2    12  LEU12      -0.2718
     16  CB       -39.9130   42.2430  -40.6960 C.3    12  LEU12       0.0284
     17  CG       -40.8520   41.5850  -41.6940 C.3    12  LEU12       0.0019
     18  CD1      -40.1210   41.2400  -43.0010 C.3    12  LEU12       0.0001
     19  CD2      -41.4520   40.3450  -41.0610 C.3    12  LEU12       0.0001
     20  N        -38.5850   43.7320  -38.0110 N.am   13  GLY13      -0.1942
     21  CA       -37.2650   43.8530  -37.4020 C.3    13  GLY13       0.2014
     22  C        -36.8190   45.2770  -37.1740 C.2    13  GLY13       0.2638
     23  O        -37.2730   46.1930  -37.8740 O.2    13  GLY13      -0.2714
     24  N        -35.9110   45.4320  -36.1990 N.am   14  LYS14      -0.1977
     25  CA       -35.5900   46.7280  -35.5580 C.3    14  LYS14       0.1596
     26  C        -34.6790   47.6150  -36.3970 C.2    14  LYS14       0.2287
     27  O        -33.8860   47.1310  -37.2280 O.2    14  LYS14      -0.2864
     28  CB       -35.0030   46.5630  -34.1300 C.3    14  LYS14       0.0298
     29  CG       -35.7090   45.5630  -33.2060 C.3    14  LYS14       0.0038
     30  CD       -37.2130   45.7860  -33.1220 C.3    14  LYS14       0.0206
     31  CE       -37.9480   44.4910  -33.4360 C.3    14  LYS14       0.1093
     32  NZ       -39.2090   44.7210  -34.1990 N.3    14  LYS14      -0.1314
     33  N        -31.8970   50.1810  -37.6100 N.3    16  LYS16      -0.1245
     34  CA       -30.7240   51.0490  -37.7360 C.3    16  LYS16       0.1561
     35  C        -31.2580   52.4870  -37.8870 C.2    16  LYS16       0.2260
     36  O        -31.2600   53.2570  -36.9230 O.2    16  LYS16      -0.2867
     37  CB       -29.8660   50.6460  -38.9450 C.3    16  LYS16       0.0271
     38  CG       -30.6460   50.2750  -40.2250 C.3    16  LYS16       0.0035
     39  CD       -30.6400   48.7780  -40.5360 C.3    16  LYS16       0.0206
     40  CE       -31.1650   47.9110  -39.3900 C.3    16  LYS16       0.1093
     41  NZ       -32.6490   47.9170  -39.2660 N.3    16  LYS16      -0.1314
     42  N        -38.0120   47.4570  -40.9030 N.3    20  VAL20      -0.1245
     43  CA       -38.5080   46.7480  -42.0670 C.3    20  VAL20       0.1561
     44  C        -39.8530   46.0760  -41.7620 C.2    20  VAL20       0.2260
     45  O        -40.0800   45.5710  -40.6790 O.2    20  VAL20      -0.2867
     46  CB       -37.4260   45.8560  -42.7270 C.3    20  VAL20       0.0252
     47  CG1      -36.1150   45.9270  -41.9580 C.3    20  VAL20       0.0019
     48  CG2      -37.9060   44.4300  -42.9350 C.3    20  VAL20       0.0019
     49  N        -40.6660   42.3340  -48.2550 N.3    33  ALA33      -0.1245
     50  CA       -40.1980   43.0560  -47.0720 C.3    33  ALA33       0.1562
     51  C        -39.8580   44.4640  -47.5170 C.2    33  ALA33       0.2260
     52  O        -39.1800   44.6720  -48.5440 O.2    33  ALA33      -0.2867
     53  CB       -38.9770   42.3820  -46.5080 C.3    33  ALA33       0.0290
     54  N        -38.0390   47.7210  -46.4530 N.3    35  LYS35      -0.1245
     55  CA       -37.0400   48.3180  -45.5480 C.3    35  LYS35       0.1561
     56  C        -37.1510   49.8290  -45.6510 C.2    35  LYS35       0.2260
     57  O        -36.9310   50.3940  -46.7290 O.2    35  LYS35      -0.2867
     58  CB       -35.6200   47.8810  -45.9240 C.3    35  LYS35       0.0271
     59  CG       -34.5330   48.3820  -44.9890 C.3    35  LYS35       0.0035
     60  CD       -33.2570   47.6830  -45.3490 C.3    35  LYS35       0.0206
     61  CE       -32.0640   48.1520  -44.5340 C.3    35  LYS35       0.1093
     62  NZ       -30.8310   47.5000  -45.1180 N.3    35  LYS35      -0.1314
     63  N        -30.2100   37.4740  -50.9060 N.3    67  LEU67      -0.1245
     64  CA       -31.5410   38.0910  -50.8440 C.3    67  LEU67       0.1561
     65  C        -31.7090   39.0640  -51.9690 C.2    67  LEU67       0.2260
     66  O        -30.8310   39.8740  -52.2200 O.2    67  LEU67      -0.2867
     67  CB       -31.8060   38.7940  -49.5140 C.3    67  LEU67       0.0270
     68  CG       -33.3070   39.0960  -49.3170 C.3    67  LEU67       0.0019
     69  CD1      -34.0920   37.8450  -48.9530 C.3    67  LEU67       0.0001
     70  CD2      -33.5270   40.1650  -48.2580 C.3    67  LEU67       0.0001
     71  N        -37.6440   44.5970  -50.7460 N.3    83  LEU83      -0.1231
     72  CA       -36.8210   43.3990  -50.6490 C.3    83  LEU83       0.1693
     73  C        -37.6180   42.1140  -50.7600 C.2    83  LEU83       0.2592
     74  O        -38.7690   42.0410  -50.3170 O.2    83  LEU83      -0.2718
     75  CB       -36.1180   43.3860  -49.3070 C.3    83  LEU83       0.0284
     76  CG       -35.1370   44.5090  -49.0290 C.3    83  LEU83       0.0019
     77  CD1      -34.7730   44.4900  -47.5590 C.3    83  LEU83       0.0001
     78  CD2      -33.9060   44.3620  -49.8870 C.3    83  LEU83       0.0001
     79  N        -36.9780   41.0930  -51.3180 N.am   84  GLU84      -0.1966
     80  CA       -37.4470   39.7230  -51.1900 C.3    84  GLU84       0.1733
     81  C        -37.7330   39.4380  -49.7350 C.2    84  GLU84       0.2616
     82  O        -37.0650   39.9880  -48.8450 O.2    84  GLU84      -0.2715
     83  CB       -36.3950   38.7340  -51.6880 C.3    84  GLU84       0.0429
     84  CG       -36.7520   37.2820  -51.4330 C.3    84  GLU84       0.1163
     85  CD       -35.6480   36.3120  -51.8140 C.2    84  GLU84       0.3649
     86  OE1      -35.6910   35.1670  -51.3320 O.co2  84  GLU84      -0.2457
     87  OE2      -34.7230   36.6710  -52.5740 O.co2  84  GLU84      -0.2457
     88  N        -38.7170   38.5840  -49.4850 N.am   85  TYR85      -0.1960
     89  CA       -39.1050   38.2820  -48.1150 C.3    85  TYR85       0.1771
     90  C        -38.6530   36.8810  -47.6900 C.2    85  TYR85       0.2619
     91  O        -38.7510   35.9040  -48.4600 O.2    85  TYR85      -0.2715
     92  CB       -40.5950   38.5670  -47.9100 C.3    85  TYR85       0.0574
     93  CG       -41.2440   37.8600  -46.7430 C.ar   85  TYR85      -0.0198
     94  CD1      -41.0020   38.2680  -45.4220 C.ar   85  TYR85      -0.0009
     95  CD2      -42.1350   36.7960  -46.9580 C.ar   85  TYR85      -0.0009
     96  CE1      -41.6020   37.6180  -44.3500 C.ar   85  TYR85       0.0417
     97  CE2      -42.7530   36.1550  -45.8930 C.ar   85  TYR85       0.0417
     98  CZ       -42.4850   36.5650  -44.5940 C.ar   85  TYR85       0.1957
     99  OH       -43.0960   35.9110  -43.5340 O.3    85  TYR85      -0.2866
    100  N        -38.0840   36.7990  -46.4880 N.am   86  ALA86      -0.1964
    101  CA       -37.5630   35.5350  -46.0010 C.3    86  ALA86       0.1713
    102  C        -38.4020   35.0730  -44.8500 C.2    86  ALA86       0.2458
    103  O        -38.2350   35.5610  -43.7410 O.2    86  ALA86      -0.2730
    104  CB       -36.1190   35.6660  -45.5890 C.3    86  ALA86       0.0333
    105  N        -39.3200   34.1280  -45.1220 N.am   87  PRO87      -0.2716
    106  CA       -40.4010   33.6820  -44.2250 C.3    87  PRO87       0.1536
    107  C        -39.9090   33.0660  -42.9310 C.2    87  PRO87       0.2598
    108  O        -40.6180   33.1580  -41.9250 O.2    87  PRO87      -0.2715
    109  CB       -41.1340   32.6300  -45.0520 C.3    87  PRO87       0.0310
    110  CG       -40.7840   32.9640  -46.4820 C.3    87  PRO87       0.0237
    111  CD       -39.3580   33.4150  -46.4110 C.3    87  PRO87       0.0939
    112  N        -38.7030   32.4850  -42.9320 N.am   88  LEU88      -0.1964
    113  CA       -38.1810   31.8450  -41.7030 C.3    88  LEU88       0.1728
    114  C        -37.1720   32.6740  -40.9100 C.2    88  LEU88       0.2617
    115  O        -36.5200   32.1740  -39.9820 O.2    88  LEU88      -0.2715
    116  CB       -37.6450   30.4290  -41.9600 C.3    88  LEU88       0.0311
    117  CG       -38.6110   29.4240  -42.6050 C.3    88  LEU88       0.0022
    118  CD1      -38.0500   28.0160  -42.5680 C.3    88  LEU88       0.0001
    119  CD2      -39.9470   29.4760  -41.8950 C.3    88  LEU88       0.0001
    120  N        -37.0640   33.9510  -41.2510 N.am   89  GLY89      -0.1940
    121  CA       -36.3410   34.8740  -40.3950 C.3    89  GLY89       0.2014
    122  C        -34.8420   34.7090  -40.5060 C.2    89  GLY89       0.2639
    123  O        -34.3380   34.1310  -41.4720 O.2    89  GLY89      -0.2714
    124  N        -34.1350   35.2210  -39.5090 N.am   90  THR90      -0.1950
    125  CA       -32.6970   35.2290  -39.5190 C.3    90  THR90       0.1897
    126  C        -32.1070   33.9820  -38.8560 C.2    90  THR90       0.2313
    127  O        -32.7120   33.3900  -37.9580 O.2    90  THR90      -0.2863
    128  CB       -32.1820   36.3890  -38.6850 C.3    90  THR90       0.1794
    129  OG1      -32.5940   36.1550  -37.3430 O.3    90  THR90      -0.2208
    130  CG2      -32.7190   37.7350  -39.1650 C.3    90  THR90       0.0378
    131  N        -31.9260   34.4740  -35.0330 N.3    93  ARG93      -0.1245
    132  CA       -33.0420   34.0980  -34.2060 C.3    93  ARG93       0.1563
    133  C        -33.0730   32.5910  -34.1270 C.2    93  ARG93       0.2260
    134  O        -33.5050   32.0260  -33.1430 O.2    93  ARG93      -0.2867
    135  CB       -34.3780   34.6570  -34.7480 C.3    93  ARG93       0.0307
    136  CG       -35.5140   34.7710  -33.7210 C.3    93  ARG93       0.0489
    137  CD       -35.1550   35.7810  -32.6150 C.3    93  ARG93       0.2205
    138  NE       -35.7560   35.4650  -31.3100 N.pl3  93  ARG93      -0.0865
    139  CZ       -35.3030   34.5460  -30.4480 C.cat  93  ARG93       0.5346
    140  NH1      -34.2310   33.8250  -30.7380 N.pl3  93  ARG93       0.1354
    141  NH2      -35.9300   34.3350  -29.2910 N.pl3  93  ARG93       0.1354
    142  N        -27.1740   38.0990  -37.9930 N.3   133  GLU133     -0.1231
    143  CA       -28.3720   38.9370  -38.1600 C.3   133  GLU133      0.1699
    144  C        -28.6180   39.4720  -39.6050 C.2   133  GLU133      0.2592
    145  O        -29.6660   40.0800  -39.8720 O.2   133  GLU133     -0.2718
    146  CB       -28.4680   40.0180  -37.0920 C.3   133  GLU133      0.0402
    147  CG       -27.3000   40.9770  -37.0160 C.3   133  GLU133      0.1161
    148  CD       -26.2290   40.5340  -36.0260 C.2   133  GLU133      0.3649
    149  OE1      -25.8010   41.3800  -35.1990 O.co2 133  GLU133     -0.2457
    150  OE2      -25.8100   39.3490  -36.0670 O.co2 133  GLU133     -0.2457
    151  N        -27.6590   39.2190  -40.5080 N.am  134  ASN134     -0.1974
    152  CA       -27.7430   39.4890  -41.9510 C.3   134  ASN134      0.1688
    153  C        -27.8520   38.1940  -42.7510 C.2   134  ASN134      0.2292
    154  O        -27.6910   38.1940  -43.9730 O.2   134  ASN134     -0.2864
    155  CB       -26.4600   40.1670  -42.4700 C.3   134  ASN134      0.1181
    156  CG       -26.2360   41.5610  -41.9070 C.2   134  ASN134      0.2629
    157  OD1      -27.1730   42.3360  -41.7040 O.2   134  ASN134     -0.2716
    158  ND2      -24.9760   41.8890  -41.6640 N.am  134  ASN134     -0.0877
    159  N        -30.4320   35.2250  -43.6740 N.3   136  LEU136     -0.1245
    160  CA       -31.8560   34.9870  -43.6610 C.3   136  LEU136      0.1561
    161  C        -32.2580   33.6070  -44.2070 C.2   136  LEU136      0.2260
    162  O        -31.5410   33.0330  -45.0530 O.2   136  LEU136     -0.2867
    163  CB       -32.5110   36.0710  -44.5040 C.3   136  LEU136      0.0270
    164  CG       -32.5400   37.3770  -43.7300 C.3   136  LEU136      0.0019
    165  CD1      -32.9360   38.5470  -44.6030 C.3   136  LEU136      0.0001
    166  CD2      -33.5770   37.1450  -42.6430 C.3   136  LEU136      0.0001
    167  N        -27.9800   38.8910  -46.8750 N.3   146  ALA146     -0.1231
    168  CA       -28.7040   40.1170  -47.1100 C.3   146  ALA146      0.1694
    169  C        -27.8750   41.3520  -46.7230 C.2   146  ALA146      0.2592
    170  O        -26.6490   41.2870  -46.4870 O.2   146  ALA146     -0.2718
    171  CB       -29.9830   40.0650  -46.3320 C.3   146  ALA146      0.0304
    172  N        -28.5440   42.4890  -46.6430 N.am  147  ASP147     -0.1974
    173  CA       -27.8660   43.7180  -46.2290 C.3   147  ASP147      0.1709
    174  C        -26.9190   44.2190  -47.3440 C.2   147  ASP147      0.2293
    175  O        -27.4180   44.7570  -48.3260 O.2   147  ASP147     -0.2864
    176  CB       -27.2000   43.5190  -44.8790 C.3   147  ASP147      0.1436
    177  CG       -26.6640   44.7800  -44.3220 C.2   147  ASP147      0.3671
    178  OD1      -25.5810   45.1990  -44.7940 O.co2 147  ASP147     -0.2456
    179  OD2      -27.3140   45.3320  -43.4060 O.co2 147  ASP147     -0.2456
@<TRIPOS>BOND
     1    87    85   ar
     2    66    65    2
     3    65    64    1
     4    85    84    1
     5    85    86   ar
     6    83    84    1
     7    83    80    1
     8    79    80    1
     9    79    73   am
    10    80    81    1
    11    63    64    1
    12    64    67    1
    13    73    72    1
    14    73    74    2
    15    71    72    1
    16    72    75    1
    17    78    76    1
    18    81    88   am
    19    81    82    2
    20    67    68    1
    21    88    89    1
    22    68    69    1
    23    68    70    1
    24    75    76    1
    25    76    77    1
    26    52    51    2
    27    91    90    2
    28   175   174    2
    29    49    50    1
    30    89    92    1
    31    89    90    1
    32    92    93    1
    33    90   100   am
    34    51    50    1
    35   174   173    1
    36   168   167    1
    37   168   169    1
    38   168   171    1
    39    50    53    1
    40    95    93   ar
    41    95    97   ar
    42    93    94   ar
    43    57    56    2
    44   169   172   am
    45   169   170    2
    46   172   173    1
    47   100   101    1
    48   110   111    1
    49   110   109    1
    50    54    55    1
    51   111   105    1
    52   173   176    1
    53   101   104    1
    54   101   102    1
    55    58    55    1
    56    58    59    1
    57    97    98   ar
    58    56    55    1
    59    94    96   ar
    60    60    59    1
    61    60    61    1
    62   105   102   am
    63   105   106    1
    64    62    61    1
    65   162   161    2
    66   109   106    1
    67   176   177    1
    68   102   103    2
    69   178   177   ar
    70   165   164    1
    71    98    96   ar
    72    98    99    1
    73   163   164    1
    74   163   160    1
    75   177   179   ar
    76   106   107    1
    77   161   160    1
    78   154   153    2
    79   164   166    1
    80   159   160    1
    81    18    17    1
    82    48    46    1
    83   112   107   am
    84   112   113    1
    85   107   108    2
    86   153   152    1
    87    46    43    1
    88    46    47    1
    89   117   118    1
    90   117   116    1
    91   117   119    1
    92   155   152    1
    93   155   156    1
    94    43    44    1
    95    43    42    1
    96   116   113    1
    97   152   151    1
    98   156   157    2
    99   156   158   am
   100    44    45    2
   101   113   114    1
   102    17    19    1
   103    17    16    1
   104   123   122    2
   105   120   114   am
   106   120   121    1
   107   114   115    2
   108    16    13    1
   109    39    38    1
   110    39    40    1
   111   151   144   am
   112   122   121    1
   113   122   124   am
   114     1     2    1
   115     4     3    2
   116    38    37    1
   117   145   144    2
   118   144   143    1
   119   125   124    1
   120   125   126    1
   121   125   128    1
   122    40    41    1
   123     3     2    1
   124    13    12    1
   125    13    14    1
   126   130   128    1
   127     2     5    1
   128    37    34    1
   129    11     9    1
   130   126   127    2
   131     6     5    1
   132     6     7    1
   133   128   129    1
   134     8     9    2
   135     8     7    1
   136    14    15    2
   137    14    20   am
   138     9    10    1
   139   143   142    1
   140   143   146    1
   141    20    21    1
   142    35    34    1
   143    35    36    2
   144    23    22    2
   145    34    33    1
   146    21    22    1
   147    27    26    2
   148    22    24   am
   149   146   147    1
   150   147   148    1
   151    26    25    1
   152    24    25    1
   153   150   148   ar
   154   148   149   ar
   155    25    28    1
   156   131   132    1
   157   135   132    1
   158   135   136    1
   159   132   133    1
   160    32    31    1
   161    28    29    1
   162   133   134    2
   163   136   137    1
   164    31    30    1
   165    29    30    1
   166   137   138    1
   167   138   139    2
   168   140   139    1
   169   139   141    1
