@<TRIPOS>MOLECULE
tmp/4dhmA00.pdb
 111 102 0 0 0
SMALL
GASTEIGER

@<TRIPOS>ATOM
      1  N         15.7680   12.4420   -2.8430 N.3    53  LYS53      -0.1245
      2  CA        16.8680   12.1260   -3.7480 C.3    53  LYS53       0.1561
      3  C         17.2880   10.6760   -3.5220 C.2    53  LYS53       0.2260
      4  O         17.6330   10.0230   -4.4860 O.2    53  LYS53      -0.2867
      5  CB        18.0170   13.1180   -3.6040 C.3    53  LYS53       0.0271
      6  CG        19.3510   12.6930   -4.2290 C.3    53  LYS53       0.0035
      7  CD        20.4370   13.6420   -3.6140 C.3    53  LYS53       0.0206
      8  CE        21.6110   13.8220   -4.5240 C.3    53  LYS53       0.1093
      9  NZ        22.3320   12.5440   -4.7710 N.3    53  LYS53      -0.1314
     10  N         16.7420    8.0170   -6.3630 N.3    57  GLY57      -0.1225
     11  CA        18.0500    7.4620   -6.7490 C.3    57  GLY57       0.1811
     12  C         17.9980    5.9480   -6.8570 C.2    57  GLY57       0.2280
     13  O         18.5070    5.4100   -7.8430 O.2    57  GLY57      -0.2866
     14  N         16.0010    5.2060  -10.0070 N.3    60  ARG60      -0.1231
     15  CA        16.7560    5.5040  -11.2600 C.3    60  ARG60       0.1694
     16  C         17.7870    4.3950  -11.5200 C.2    60  ARG60       0.2591
     17  O         17.9650    3.9850  -12.6730 O.2    60  ARG60      -0.2718
     18  CB        17.5230    6.8760  -11.1500 C.3    60  ARG60       0.0321
     19  CG        16.5330    8.0210  -11.1880 C.3    60  ARG60       0.0489
     20  CD        17.1910    9.3080  -10.7210 C.3    60  ARG60       0.2205
     21  NE        18.1270    9.7950  -11.7400 N.pl3  60  ARG60      -0.0865
     22  CZ        19.1670   10.5730  -11.4320 C.cat  60  ARG60       0.5346
     23  NH1       19.4900   10.7920  -10.1430 N.pl3  60  ARG60       0.1354
     24  NH2       19.8820   11.1010  -12.4230 N.pl3  60  ARG60       0.1354
     25  N         18.4380    3.9150  -10.4750 N.am   61  ALA61      -0.1980
     26  CA        19.4410    2.8710  -10.6010 C.3    61  ALA61       0.1597
     27  C         18.7690    1.6220  -11.1170 C.2    61  ALA61       0.2287
     28  O         19.2620    0.9550  -12.0350 O.2    61  ALA61      -0.2864
     29  CB        20.1130    2.5630   -9.2490 C.3    61  ALA61       0.0319
     30  N         17.7570    1.9500  -14.7870 N.3    64  ARG64      -0.1245
     31  CA        18.8890    1.8360  -15.7370 C.3    64  ARG64       0.1563
     32  C         19.3090    0.4140  -15.9600 C.2    64  ARG64       0.2260
     33  O         19.5390    0.0310  -17.1230 O.2    64  ARG64      -0.2867
     34  CB        20.0990    2.6960  -15.3040 C.3    64  ARG64       0.0307
     35  CG        19.7070    4.1900  -15.3470 C.3    64  ARG64       0.0489
     36  CD        20.9700    5.0250  -14.9440 C.3    64  ARG64       0.2205
     37  NE        20.5980    6.4270  -14.8520 N.pl3  64  ARG64      -0.0865
     38  CZ        21.4430    7.4200  -14.5530 C.cat  64  ARG64       0.5346
     39  NH1       22.7240    7.1530  -14.3310 N.pl3  64  ARG64       0.1354
     40  NH2       21.0010    8.6850  -14.5040 N.pl3  64  ARG64       0.1354
     41  N         13.9200   16.8020  -14.6780 N.3   126  ARG126     -0.1231
     42  CA        15.0160   16.1320  -15.3350 C.3   126  ARG126      0.1694
     43  C         14.9110   14.6000  -15.1560 C.2   126  ARG126      0.2592
     44  O         15.1750   13.8720  -16.0810 O.2   126  ARG126     -0.2718
     45  CB        16.3830   16.6420  -14.8230 C.3   126  ARG126      0.0321
     46  CG        17.6120   15.7590  -15.2720 C.3   126  ARG126      0.0489
     47  CD        18.8370   16.6820  -15.2000 C.3   126  ARG126      0.2205
     48  NE        19.1430   17.0200  -13.7840 N.pl3 126  ARG126     -0.0865
     49  CZ        19.8000   16.2460  -12.9350 C.cat 126  ARG126      0.5346
     50  NH1       20.3080   15.0590  -13.3180 N.pl3 126  ARG126      0.1354
     51  NH2       20.0030   16.6620  -11.6650 N.pl3 126  ARG126      0.1354
     52  N         14.5340   14.1310  -13.9770 N.am  127  TYR127     -0.1976
     53  CA        14.3510   12.6560  -13.7960 C.3   127  TYR127      0.1639
     54  C         13.2190   12.1540  -14.6460 C.2   127  TYR127      0.2290
     55  O         13.3060   11.0170  -15.2250 O.2   127  TYR127     -0.2864
     56  CB        14.1670   12.3370  -12.2820 C.3   127  TYR127      0.0560
     57  CG        15.3110   12.9060  -11.4160 C.ar  127  TYR127     -0.0198
     58  CD1       16.6450   13.0180  -11.8850 C.ar  127  TYR127     -0.0009
     59  CD2       15.0560   13.2870  -10.1050 C.ar  127  TYR127     -0.0009
     60  CE1       17.6990   13.5740  -11.0650 C.ar  127  TYR127      0.0417
     61  CE2       16.0750   13.8200   -9.2980 C.ar  127  TYR127      0.0417
     62  CZ        17.4000   13.9660   -9.7860 C.ar  127  TYR127      0.1957
     63  OH        18.3560   14.5100   -8.9620 O.3   127  TYR127     -0.2866
     64  N         25.8770   23.1260  -10.9530 N.3   171  LEU171     -0.1231
     65  CA        26.3140   21.7490  -11.2050 C.3   171  LEU171      0.1693
     66  C         25.1890   20.9750  -11.8800 C.2   171  LEU171      0.2592
     67  O         25.4270   20.3090  -12.9020 O.2   171  LEU171     -0.2718
     68  CB        26.7020   21.0530   -9.8990 C.3   171  LEU171      0.0284
     69  CG        27.0490   19.5590   -9.9820 C.3   171  LEU171      0.0019
     70  CD1       28.3390   19.4560  -10.8300 C.3   171  LEU171      0.0001
     71  CD2       27.2610   19.0580   -8.5280 C.3   171  LEU171      0.0001
     72  N         24.0090   20.9780  -11.2530 N.am  172  ASN172     -0.1974
     73  CA        22.8950   20.1350  -11.8250 C.3   172  ASN172      0.1688
     74  C         22.3760   20.6720  -13.1570 C.2   172  ASN172      0.2292
     75  O         22.0160   19.8820  -14.0350 O.2   172  ASN172     -0.2864
     76  CB        21.7440   20.0940  -10.8320 C.3   172  ASN172      0.1181
     77  CG        22.0400   19.2530   -9.5830 C.2   172  ASN172      0.2629
     78  OD1       21.0760   18.7700   -8.9090 O.2   172  ASN172     -0.2716
     79  ND2       23.2700   19.0320   -9.2760 N.am  172  ASN172     -0.0877
     80  N         24.7150   19.3870  -15.6960 N.3   175  VAL175     -0.1245
     81  CA        24.3520   17.9690  -15.9740 C.3   175  VAL175      0.1561
     82  C         23.1500   17.8660  -16.8680 C.2   175  VAL175      0.2260
     83  O         23.1270   17.0430  -17.7990 O.2   175  VAL175     -0.2867
     84  CB        24.1300   17.1820  -14.6440 C.3   175  VAL175      0.0252
     85  CG1       23.5680   15.7580  -14.9710 C.3   175  VAL175      0.0019
     86  CG2       25.4920   17.0180  -13.9240 C.3   175  VAL175      0.0019
     87  N         23.5970   15.8130  -20.2670 N.3   179  GLU179     -0.1245
     88  CA        22.8970   14.5090  -20.3560 C.3   179  GLU179      0.1567
     89  C         21.5070   14.5420  -20.9670 C.2   179  GLU179      0.2260
     90  O         21.0210   13.5120  -21.5030 O.2   179  GLU179     -0.2867
     91  CB        22.7700   13.9570  -18.9150 C.3   179  GLU179      0.0388
     92  CG        24.0510   13.6400  -18.3290 C.3   179  GLU179      0.1160
     93  CD        23.9900   12.8980  -17.0110 C.2   179  GLU179      0.3649
     94  OE1       22.8710   12.6710  -16.4290 O.co2 179  GLU179     -0.2457
     95  OE2       25.1080   12.5760  -16.5220 O.co2 179  GLU179     -0.2457
     96  N         33.1660   18.7570   -7.3710 N.3   219  LEU219     -0.1245
     97  CA        32.1620   18.1020   -8.2220 C.3   219  LEU219      0.1561
     98  C         32.1170   18.7230   -9.6190 C.2   219  LEU219      0.2260
     99  O         32.0760   17.9880  -10.6150 O.2   219  LEU219     -0.2867
    100  CB        30.7720   18.1170   -7.5880 C.3   219  LEU219      0.0270
    101  CG        30.6900   17.3880   -6.2200 C.3   219  LEU219      0.0019
    102  CD1       29.3380   17.5260   -5.6200 C.3   219  LEU219      0.0001
    103  CD2       31.1780   15.9200   -6.3050 C.3   219  LEU219      0.0001
    104  N         33.2550   16.6970  -13.1170 N.3   223  ASN223     -0.1240
    105  CA        32.5090   16.6620  -14.3980 C.3   223  ASN223      0.1653
    106  C         33.2860   17.1960  -15.5460 C.2   223  ASN223      0.2266
    107  O         33.2140   16.6210  -16.6390 O.2   223  ASN223     -0.2867
    108  CB        31.1760   17.3990  -14.3310 C.3   223  ASN223      0.1155
    109  CG        30.1320   16.6440  -13.5790 C.2   223  ASN223      0.2627
    110  OD1       30.2160   15.4100  -13.4030 O.2   223  ASN223     -0.2716
    111  ND2       29.0950   17.3530  -13.1760 N.am  223  ASN223     -0.0877
@<TRIPOS>BOND
     1    90    89    2
     2    89    88    1
     3    88    87    1
     4    88    91    1
     5    91    92    1
     6    92    93    1
     7    83    82    2
     8    33    32    2
     9    93    95   ar
    10    93    94   ar
    11    82    81    1
    12   107   106    2
    13    44    43    2
    14    81    80    1
    15    81    84    1
    16    32    31    1
    17    31    34    1
    18    31    30    1
    19   106   105    1
    20    35    34    1
    21    35    36    1
    22    42    43    1
    23    42    45    1
    24    42    41    1
    25    46    47    1
    26    46    45    1
    27    55    54    2
    28    47    48    1
    29    43    52   am
    30    85    84    1
    31    36    37    1
    32    37    38    2
    33    54    53    1
    34    84    86    1
    35    38    40    1
    36    38    39    1
    37   105   108    1
    38   105   104    1
    39   108   109    1
    40    75    74    2
    41    52    53    1
    42    53    56    1
    43    48    49    2
    44   109   110    2
    45   109   111   am
    46    50    49    1
    47    74    73    1
    48    49    51    1
    49    67    66    2
    50    17    16    2
    51    24    22    1
    52    56    57    1
    53    28    27    2
    54    58    57   ar
    55    58    60   ar
    56    66    72   am
    57    66    65    1
    58    73    72    1
    59    73    76    1
    60    21    22    2
    61    21    20    1
    62    16    15    1
    63    16    25   am
    64    22    23    1
    65    57    59   ar
    66    15    18    1
    67    15    14    1
    68    65    64    1
    69    65    68    1
    70    19    18    1
    71    19    20    1
    72    27    26    1
    73    60    62   ar
    74    76    77    1
    75    70    69    1
    76    99    98    2
    77    26    25    1
    78    26    29    1
    79    59    61   ar
    80    69    68    1
    81    69    71    1
    82    62    61   ar
    83    62    63    1
    84    98    97    1
    85    77    79   am
    86    77    78    2
    87    97   100    1
    88    97    96    1
    89    13    12    2
    90   100   101    1
    91    12    11    1
    92    11    10    1
    93   103   101    1
    94   101   102    1
    95     9     8    1
    96     8     7    1
    97     4     3    2
    98     6     7    1
    99     6     5    1
   100     2     5    1
   101     2     3    1
   102     2     1    1
