@<TRIPOS>MOLECULE
tmp/4dhnA00.pdb
 111 102 0 0 0
SMALL
GASTEIGER

@<TRIPOS>ATOM
      1  N         15.6710   12.4440   -2.8940 N.3    53  LYS53      -0.1245
      2  CA        16.7890   12.1340   -3.8060 C.3    53  LYS53       0.1561
      3  C         17.1990   10.6800   -3.5820 C.2    53  LYS53       0.2260
      4  O         17.5500   10.0030   -4.5300 O.2    53  LYS53      -0.2867
      5  CB        17.9550   13.1030   -3.6290 C.3    53  LYS53       0.0271
      6  CG        19.2840   12.6960   -4.2980 C.3    53  LYS53       0.0035
      7  CD        20.4350   13.4770   -3.5610 C.3    53  LYS53       0.0206
      8  CE        21.8120   13.1100   -4.1060 C.3    53  LYS53       0.1093
      9  NZ        21.9570   13.9060   -5.3400 N.3    53  LYS53      -0.1314
     10  N         16.6290    8.0490   -6.3330 N.3    57  GLY57      -0.1225
     11  CA        17.9330    7.5220   -6.7740 C.3    57  GLY57       0.1811
     12  C         17.9110    5.9990   -6.8770 C.2    57  GLY57       0.2280
     13  O         18.4030    5.4230   -7.8700 O.2    57  GLY57      -0.2866
     14  N         15.8610    5.2150  -10.0340 N.3    60  ARG60      -0.1231
     15  CA        16.6110    5.4970  -11.2780 C.3    60  ARG60       0.1694
     16  C         17.6960    4.4390  -11.5520 C.2    60  ARG60       0.2591
     17  O         17.8490    3.9840  -12.6810 O.2    60  ARG60      -0.2718
     18  CB        17.3010    6.8860  -11.1410 C.3    60  ARG60       0.0321
     19  CG        16.2190    7.9910  -11.1930 C.3    60  ARG60       0.0489
     20  CD        16.8940    9.3370  -10.8300 C.3    60  ARG60       0.2205
     21  NE        17.9010    9.7930  -11.8200 N.pl3  60  ARG60      -0.0865
     22  CZ        19.0030   10.4920  -11.4930 C.cat  60  ARG60       0.5346
     23  NH1       19.3470   10.7000  -10.1690 N.pl3  60  ARG60       0.1354
     24  NH2       19.7860   10.9910  -12.4900 N.pl3  60  ARG60       0.1354
     25  N         18.3980    4.0110  -10.5190 N.am   61  ALA61      -0.1980
     26  CA        19.4390    3.0140  -10.6680 C.3    61  ALA61       0.1597
     27  C         18.7750    1.7290  -11.1230 C.2    61  ALA61       0.2287
     28  O         19.2850    1.0520  -12.0320 O.2    61  ALA61      -0.2864
     29  CB        20.1340    2.7550   -9.3340 C.3    61  ALA61       0.0319
     30  N         17.6780    1.9780  -14.7330 N.3    64  ARG64      -0.1245
     31  CA        18.7940    1.8670  -15.6930 C.3    64  ARG64       0.1563
     32  C         19.2540    0.4370  -15.9280 C.2    64  ARG64       0.2260
     33  O         19.5120    0.0370  -17.0840 O.2    64  ARG64      -0.2867
     34  CB        19.9930    2.7360  -15.2380 C.3    64  ARG64       0.0307
     35  CG        19.6660    4.2540  -15.3870 C.3    64  ARG64       0.0489
     36  CD        20.8820    5.0760  -14.8420 C.3    64  ARG64       0.2205
     37  NE        20.5430    6.5110  -14.8270 N.pl3  64  ARG64      -0.0865
     38  CZ        21.4260    7.5170  -14.7080 C.cat  64  ARG64       0.5346
     39  NH1       22.7240    7.2830  -14.5480 N.pl3  64  ARG64       0.1354
     40  NH2       20.9760    8.7680  -14.7060 N.pl3  64  ARG64       0.1354
     41  N         13.8250   16.8020  -14.7590 N.3   126  ARG126     -0.1231
     42  CA        14.9150   16.0650  -15.3890 C.3   126  ARG126      0.1694
     43  C         14.7710   14.5240  -15.2160 C.2   126  ARG126      0.2592
     44  O         15.0220   13.7790  -16.1530 O.2   126  ARG126     -0.2718
     45  CB        16.2720   16.5270  -14.8580 C.3   126  ARG126      0.0321
     46  CG        17.4910   15.7170  -15.3980 C.3   126  ARG126      0.0489
     47  CD        18.7800   16.5570  -15.2200 C.3   126  ARG126      0.2205
     48  NE        19.0990   16.8380  -13.8170 N.pl3 126  ARG126     -0.0865
     49  CZ        19.7710   16.0390  -13.0040 C.cat 126  ARG126      0.5346
     50  NH1       20.2170   14.8340  -13.4170 N.pl3 126  ARG126      0.1354
     51  NH2       19.9780   16.4350  -11.7290 N.pl3 126  ARG126      0.1354
     52  N         14.3850   14.0780  -14.0270 N.am  127  TYR127     -0.1976
     53  CA        14.1820   12.6130  -13.8140 C.3   127  TYR127      0.1639
     54  C         13.0540   12.1160  -14.6680 C.2   127  TYR127      0.2290
     55  O         13.1730   10.9890  -15.2330 O.2   127  TYR127     -0.2864
     56  CB        14.0250   12.3050  -12.2840 C.3   127  TYR127      0.0560
     57  CG        15.2050   12.8470  -11.4480 C.ar  127  TYR127     -0.0198
     58  CD1       16.5050   12.9200  -11.9610 C.ar  127  TYR127     -0.0009
     59  CD2       14.9930   13.2490  -10.1400 C.ar  127  TYR127     -0.0009
     60  CE1       17.5680   13.4830  -11.1930 C.ar  127  TYR127      0.0417
     61  CE2       16.0430   13.7570   -9.3480 C.ar  127  TYR127      0.0417
     62  CZ        17.3240   13.8520   -9.8780 C.ar  127  TYR127      0.1957
     63  OH        18.2920   14.3700   -9.0700 O.3   127  TYR127     -0.2866
     64  N         25.8400   22.9520  -10.9790 N.3   171  LEU171     -0.1231
     65  CA        26.2450   21.5650  -11.2200 C.3   171  LEU171      0.1693
     66  C         25.1140   20.7560  -11.8960 C.2   171  LEU171      0.2592
     67  O         25.3460   20.0780  -12.9350 O.2   171  LEU171     -0.2718
     68  CB        26.6700   20.8660   -9.9170 C.3   171  LEU171      0.0284
     69  CG        26.9630   19.3270   -9.9870 C.3   171  LEU171      0.0019
     70  CD1       28.2760   19.1970  -10.7850 C.3   171  LEU171      0.0001
     71  CD2       27.1900   18.7740   -8.5420 C.3   171  LEU171      0.0001
     72  N         23.9100   20.8300  -11.3240 N.am  172  ASN172     -0.1974
     73  CA        22.7930   19.9780  -11.8560 C.3   172  ASN172      0.1688
     74  C         22.2890   20.5090  -13.1740 C.2   172  ASN172      0.2292
     75  O         21.9830   19.7070  -14.0880 O.2   172  ASN172     -0.2864
     76  CB        21.6480   19.9280  -10.8490 C.3   172  ASN172      0.1181
     77  CG        21.9630   19.0010   -9.6590 C.2   172  ASN172      0.2629
     78  OD1       21.0130   18.4700   -8.9850 O.2   172  ASN172     -0.2716
     79  ND2       23.2060   18.7810   -9.3910 N.am  172  ASN172     -0.0877
     80  N         24.6310   19.1740  -15.7290 N.3   175  VAL175     -0.1245
     81  CA        24.2640   17.7430  -16.0080 C.3   175  VAL175      0.1561
     82  C         23.0480   17.6460  -16.9280 C.2   175  VAL175      0.2260
     83  O         23.0350   16.8540  -17.8670 O.2   175  VAL175     -0.2867
     84  CB        24.0630   16.9610  -14.6760 C.3   175  VAL175      0.0252
     85  CG1       23.4720   15.4930  -14.9310 C.3   175  VAL175      0.0019
     86  CG2       25.4550   16.8170  -13.8890 C.3   175  VAL175      0.0019
     87  N         23.4590   15.6340  -20.3440 N.3   179  GLU179     -0.1245
     88  CA        22.7350   14.3350  -20.4120 C.3   179  GLU179      0.1567
     89  C         21.3510   14.3950  -21.0590 C.2   179  GLU179      0.2260
     90  O         20.8670   13.4050  -21.6240 O.2   179  GLU179     -0.2867
     91  CB        22.5760   13.8100  -18.9590 C.3   179  GLU179      0.0388
     92  CG        23.9000   13.4160  -18.3830 C.3   179  GLU179      0.1160
     93  CD        23.8260   12.6680  -17.0640 C.2   179  GLU179      0.3649
     94  OE1       22.7110   12.4390  -16.5080 O.co2 179  GLU179     -0.2457
     95  OE2       24.9310   12.3800  -16.5540 O.co2 179  GLU179     -0.2457
     96  N         33.0800   18.5020   -7.3820 N.3   219  LEU219     -0.1245
     97  CA        32.1010   17.8230   -8.2590 C.3   219  LEU219      0.1561
     98  C         32.0350   18.4660   -9.6540 C.2   219  LEU219      0.2260
     99  O         31.9070   17.7240  -10.6560 O.2   219  LEU219     -0.2867
    100  CB        30.6910   17.7250   -7.6620 C.3   219  LEU219      0.0270
    101  CG        30.5390   17.1790   -6.2370 C.3   219  LEU219      0.0019
    102  CD1       29.1160   17.2990   -5.7750 C.3   219  LEU219      0.0001
    103  CD2       31.0560   15.7520   -6.1640 C.3   219  LEU219      0.0001
    104  N         33.2070   16.4910  -13.1290 N.3   223  ASN223     -0.1240
    105  CA        32.4750   16.4980  -14.4210 C.3   223  ASN223      0.1653
    106  C         33.2780   16.9900  -15.5720 C.2   223  ASN223      0.2266
    107  O         33.2210   16.3760  -16.6440 O.2   223  ASN223     -0.2867
    108  CB        31.1350   17.2290  -14.3420 C.3   223  ASN223      0.1155
    109  CG        30.0950   16.4260  -13.6120 C.2   223  ASN223      0.2627
    110  OD1       30.2630   15.2020  -13.4030 O.2   223  ASN223     -0.2716
    111  ND2       29.0210   17.0620  -13.2420 N.am  223  ASN223     -0.0877
@<TRIPOS>BOND
     1    90    89    2
     2    89    88    1
     3    88    87    1
     4    88    91    1
     5    91    92    1
     6    92    93    1
     7    83    82    2
     8    33    32    2
     9    93    95   ar
    10    93    94   ar
    11    82    81    1
    12   107   106    2
    13    44    43    2
    14    81    80    1
    15    81    84    1
    16    32    31    1
    17    31    34    1
    18    31    30    1
    19   106   105    1
    20    46    47    1
    21    46    45    1
    22    42    43    1
    23    42    45    1
    24    42    41    1
    25    35    34    1
    26    35    36    1
    27    55    54    2
    28    47    48    1
    29    43    52   am
    30    85    84    1
    31    36    37    1
    32    37    38    2
    33    38    40    1
    34    38    39    1
    35    84    86    1
    36    54    53    1
    37   105   108    1
    38   105   104    1
    39   108   109    1
    40    75    74    2
    41    52    53    1
    42    48    49    2
    43    53    56    1
    44   109   110    2
    45   109   111   am
    46    50    49    1
    47    74    73    1
    48    49    51    1
    49    67    66    2
    50    17    16    2
    51    24    22    1
    52    56    57    1
    53    28    27    2
    54    58    57   ar
    55    58    60   ar
    56    66    72   am
    57    66    65    1
    58    73    72    1
    59    73    76    1
    60    21    22    2
    61    21    20    1
    62    16    15    1
    63    16    25   am
    64    22    23    1
    65    57    59   ar
    66    15    18    1
    67    15    14    1
    68    65    64    1
    69    65    68    1
    70    19    18    1
    71    19    20    1
    72    60    62   ar
    73    27    26    1
    74    76    77    1
    75    70    69    1
    76    26    25    1
    77    26    29    1
    78    99    98    2
    79    59    61   ar
    80    69    68    1
    81    69    71    1
    82    62    61   ar
    83    62    63    1
    84    77    79   am
    85    77    78    2
    86    98    97    1
    87    97   100    1
    88    97    96    1
    89    13    12    2
    90   100   101    1
    91    12    11    1
    92    11    10    1
    93   101   103    1
    94   101   102    1
    95     9     8    1
    96     4     3    2
    97     6     5    1
    98     6     7    1
    99     8     7    1
   100     2     5    1
   101     2     3    1
   102     2     1    1
