@<TRIPOS>MOLECULE
tmp/4dhpA00.pdb
 79 72 0 0 0
SMALL
GASTEIGER

@<TRIPOS>ATOM
      1  N         15.7100   12.4270   -2.9050 N.3    52  LYS52      -0.1231
      2  CA        16.8720   12.1100   -3.7430 C.3    52  LYS52       0.1693
      3  C         17.2160   10.6350   -3.5780 C.2    52  LYS52       0.2592
      4  O         17.5600    9.9690   -4.5500 O.2    52  LYS52      -0.2718
      5  CB        18.0860   12.9560   -3.3580 C.3    52  LYS52       0.0285
      6  CG        19.3890   12.5740   -4.0960 C.3    52  LYS52       0.0035
      7  CD        20.6220   13.1420   -3.3370 C.3    52  LYS52       0.0206
      8  CE        21.9040   12.9800   -4.1350 C.3    52  LYS52       0.1093
      9  NZ        21.8750   13.9370   -5.2710 N.3    52  LYS52      -0.1314
     10  N         17.1290   10.1240   -2.3620 N.am   53  ASN53      -0.1974
     11  CA        17.4540    8.7280   -2.1350 C.3    53  ASN53       0.1688
     12  C         16.4130    7.7690   -2.6620 C.2    53  ASN53       0.2292
     13  O         16.7590    6.6930   -3.2010 O.2    53  ASN53      -0.2864
     14  CB        17.7100    8.4890   -0.6460 C.3    53  ASN53       0.1181
     15  CG        19.1150    8.8750   -0.2530 C.2    53  ASN53       0.2629
     16  OD1       20.0470    8.0930   -0.4720 O.2    53  ASN53      -0.2716
     17  ND2       19.2990   10.0860    0.3060 N.am   53  ASN53      -0.0877
     18  N         16.6430    7.9950   -6.3960 N.3    56  GLY56      -0.1210
     19  CA        17.9300    7.4750   -6.8030 C.3    56  GLY56       0.1956
     20  C         17.9260    5.9530   -6.9230 C.2    56  GLY56       0.2612
     21  O         18.4150    5.4080   -7.9240 O.2    56  GLY56      -0.2717
     22  N         17.3390    5.2760   -5.9350 N.am   57  GLY57      -0.1956
     23  CA        17.1150    3.8240   -6.0260 C.3    57  GLY57       0.1869
     24  C         16.3040    3.4220   -7.2800 C.2    57  GLY57       0.2309
     25  O         16.6410    2.4140   -7.9470 O.2    57  GLY57      -0.2863
     26  N         15.9040    5.2000  -10.0960 N.3    59  ARG59      -0.1231
     27  CA        16.7060    5.4710  -11.3020 C.3    59  ARG59       0.1694
     28  C         17.7400    4.3690  -11.5770 C.2    59  ARG59       0.2591
     29  O         17.9430    3.9890  -12.7300 O.2    59  ARG59      -0.2718
     30  CB        17.4450    6.8130  -11.1620 C.3    59  ARG59       0.0321
     31  CG        16.4660    7.9670  -11.2440 C.3    59  ARG59       0.0489
     32  CD        17.1150    9.2470  -10.7610 C.3    59  ARG59       0.2205
     33  NE        18.0560    9.7780  -11.7570 N.pl3  59  ARG59      -0.0865
     34  CZ        19.1300   10.5140  -11.4510 C.cat  59  ARG59       0.5346
     35  NH1       19.4670   10.7430  -10.1750 N.pl3  59  ARG59       0.1354
     36  NH2       19.8820   11.0250  -12.4320 N.pl3  59  ARG59       0.1354
     37  N         18.3960    3.9060  -10.5270 N.am   60  ALA60      -0.1980
     38  CA        19.4120    2.8560  -10.6250 C.3    60  ALA60       0.1597
     39  C         18.7580    1.5980  -11.1460 C.2    60  ALA60       0.2287
     40  O         19.2800    0.9560  -12.0660 O.2    60  ALA60      -0.2864
     41  CB        20.1050    2.5910   -9.2640 C.3    60  ALA60       0.0319
     42  N         17.6770    1.9880  -14.8100 N.3    63  ARG63      -0.1245
     43  CA        18.8330    1.8440  -15.7140 C.3    63  ARG63       0.1563
     44  C         19.2530    0.3970  -15.9410 C.2    63  ARG63       0.2260
     45  O         19.4830    0.0110  -17.0970 O.2    63  ARG63      -0.2867
     46  CB        20.0130    2.6920  -15.2430 C.3    63  ARG63       0.0307
     47  CG        19.6740    4.1900  -15.3920 C.3    63  ARG63       0.0489
     48  CD        20.8960    5.0620  -15.0200 C.3    63  ARG63       0.2205
     49  NE        20.5050    6.4710  -14.9400 N.pl3  63  ARG63      -0.0865
     50  CZ        21.3260    7.4770  -14.6370 C.cat  63  ARG63       0.5346
     51  NH1       22.6120    7.2360  -14.3580 N.pl3  63  ARG63       0.1354
     52  NH2       20.8590    8.7260  -14.6030 N.pl3  63  ARG63       0.1354
     53  N         13.8480   16.7670  -14.7120 N.3   125  ARG125     -0.1245
     54  CA        14.9490   16.0870  -15.3710 C.3   125  ARG125      0.1563
     55  C         14.8310   14.5640  -15.2150 C.2   125  ARG125      0.2260
     56  O         15.0820   13.8270  -16.1470 O.2   125  ARG125     -0.2867
     57  CB        16.3100   16.5520  -14.8350 C.3   125  ARG125      0.0307
     58  CG        17.5430   15.7580  -15.3900 C.3   125  ARG125      0.0489
     59  CD        18.8010   16.6550  -15.2660 C.3   125  ARG125      0.2205
     60  NE        19.1030   16.9840  -13.8650 N.pl3 125  ARG125     -0.0865
     61  CZ        19.7560   16.2080  -13.0140 C.cat 125  ARG125      0.5346
     62  NH1       20.2430   14.9850  -13.3770 N.pl3 125  ARG125      0.1354
     63  NH2       19.9620   16.6520  -11.7740 N.pl3 125  ARG125      0.1354
     64  N         24.6850   19.3510  -15.7750 N.3   174  VAL174     -0.1245
     65  CA        24.3510   17.9250  -16.0410 C.3   174  VAL174      0.1561
     66  C         23.1150   17.8100  -16.9250 C.2   174  VAL174      0.2260
     67  O         23.0640   17.0100  -17.8640 O.2   174  VAL174     -0.2867
     68  CB        24.1330   17.1380  -14.6930 C.3   174  VAL174      0.0252
     69  CG1       23.4630   15.7720  -14.9260 C.3   174  VAL174      0.0019
     70  CG2       25.4730   16.9950  -13.9120 C.3   174  VAL174      0.0019
     71  N         23.4910   15.7870  -20.3340 N.3   178  GLU178     -0.1245
     72  CA        22.8230   14.4800  -20.3610 C.3   178  GLU178      0.1567
     73  C         21.4430   14.5090  -21.0010 C.2   178  GLU178      0.2260
     74  O         20.9690   13.4830  -21.5180 O.2   178  GLU178     -0.2867
     75  CB        22.7140   13.9280  -18.9230 C.3   178  GLU178      0.0388
     76  CG        24.0500   13.6060  -18.3270 C.3   178  GLU178      0.1160
     77  CD        23.9950   12.9050  -16.9950 C.2   178  GLU178      0.3649
     78  OE1       22.8850   12.6940  -16.4310 O.co2 178  GLU178     -0.2457
     79  OE2       25.1030   12.6080  -16.4920 O.co2 178  GLU178     -0.2457
@<TRIPOS>BOND
     1    74    73    2
     2    73    72    1
     3    72    71    1
     4    72    75    1
     5    75    76    1
     6    76    77    1
     7    67    66    2
     8    45    44    2
     9    77    79   ar
    10    77    78   ar
    11    66    65    1
    12    56    55    2
    13    65    64    1
    14    65    68    1
    15    44    43    1
    16    43    46    1
    17    43    42    1
    18    47    46    1
    19    47    48    1
    20    58    59    1
    21    58    57    1
    22    54    55    1
    23    54    57    1
    24    54    53    1
    25    59    60    1
    26    48    49    1
    27    49    50    2
    28    69    68    1
    29    68    70    1
    30    50    52    1
    31    50    51    1
    32    60    61    2
    33    62    61    1
    34    61    63    1
    35    29    28    2
    36    36    34    1
    37    40    39    2
    38    33    34    2
    39    33    32    1
    40    28    27    1
    41    28    37   am
    42    34    35    1
    43    27    30    1
    44    27    26    1
    45    31    30    1
    46    31    32    1
    47    39    38    1
    48    38    37    1
    49    38    41    1
    50    25    24    2
    51    21    20    2
    52    24    23    1
    53    20    19    1
    54    20    22   am
    55    19    18    1
    56    23    22    1
    57     9     8    1
    58     4     3    2
    59     8     7    1
    60     6     5    1
    61     6     7    1
    62     2     3    1
    63     2     5    1
    64     2     1    1
    65     3    10   am
    66    13    12    2
    67    12    11    1
    68    10    11    1
    69    11    14    1
    70    14    15    1
    71    16    15    2
    72    15    17   am
