@<TRIPOS>MOLECULE
tmp/4dhtA00.pdb
 111 102 0 0 0
SMALL
GASTEIGER

@<TRIPOS>ATOM
      1  N         15.8010   12.4300   -2.8240 N.3    53  LYS53      -0.1245
      2  CA        16.9320   12.1350   -3.7000 C.3    53  LYS53       0.1561
      3  C         17.2770   10.6680   -3.5420 C.2    53  LYS53       0.2260
      4  O         17.6290   10.0010   -4.4940 O.2    53  LYS53      -0.2867
      5  CB        18.1590   12.9560   -3.3780 C.3    53  LYS53       0.0271
      6  CG        19.3650   12.6540   -4.3520 C.3    53  LYS53       0.0035
      7  CD        20.0750   11.2890   -4.0410 C.3    53  LYS53       0.0206
      8  CE        21.0350   11.2950   -2.8380 C.3    53  LYS53       0.1093
      9  NZ        21.5540    9.9220   -2.5450 N.3    53  LYS53      -0.1314
     10  N         16.7720    8.0450   -6.3700 N.3    57  GLY57      -0.1225
     11  CA        18.0460    7.4590   -6.7250 C.3    57  GLY57       0.1811
     12  C         17.9550    5.9320   -6.8040 C.2    57  GLY57       0.2280
     13  O         18.4790    5.3430   -7.7660 O.2    57  GLY57      -0.2866
     14  N         15.9360    5.2640  -10.0110 N.3    60  ARG60      -0.1231
     15  CA        16.6820    5.5290  -11.2800 C.3    60  ARG60       0.1694
     16  C         17.7440    4.4410  -11.5100 C.2    60  ARG60       0.2591
     17  O         17.9550    3.9950  -12.6510 O.2    60  ARG60      -0.2718
     18  CB        17.4200    6.8890  -11.1060 C.3    60  ARG60       0.0321
     19  CG        16.4200    8.0290  -11.1560 C.3    60  ARG60       0.0489
     20  CD        17.1540    9.3300  -10.7520 C.3    60  ARG60       0.2205
     21  NE        18.0700    9.7860  -11.7920 N.pl3  60  ARG60      -0.0865
     22  CZ        19.1510   10.5370  -11.5000 C.cat  60  ARG60       0.5346
     23  NH1       19.4790   10.7580  -10.2170 N.pl3  60  ARG60       0.1354
     24  NH2       19.9190   11.0220  -12.4800 N.pl3  60  ARG60       0.1354
     25  N         18.4110    3.9890  -10.4480 N.am   61  ALA61      -0.1980
     26  CA        19.4210    2.9840  -10.6170 C.3    61  ALA61       0.1597
     27  C         18.7660    1.6940  -11.0820 C.2    61  ALA61       0.2287
     28  O         19.2900    1.0350  -12.0460 O.2    61  ALA61      -0.2864
     29  CB        20.2110    2.7260   -9.3520 C.3    61  ALA61       0.0319
     30  N         17.7400    1.9880  -14.7610 N.3    64  ARG64      -0.1245
     31  CA        18.9020    1.8490  -15.6240 C.3    64  ARG64       0.1563
     32  C         19.3330    0.4160  -15.8820 C.2    64  ARG64       0.2260
     33  O         19.5870    0.0280  -17.0560 O.2    64  ARG64      -0.2867
     34  CB        20.1020    2.6830  -15.0980 C.3    64  ARG64       0.0307
     35  CG        19.7250    4.2330  -15.1020 C.3    64  ARG64       0.0489
     36  CD        20.9860    5.0650  -14.7280 C.3    64  ARG64       0.2205
     37  NE        20.6140    6.4700  -14.7760 N.pl3  64  ARG64      -0.0865
     38  CZ        21.4860    7.4830  -14.6980 C.cat  64  ARG64       0.5346
     39  NH1       22.7910    7.1890  -14.5570 N.pl3  64  ARG64       0.1354
     40  NH2       21.0380    8.7730  -14.7820 N.pl3  64  ARG64       0.1354
     41  N         13.8880   16.8180  -14.7410 N.3   126  ARG126     -0.1231
     42  CA        14.9940   16.1500  -15.4150 C.3   126  ARG126      0.1694
     43  C         14.8840   14.5980  -15.2310 C.2   126  ARG126      0.2588
     44  O         15.1560   13.8740  -16.1700 O.2   126  ARG126     -0.2718
     45  CB        16.3430   16.5910  -14.8420 C.3   126  ARG126      0.0321
     46  CG        17.5890   15.8130  -15.3650 C.3   126  ARG126      0.0489
     47  CD        18.8270   16.7080  -15.2220 C.3   126  ARG126      0.2205
     48  NE        19.1460   16.9920  -13.8130 N.pl3 126  ARG126     -0.0865
     49  CZ        19.8230   16.1860  -13.0000 C.cat 126  ARG126      0.5346
     50  NH1       20.3170   14.9830  -13.4220 N.pl3 126  ARG126      0.1354
     51  NH2       20.0260   16.5690  -11.7500 N.pl3 126  ARG126      0.1354
     52  N         14.5130   14.1470  -14.0500 N.am  127  TYR127     -0.2029
     53  CA        14.3320   12.6720  -13.8670 C.3   127  TYR127      0.1325
     54  C         13.1830   12.1670  -14.7050 C.3   127  TYR127      0.2039
     55  O         13.2570   11.0050  -15.2700 O.3   127  TYR127     -0.2185
     56  CB        14.1740   12.3610  -12.3760 C.3   127  TYR127      0.0507
     57  CG        15.3390   12.9170  -11.4940 C.ar  127  TYR127     -0.0202
     58  CD1       16.6610   13.0110  -11.9650 C.ar  127  TYR127     -0.0009
     59  CD2       15.0790   13.3150  -10.2400 C.ar  127  TYR127     -0.0009
     60  CE1       17.7030   13.5240  -11.1490 C.ar  127  TYR127      0.0417
     61  CE2       16.1170   13.7860   -9.4000 C.ar  127  TYR127      0.0417
     62  CZ        17.4050   13.8950   -9.8790 C.ar  127  TYR127      0.1957
     63  OH        18.3590   14.3740   -9.0290 O.3   127  TYR127     -0.2866
     64  N         25.8670   23.1200  -10.9750 N.3   171  LEU171     -0.1231
     65  CA        26.3260   21.7590  -11.2340 C.3   171  LEU171      0.1693
     66  C         25.2030   20.9540  -11.8970 C.2   171  LEU171      0.2592
     67  O         25.4560   20.3210  -12.9360 O.2   171  LEU171     -0.2718
     68  CB        26.7270   21.0780   -9.9180 C.3   171  LEU171      0.0284
     69  CG        27.0500   19.5540   -9.9950 C.3   171  LEU171      0.0019
     70  CD1       28.3870   19.4030  -10.7350 C.3   171  LEU171      0.0001
     71  CD2       27.2580   19.0520   -8.5450 C.3   171  LEU171      0.0001
     72  N         24.0140   20.9580  -11.2790 N.am  172  ASN172     -0.1974
     73  CA        22.8510   20.1520  -11.8500 C.3   172  ASN172      0.1688
     74  C         22.3680   20.6800  -13.1720 C.2   172  ASN172      0.2292
     75  O         22.0160   19.8950  -14.0660 O.2   172  ASN172     -0.2864
     76  CB        21.7550   20.1040  -10.8090 C.3   172  ASN172      0.1181
     77  CG        22.0870   19.1620   -9.6610 C.2   172  ASN172      0.2629
     78  OD1       21.1710   18.6390   -8.9630 O.2   172  ASN172     -0.2716
     79  ND2       23.3380   18.9860   -9.3970 N.am  172  ASN172     -0.0877
     80  N         24.7160   19.3580  -15.7170 N.3   175  VAL175     -0.1245
     81  CA        24.3910   17.9370  -16.0180 C.3   175  VAL175      0.1561
     82  C         23.1610   17.8490  -16.9210 C.2   175  VAL175      0.2260
     83  O         23.0930   17.0230  -17.8350 O.2   175  VAL175     -0.2867
     84  CB        24.2100   17.1260  -14.6820 C.3   175  VAL175      0.0252
     85  CG1       23.5220   15.7010  -14.9070 C.3   175  VAL175      0.0019
     86  CG2       25.5860   16.9100  -13.9670 C.3   175  VAL175      0.0019
     87  N         23.5240   15.8090  -20.3000 N.3   179  GLU179     -0.1245
     88  CA        22.8010   14.5250  -20.3240 C.3   179  GLU179      0.1567
     89  C         21.4560   14.5410  -21.0060 C.2   179  GLU179      0.2260
     90  O         20.9720   13.5330  -21.5440 O.2   179  GLU179     -0.2867
     91  CB        22.6030   14.0550  -18.8820 C.3   179  GLU179      0.0388
     92  CG        23.9310   13.8030  -18.2500 C.3   179  GLU179      0.1160
     93  CD        23.8880   12.9960  -17.0020 C.2   179  GLU179      0.3649
     94  OE1       22.7840   12.7280  -16.4660 O.co2 179  GLU179     -0.2457
     95  OE2       24.9910   12.6570  -16.5560 O.co2 179  GLU179     -0.2457
     96  N         33.1800   18.7170   -7.3270 N.3   219  LEU219     -0.1245
     97  CA        32.2000   18.0440   -8.2250 C.3   219  LEU219      0.1561
     98  C         32.1300   18.6870   -9.6120 C.2   219  LEU219      0.2260
     99  O         31.9830   17.9750  -10.6510 O.2   219  LEU219     -0.2867
    100  CB        30.8100   18.0450   -7.6340 C.3   219  LEU219      0.0270
    101  CG        30.7300   17.3120   -6.2850 C.3   219  LEU219      0.0019
    102  CD1       29.3860   17.5610   -5.7370 C.3   219  LEU219      0.0001
    103  CD2       31.0210   15.8220   -6.4600 C.3   219  LEU219      0.0001
    104  N         33.3350   16.7410  -13.1060 N.3   223  ASN223     -0.1240
    105  CA        32.5960   16.6830  -14.3840 C.3   223  ASN223      0.1653
    106  C         33.3860   17.2190  -15.5580 C.2   223  ASN223      0.2266
    107  O         33.3160   16.6510  -16.6320 O.2   223  ASN223     -0.2867
    108  CB        31.2550   17.3950  -14.3060 C.3   223  ASN223      0.1155
    109  CG        30.2240   16.6160  -13.5490 C.2   223  ASN223      0.2627
    110  OD1       30.3420   15.3940  -13.3460 O.2   223  ASN223     -0.2716
    111  ND2       29.1580   17.3020  -13.1720 N.am  223  ASN223     -0.0877
@<TRIPOS>BOND
     1    90    89    2
     2    89    88    1
     3    88    87    1
     4    88    91    1
     5    91    92    1
     6    92    93    1
     7    83    82    2
     8    33    32    2
     9    93    95   ar
    10    93    94   ar
    11    82    81    1
    12   107   106    2
    13    44    43    2
    14    81    80    1
    15    81    84    1
    16    32    31    1
    17    31    34    1
    18    31    30    1
    19   106   105    1
    20    42    43    1
    21    42    45    1
    22    42    41    1
    23    46    47    1
    24    46    45    1
    25    55    54    1
    26    43    52   am
    27    47    48    1
    28    35    34    1
    29    35    36    1
    30    85    84    1
    31    40    38    1
    32    37    36    1
    33    37    38    2
    34    54    53    1
    35    38    39    1
    36    84    86    1
    37   105   108    1
    38   105   104    1
    39   108   109    1
    40    75    74    2
    41    52    53    1
    42    53    56    1
    43    48    49    2
    44   109   110    2
    45   109   111   am
    46    50    49    1
    47    74    73    1
    48    49    51    1
    49    67    66    2
    50    17    16    2
    51    24    22    1
    52    56    57    1
    53    28    27    2
    54    58    57   ar
    55    58    60   ar
    56    66    72   am
    57    66    65    1
    58    73    72    1
    59    73    76    1
    60    21    22    2
    61    21    20    1
    62    16    15    1
    63    16    25   am
    64    22    23    1
    65    57    59   ar
    66    15    18    1
    67    15    14    1
    68    65    64    1
    69    65    68    1
    70    19    18    1
    71    19    20    1
    72    60    62   ar
    73    27    26    1
    74    76    77    1
    75    70    69    1
    76    99    98    2
    77    26    25    1
    78    26    29    1
    79    59    61   ar
    80    69    68    1
    81    69    71    1
    82    62    61   ar
    83    62    63    1
    84    77    79   am
    85    77    78    2
    86    98    97    1
    87    97   100    1
    88    97    96    1
    89    13    12    2
    90   100   101    1
    91    12    11    1
    92    11    10    1
    93   103   101    1
    94   101   102    1
    95     4     3    2
    96     6     7    1
    97     6     5    1
    98     7     8    1
    99     2     3    1
   100     2     5    1
   101     2     1    1
   102     8     9    1
