@<TRIPOS>MOLECULE
tmp/4dhwB00.pdb
 93 90 0 0 0
SMALL
GASTEIGER

@<TRIPOS>ATOM
      1  N          0.2000  -11.5420   17.7630 N.3    22  HIS22      -0.1241
      2  CA         0.2150  -12.2990   16.5020 C.3    22  HIS22       0.1621
      3  C          1.6410  -12.7090   16.0530 C.2    22  HIS22       0.2264
      4  O          1.7930  -13.5290   15.1550 O.2    22  HIS22      -0.2867
      5  CB        -0.4490  -11.5100   15.3600 C.3    22  HIS22       0.0745
      6  CG        -1.3800  -12.3470   14.4490 C.ar   22  HIS22       0.0817
      7  ND1       -1.6680  -13.6740   14.7130 N.ar   22  HIS22      -0.2268
      8  CD2       -2.0760  -12.0330   13.3200 C.ar   22  HIS22       0.1154
      9  CE1       -2.4650  -14.1460   13.7670 C.ar   22  HIS22       0.1986
     10  NE2       -2.7270  -13.1740   12.9100 N.ar   22  HIS22      -0.2212
     11  N          3.3780  -20.7630   16.4620 N.3    94  HIS94      -0.1226
     12  CA         2.3320  -19.7410   16.2600 C.3    94  HIS94       0.1752
     13  C          1.5960  -19.3600   17.5450 C.2    94  HIS94       0.2596
     14  O          1.5850  -20.1040   18.5250 O.2    94  HIS94      -0.2718
     15  CB         1.2990  -20.1890   15.1980 C.3    94  HIS94       0.0759
     16  CG         0.4960  -21.3770   15.6210 C.ar   94  HIS94       0.0818
     17  ND1       -0.5970  -21.2720   16.4580 N.ar   94  HIS94      -0.2268
     18  CD2        0.6390  -22.7020   15.3460 C.ar   94  HIS94       0.1154
     19  CE1       -1.0960  -22.4780   16.6830 C.ar   94  HIS94       0.1986
     20  NE2       -0.3710  -23.3630   16.0160 N.ar   94  HIS94      -0.2212
     21  N          0.9620  -18.2150   17.5150 N.am   95  ASP95      -0.1960
     22  CA         0.1690  -17.7370   18.6270 C.3    95  ASP95       0.1840
     23  C         -1.1070  -18.5400   18.7380 C.2    95  ASP95       0.2622
     24  O         -1.6950  -18.9040   17.7140 O.2    95  ASP95      -0.2715
     25  CB        -0.1290  -16.2120   18.5040 C.3    95  ASP95       0.1450
     26  CG        -0.6280  -15.7580   17.1430 C.2    95  ASP95       0.3671
     27  OD1       -0.0100  -16.1590   16.1380 O.co2  95  ASP95      -0.2456
     28  OD2       -1.6200  -15.0020   17.0820 O.co2  95  ASP95      -0.2456
     29  N         -1.5700  -18.8130   19.9490 N.am   96  GLU96      -0.1963
     30  CA        -2.7010  -19.6860   20.1470 C.3    96  GLU96       0.1733
     31  C         -3.7060  -19.0070   21.0660 C.2    96  GLU96       0.2616
     32  O         -3.4500  -18.8460   22.2760 O.2    96  GLU96      -0.2715
     33  CB        -2.2310  -21.0280   20.7530 C.3    96  GLU96       0.0429
     34  CG        -3.3580  -22.0470   21.0140 C.3    96  GLU96       0.1163
     35  CD        -4.2150  -22.3170   19.7700 C.2    96  GLU96       0.3649
     36  OE1       -3.6960  -22.9360   18.8110 O.co2  96  GLU96      -0.2457
     37  OE2       -5.4020  -21.9050   19.7490 O.co2  96  GLU96      -0.2457
     38  N         -4.8340  -18.6100   20.4970 N.am   97  LEU97      -0.1977
     39  CA        -5.9340  -18.0050   21.2310 C.3    97  LEU97       0.1596
     40  C         -6.5290  -18.9470   22.2850 C.2    97  LEU97       0.2287
     41  O         -6.9200  -18.4990   23.3540 O.2    97  LEU97      -0.2864
     42  CB        -7.0430  -17.5980   20.2650 C.3    97  LEU97       0.0297
     43  CG        -6.8630  -16.3760   19.3530 C.3    97  LEU97       0.0022
     44  CD1       -7.8510  -16.4580   18.1730 C.3    97  LEU97       0.0001
     45  CD2       -6.9910  -15.0340   20.1260 C.3    97  LEU97       0.0001
     46  N         -7.7560  -24.0120   12.7410 N.3   113  GLY113     -0.1210
     47  CA        -8.4510  -23.4250   13.8770 C.3   113  GLY113      0.1956
     48  C         -8.7120  -21.9300   13.7570 C.2   113  GLY113      0.2612
     49  O         -8.8230  -21.2440   14.7620 O.2   113  GLY113     -0.2717
     50  N         -8.8220  -21.4220   12.5330 N.am  114  GLY114     -0.1942
     51  CA        -9.1330  -20.0170   12.3590 C.3   114  GLY114      0.2014
     52  C         -7.9010  -19.1520   12.1370 C.2   114  GLY114      0.2639
     53  O         -8.0190  -18.0010   11.7360 O.2   114  GLY114     -0.2714
     54  N         -6.7190  -19.7210   12.4060 N.am  115  HIS115     -0.1959
     55  CA        -5.4580  -19.0380   12.1950 C.3   115  HIS115      0.1787
     56  C         -5.1620  -18.8870   10.7070 C.2   115  HIS115      0.2620
     57  O         -4.8850  -19.8640    9.9990 O.2   115  HIS115     -0.2715
     58  CB        -4.3220  -19.7530   12.8950 C.3   115  HIS115      0.0785
     59  CG        -3.1350  -18.7760   13.1440 C.ar  115  HIS115      0.0821
     60  ND1       -2.4090  -18.1930   12.1260 N.ar  115  HIS115     -0.2267
     61  CD2       -2.5910  -18.3240   14.2950 C.ar  115  HIS115      0.1154
     62  CE1       -1.4760  -17.4110   12.6390 C.ar  115  HIS115      0.1986
     63  NE2       -1.5640  -17.4750   13.9540 N.ar  115  HIS115     -0.2212
     64  N         -5.2490  -17.6470   10.2210 N.am  116  ASN116     -0.1972
     65  CA        -5.0570  -17.3590    8.8110 C.3   116  ASN116      0.1688
     66  C         -3.6400  -17.6170    8.3140 C.2   116  ASN116      0.2292
     67  O         -3.4280  -17.7680    7.1180 O.2   116  ASN116     -0.2864
     68  CB        -5.4450  -15.9100    8.4940 C.3   116  ASN116      0.1181
     69  CG        -6.9330  -15.6290    8.6180 C.2   116  ASN116      0.2629
     70  OD1       -7.7600  -16.5090    8.4010 O.2   116  ASN116     -0.2716
     71  ND2       -7.2820  -14.4100    8.9650 N.am  116  ASN116     -0.0877
     72  N         -1.7420  -17.0750   24.0080 N.3   138  ILE138     -0.1245
     73  CA        -1.7920  -15.6280   24.1000 C.3   138  ILE138      0.1561
     74  C         -3.1130  -15.1470   24.6740 C.2   138  ILE138      0.2260
     75  O         -3.3760  -13.9380   24.6700 O.2   138  ILE138     -0.2867
     76  CB        -1.5900  -14.9250   22.7120 C.3   138  ILE138      0.0252
     77  CG1       -2.5600  -15.4870   21.6530 C.3   138  ILE138      0.0019
     78  CG2       -0.1130  -14.9850   22.2680 C.3   138  ILE138      0.0019
     79  CD1       -2.9750  -14.4850   20.6150 C.3   138  ILE138      0.0001
     80  N        -11.4680  -10.6070   18.1960 N.3   147  VAL147     -0.1245
     81  CA       -10.1970  -11.3390   17.9800 C.3   147  VAL147      0.1561
     82  C         -9.2030  -10.5320   17.1470 C.2   147  VAL147      0.2260
     83  O         -8.0560  -10.3160   17.5490 O.2   147  VAL147     -0.2867
     84  CB       -10.3890  -12.7570   17.3610 C.3   147  VAL147      0.0252
     85  CG1       -9.0520  -13.3230   16.8980 C.3   147  VAL147      0.0019
     86  CG2      -11.0370  -13.6820   18.3610 C.3   147  VAL147      0.0019
     87  N         -5.2810   -9.7040   18.5540 N.3   151  VAL151     -0.1245
     88  CA        -4.0030  -10.2860   18.1090 C.3   151  VAL151      0.1561
     89  C         -3.0520   -9.2020   17.5930 C.2   151  VAL151      0.2260
     90  O         -1.8460   -9.3200   17.7200 O.2   151  VAL151     -0.2867
     91  CB        -4.1800  -11.4070   17.0810 C.3   151  VAL151      0.0252
     92  CG1       -5.2010  -12.3990   17.5940 C.3   151  VAL151      0.0019
     93  CG2       -4.6110  -10.8450   15.7060 C.3   151  VAL151      0.0019
@<TRIPOS>BOND
     1    67    66    2
     2    66    65    1
     3    70    69    2
     4    68    69    1
     5    68    65    1
     6    69    71   am
     7    65    64    1
     8    57    56    2
     9    64    56   am
    10    56    55    1
    11    53    52    2
    12    60    62   ar
    13    60    59   ar
    14    52    51    1
    15    52    54   am
    16    55    54    1
    17    55    58    1
    18    51    50    1
    19    50    48   am
    20    62    63   ar
    21    46    47    1
    22    58    59    1
    23    10     8   ar
    24    10     9   ar
    25    59    61   ar
    26     8     6   ar
    27    48    47    1
    28    48    49    2
    29     9     7   ar
    30    63    61   ar
    31     6     7   ar
    32     6     5    1
    33     4     3    2
    34    15    16    1
    35    15    12    1
    36    18    16   ar
    37    18    20   ar
    38     5     2    1
    39    16    17   ar
    40    93    91    1
    41    20    19   ar
    42     3     2    1
    43    27    26   ar
    44    12    11    1
    45    12    13    1
    46    17    19   ar
    47     2     1    1
    48    85    84    1
    49    91    92    1
    50    91    88    1
    51    28    26   ar
    52    26    25    1
    53    82    83    2
    54    82    81    1
    55    84    81    1
    56    84    86    1
    57    21    13   am
    58    21    22    1
    59    13    14    2
    60    89    90    2
    61    89    88    1
    62    24    23    2
    63    81    80    1
    64    88    87    1
    65    44    43    1
    66    25    22    1
    67    22    23    1
    68    23    29   am
    69    36    35   ar
    70    43    45    1
    71    43    42    1
    72    37    35   ar
    73    35    34    1
    74    29    30    1
    75    30    33    1
    76    30    31    1
    77    42    39    1
    78    38    31   am
    79    38    39    1
    80    79    77    1
    81    33    34    1
    82    31    32    2
    83    39    40    1
    84    77    76    1
    85    78    76    1
    86    40    41    2
    87    76    73    1
    88    72    73    1
    89    73    74    1
    90    75    74    2
