@<TRIPOS>MOLECULE
tmp/4dhyA01.pdb
 189 180 0 0 0
SMALL
GASTEIGER

@<TRIPOS>ATOM
      1  N        -15.7070   -4.7950   24.5800 N.3    58  TYR58      -0.1227
      2  CA       -14.3500   -4.9230   25.1060 C.3    58  TYR58       0.1736
      3  C        -13.3800   -3.9840   24.3690 C.2    58  TYR58       0.2595
      4  O        -12.1640   -4.1010   24.5010 O.2    58  TYR58      -0.2718
      5  CB       -13.8810   -6.3860   25.1720 C.3    58  TYR58       0.0548
      6  CG       -14.5510   -7.1290   26.3030 C.ar   58  TYR58      -0.0200
      7  CD1      -13.9820   -7.1610   27.5780 C.ar   58  TYR58      -0.0009
      8  CD2      -15.7900   -7.7350   26.1250 C.ar   58  TYR58      -0.0009
      9  CE1      -14.6040   -7.8290   28.6310 C.ar   58  TYR58       0.0417
     10  CE2      -16.4510   -8.3520   27.1820 C.ar   58  TYR58       0.0417
     11  CZ       -15.8370   -8.4290   28.4260 C.ar   58  TYR58       0.1957
     12  OH       -16.4630   -9.0790   29.4590 O.3    58  TYR58      -0.2866
     13  N        -13.9330   -3.0270   23.6080 N.am   59  VAL59      -0.1966
     14  CA       -13.1480   -1.9910   22.9580 C.3    59  VAL59       0.1727
     15  C        -13.1790   -0.8470   23.9620 C.2    59  VAL59       0.2616
     16  O        -14.2490   -0.3100   24.2530 O.2    59  VAL59      -0.2715
     17  CB       -13.6640   -1.5960   21.5500 C.3    59  VAL59       0.0290
     18  CG1      -12.9390   -0.3590   21.0180 C.3    59  VAL59       0.0023
     19  CG2      -13.5590   -2.7670   20.5670 C.3    59  VAL59       0.0023
     20  N        -12.0280   -0.5550   24.5660 N.am   60  ARG60      -0.1963
     21  CA       -11.9340    0.4560   25.6190 C.3    60  ARG60       0.1729
     22  C        -11.2430    1.7280   25.1870 C.2    60  ARG60       0.2617
     23  O        -10.3680    1.6990   24.3070 O.2    60  ARG60      -0.2715
     24  CB       -11.1740   -0.1220   26.8240 C.3    60  ARG60       0.0348
     25  CG       -11.8910   -1.2120   27.5720 C.3    60  ARG60       0.0492
     26  CD       -10.8480   -1.9800   28.3410 C.3    60  ARG60       0.2205
     27  NE       -11.3630   -3.2280   28.9030 N.pl3  60  ARG60      -0.0865
     28  CZ       -11.8160   -3.3590   30.1440 C.cat  60  ARG60       0.5346
     29  NH1      -11.8330   -2.3150   30.9660 N.pl3  60  ARG60       0.1354
     30  NH2      -12.2560   -4.5320   30.5740 N.pl3  60  ARG60       0.1354
     31  N        -11.6090    2.8480   25.8390 N.am   61  SER61      -0.1936
     32  CA       -10.9240    4.1200   25.6460 C.3    61  SER61       0.2055
     33  C         -9.5370    3.8340   26.2780 C.2    61  SER61       0.2643
     34  O         -9.4550    3.4180   27.4450 O.2    61  SER61      -0.2714
     35  CB       -11.6410    5.2410   26.3890 C.3    61  SER61       0.2130
     36  OG       -11.6060    5.0140   27.7900 O.3    61  SER61      -0.2179
     37  N         -8.4880    3.8880   25.4570 N.am   62  THR62      -0.1950
     38  CA        -7.1200    3.5230   25.8580 C.3    62  THR62       0.1897
     39  C         -6.1720    4.7180   25.7060 C.2    62  THR62       0.2313
     40  O         -6.3720    5.5000   24.7720 O.2    62  THR62      -0.2863
     41  CB        -6.6790    2.2280   25.0990 C.3    62  THR62       0.1794
     42  OG1       -5.3740    1.8040   25.5110 O.3    62  THR62      -0.2208
     43  CG2       -6.7360    2.3770   23.5750 C.3    62  THR62       0.0378
     44  N         -3.3670    4.9910   24.4200 N.3    64  GLU64      -0.1245
     45  CA        -2.7460    4.9100   23.1130 C.3    64  GLU64       0.1567
     46  C         -1.8680    3.6720   23.0390 C.2    64  GLU64       0.2260
     47  O         -2.1540    2.6590   23.7010 O.2    64  GLU64      -0.2867
     48  CB        -1.8950    6.1730   22.7920 C.3    64  GLU64       0.0388
     49  CG        -2.0550    6.7530   21.3800 C.3    64  GLU64       0.1160
     50  CD        -3.4510    7.0130   20.8840 C.2    64  GLU64       0.3649
     51  OE1       -4.3210    7.5970   21.5240 O.co2  64  GLU64      -0.2457
     52  OE2       -3.6590    6.5680   19.7230 O.co2  64  GLU64      -0.2457
     53  N         -0.1440    2.1270   19.6750 N.3    66  SER66      -0.1217
     54  CA        -0.4970    1.3210   18.5200 C.3    66  SER66       0.1889
     55  C          0.7530    0.6390   17.9660 C.2    66  SER66       0.2288
     56  O          1.8390    1.2350   17.9420 O.2    66  SER66      -0.2866
     57  CB        -1.1430    2.1850   17.4460 C.3    66  SER66       0.2089
     58  OG        -1.3610    1.4300   16.2650 O.3    66  SER66      -0.2183
     59  N          0.0700    0.2370    8.8330 N.3    88  VAL88      -0.1245
     60  CA         0.0970    1.2090    9.9290 C.3    88  VAL88       0.1561
     61  C          1.5750    1.5420   10.1690 C.2    88  VAL88       0.2260
     62  O          2.3860    0.6210   10.3340 O.2    88  VAL88      -0.2867
     63  CB        -0.5970    0.6380   11.2110 C.3    88  VAL88       0.0252
     64  CG1       -0.4490    1.5780   12.4050 C.3    88  VAL88       0.0019
     65  CG2       -2.0680    0.3160   10.9600 C.3    88  VAL88       0.0019
     66  N          0.3650    7.1950   10.1040 N.3    90  SER90      -0.1202
     67  CA         0.0460    6.8310    8.7200 C.3    90  SER90       0.2020
     68  C         -0.5950    5.4280    8.5350 C.2    90  SER90       0.2618
     69  O         -0.0890    4.4280    9.0560 O.2    90  SER90      -0.2717
     70  CB         1.2830    6.9570    7.8360 C.3    90  SER90       0.2103
     71  OG         1.0050    6.6020    6.4900 O.3    90  SER90      -0.2182
     72  N         -1.6900    5.3740    7.7450 N.am   91  VAL91      -0.1979
     73  CA        -2.4340    4.1560    7.3880 C.3    91  VAL91       0.1595
     74  C         -2.8320    4.1300    5.9320 C.2    91  VAL91       0.2287
     75  O         -3.5620    5.0070    5.4710 O.2    91  VAL91      -0.2864
     76  CB        -3.5600    3.6900    8.3720 C.3    91  VAL91       0.0276
     77  CG1       -4.1390    4.8350    9.1500 C.3    91  VAL91       0.0022
     78  CG2       -4.6790    2.9060    7.6850 C.3    91  VAL91       0.0022
     79  N        -14.3350  -11.3740   25.5830 N.3   148  ASP148     -0.1225
     80  CA       -13.1690  -10.5340   25.3810 C.3   148  ASP148      0.1805
     81  C        -13.2150   -9.9190   23.9710 C.2   148  ASP148      0.2597
     82  O        -14.1710  -10.1520   23.2440 O.2   148  ASP148     -0.2718
     83  CB       -11.8810  -11.3520   25.6260 C.3   148  ASP148      0.1424
     84  CG       -10.7620  -10.5440   26.2440 C.2   148  ASP148      0.3668
     85  OD1      -10.1200  -11.0530   27.1920 O.co2 148  ASP148     -0.2456
     86  OD2      -10.5310   -9.3940   25.7860 O.co2 148  ASP148     -0.2456
     87  N        -12.1920   -9.1630   23.5730 N.am  149  ILE149     -0.1980
     88  CA       -12.1090   -8.5450   22.2420 C.3   149  ILE149      0.1595
     89  C        -12.0150   -9.5650   21.0860 C.2   149  ILE149      0.2287
     90  O        -12.4720   -9.2840   19.9770 O.2   149  ILE149     -0.2864
     91  CB       -10.9490   -7.5110   22.2050 C.3   149  ILE149      0.0276
     92  CG1      -11.0920   -6.5190   21.0060 C.3   149  ILE149      0.0022
     93  CG2       -9.5560   -8.1890   22.2840 C.3   149  ILE149      0.0022
     94  CD1      -10.9490   -5.1240   21.4170 C.3   149  ILE149      0.0001
     95  N        -16.8440    3.6580   13.8980 N.3   200  MET200     -0.1230
     96  CA       -16.5100    4.6480   14.9290 C.3   200  MET200      0.1702
     97  C        -14.9860    4.7690   15.0100 C.2   200  MET200      0.2592
     98  O        -14.4830    5.8840   14.9170 O.2   200  MET200     -0.2718
     99  CB       -17.0830    4.2500   16.2960 C.3   200  MET200      0.0401
    100  CG       -16.7660    5.2710   17.3800 C.3   200  MET200      0.0596
    101  SD       -16.8960    4.6170   19.0300 S.3   200  MET200     -0.1393
    102  CE       -15.4430    3.7300   19.1060 C.3   200  MET200      0.0692
    103  N        -14.2600    3.6210   15.1240 N.am  201  ILE201     -0.1980
    104  CA       -12.7930    3.5820   15.1920 C.3   201  ILE201      0.1595
    105  C        -12.0780    4.2290   13.9830 C.2   201  ILE201      0.2287
    106  O        -11.1720    5.0330   14.2080 O.2   201  ILE201     -0.2864
    107  CB       -12.2330    2.1870   15.6310 C.3   201  ILE201      0.0276
    108  CG1      -12.3800    2.0280   17.1620 C.3   201  ILE201      0.0022
    109  CG2      -10.7430    1.9850   15.2430 C.3   201  ILE201      0.0022
    110  CD1      -13.2390    1.0170   17.5630 C.3   201  ILE201      0.0001
    111  N        -12.8270    7.9600   14.0710 N.3   204  TYR204     -0.1227
    112  CA       -12.0830    8.5320   15.2010 C.3   204  TYR204      0.1736
    113  C        -10.6380    8.8490   14.7550 C.2   204  TYR204      0.2595
    114  O        -10.0930    9.8760   15.1500 O.2   204  TYR204     -0.2718
    115  CB       -12.0840    7.5840   16.4160 C.3   204  TYR204      0.0548
    116  CG       -11.1610    8.0070   17.5420 C.ar  204  TYR204     -0.0200
    117  CD1      -11.6410    8.7350   18.6300 C.ar  204  TYR204     -0.0009
    118  CD2       -9.8040    7.6810   17.5220 C.ar  204  TYR204     -0.0009
    119  CE1      -10.8020    9.1120   19.6730 C.ar  204  TYR204      0.0417
    120  CE2       -8.9440    8.1160   18.5260 C.ar  204  TYR204      0.0417
    121  CZ        -9.4490    8.8200   19.6060 C.ar  204  TYR204      0.1957
    122  OH        -8.6120    9.2250   20.6180 O.3   204  TYR204     -0.2866
    123  N        -10.0350    7.9850   13.9240 N.am  205  TYR205     -0.1976
    124  CA        -8.6830    8.1970   13.4130 C.3   205  TYR205      0.1639
    125  C         -8.5300    9.5740   12.7440 C.2   205  TYR205      0.2290
    126  O         -7.4630   10.1980   12.8550 O.2   205  TYR205     -0.2864
    127  CB        -8.2710    7.0520   12.4640 C.3   205  TYR205      0.0560
    128  CG        -6.8940    7.2330   11.8480 C.ar  205  TYR205     -0.0198
    129  CD1       -6.7470    7.7390   10.5590 C.ar  205  TYR205     -0.0009
    130  CD2       -5.7410    6.8910   12.5530 C.ar  205  TYR205     -0.0009
    131  CE1       -5.4870    7.9250    9.9950 C.ar  205  TYR205      0.0417
    132  CE2       -4.4770    7.0710   11.9990 C.ar  205  TYR205      0.0417
    133  CZ        -4.3550    7.5970   10.7210 C.ar  205  TYR205      0.1957
    134  OH        -3.1210    7.7430   10.1390 O.3   205  TYR205     -0.2866
    135  N        -14.8930   11.6080   17.5740 N.3   210  CYS210     -0.1221
    136  CA       -15.7890   10.5150   17.2410 C.3   210  CYS210      0.1808
    137  C        -15.8850    9.4120   18.2710 C.2   210  CYS210      0.2601
    138  O        -14.9500    8.6320   18.4540 O.2   210  CYS210     -0.2717
    139  CB       -15.5750    9.9800   15.8310 C.3   210  CYS210      0.0970
    140  SG       -16.8470    8.8100   15.2930 S.3   210  CYS210     -0.0800
    141  N        -17.0300    9.3650   18.9550 N.am  211  GLU211     -0.1979
    142  CA       -17.3370    8.3760   20.0070 C.3   211  GLU211      0.1602
    143  C        -18.6740    7.6300   19.7940 C.2   211  GLU211      0.2287
    144  O        -19.1620    6.9690   20.7050 O.2   211  GLU211     -0.2864
    145  CB       -17.2990    9.0420   21.3830 C.3   211  GLU211      0.0415
    146  CG       -15.8950    9.3350   21.8750 C.3   211  GLU211      0.1163
    147  CD       -15.9540    9.9330   23.2570 C.2   211  GLU211      0.3649
    148  OE1      -16.1360    9.1420   24.2100 O.co2 211  GLU211     -0.2457
    149  OE2      -15.9630   11.1820   23.3750 O.co2 211  GLU211     -0.2457
    150  N        -19.4730    5.2880   23.1000 N.3   225  MET225     -0.1245
    151  CA       -18.5370    5.0910   24.2210 C.3   225  MET225      0.1570
    152  C        -19.2430    5.2920   25.5770 C.2   225  MET225      0.2261
    153  O        -19.5050    6.4340   25.9780 O.2   225  MET225     -0.2867
    154  CB       -17.2820    5.9980   24.1090 C.3   225  MET225      0.0387
    155  CG       -16.3990    5.6980   22.9140 C.3   225  MET225      0.0595
    156  SD       -15.9900    3.9410   22.7430 S.3   225  MET225     -0.1393
    157  CE       -14.6160    3.7600   24.0560 C.3   225  MET225      0.0692
    158  N         -7.3400   -1.1350   12.7950 N.3   441  LEU441     -0.1231
    159  CA        -6.8720   -0.1430   13.7560 C.3   441  LEU441      0.1693
    160  C         -7.0480   -0.6860   15.1770 C.2   441  LEU441      0.2591
    161  O         -6.1080   -0.5980   15.9710 O.2   441  LEU441     -0.2718
    162  CB        -7.5720    1.2170   13.5620 C.3   441  LEU441      0.0284
    163  CG        -7.2190    1.9870   12.2820 C.3   441  LEU441      0.0019
    164  CD1       -8.2190    3.0970   12.0080 C.3   441  LEU441      0.0001
    165  CD2       -5.7680    2.4780   12.3020 C.3   441  LEU441      0.0001
    166  N         -8.2000   -1.3330   15.4650 N.am  442  VAL442     -0.1980
    167  CA        -8.4390   -1.9790   16.7820 C.3   442  VAL442      0.1595
    168  C         -7.3780   -3.0890   17.0000 C.2   442  VAL442      0.2287
    169  O         -6.9070   -3.2830   18.1250 O.2   442  VAL442     -0.2864
    170  CB        -9.8610   -2.5690   16.9860 C.3   442  VAL442      0.0276
    171  CG1      -10.0980   -2.9060   18.4570 C.3   442  VAL442      0.0022
    172  CG2      -10.9420   -1.6320   16.4830 C.3   442  VAL442      0.0022
    173  N         -4.2240   -3.2140   15.7120 N.3   444  ALA444     -0.1231
    174  CA        -2.9290   -2.5950   15.9990 C.3   444  ALA444      0.1694
    175  C         -2.8350   -2.2090   17.4840 C.2   444  ALA444      0.2592
    176  O         -1.8210   -2.4900   18.1380 O.2   444  ALA444     -0.2718
    177  CB        -2.7170   -1.3780   15.1000 C.3   444  ALA444      0.0304
    178  N         -3.9280   -1.6300   18.0270 N.am  445  VAL445     -0.1966
    179  CA        -4.0270   -1.2330   19.4360 C.3   445  VAL445      0.1727
    180  C         -4.0440   -2.4900   20.3240 C.2   445  VAL445      0.2616
    181  O         -3.2830   -2.5620   21.2900 O.2   445  VAL445     -0.2715
    182  CB        -5.2230   -0.2690   19.6930 C.3   445  VAL445      0.0290
    183  CG1       -5.4250   -0.0070   21.1780 C.3   445  VAL445      0.0023
    184  CG2       -5.0420    1.0470   18.9340 C.3   445  VAL445      0.0023
    185  N         -4.8730   -3.4890   19.9630 N.am  446  ALA446     -0.1977
    186  CA        -4.9900   -4.7640   20.6780 C.3   446  ALA446      0.1597
    187  C         -3.6860   -5.5790   20.6540 C.2   446  ALA446      0.2287
    188  O         -3.3530   -6.1750   21.6750 O.2   446  ALA446     -0.2864
    189  CB        -6.1320   -5.5910   20.1060 C.3   446  ALA446      0.0319
@<TRIPOS>BOND
     1    75    74    2
     2    74    73    1
     3    71    70    1
     4    73    72    1
     5    73    76    1
     6    78    76    1
     7    72    68   am
     8    70    67    1
     9    76    77    1
    10    68    67    1
    11    68    69    2
    12    67    66    1
    13    59    60    1
    14    60    61    1
    15    60    63    1
    16   131   129   ar
    17   131   133   ar
    18   134   133    1
    19    61    62    2
    20   129   128   ar
    21   133   132   ar
    22    65    63    1
    23    63    64    1
    24   128   127    1
    25   128   130   ar
    26   132   130   ar
    27   164   163    1
    28   163   165    1
    29   163   162    1
    30   127   124    1
    31   125   126    2
    32   125   124    1
    33   158   159    1
    34   124   123    1
    35   162   159    1
    36   159   160    1
    37    95    96    1
    38   123   113   am
    39   105   106    2
    40   105   104    1
    41   111   112    1
    42   113   114    2
    43   113   112    1
    44    98    97    2
    45    96    97    1
    46    96    99    1
    47    97   103   am
    48   177   174    1
    49   103   104    1
    50   160   166   am
    51   160   161    2
    52   104   107    1
    53   112   115    1
    54   109   107    1
    55   140   139    1
    56   166   167    1
    57   107   108    1
    58   173   174    1
    59   139   136    1
    60   174   175    1
    61    58    57    1
    62    99   100    1
    63   115   116    1
    64   172   170    1
    65   167   170    1
    66   167   168    1
    67   170   171    1
    68   168   169    2
    69   108   110    1
    70   136   135    1
    71   136   137    1
    72   100   101    1
    73    57    54    1
    74   175   178   am
    75   175   176    2
    76   118   116   ar
    77   118   120   ar
    78   116   117   ar
    79    56    55    2
    80    55    54    1
    81   178   179    1
    82   137   138    2
    83   137   141   am
    84    54    53    1
    85   120   121   ar
    86   117   119   ar
    87   184   182    1
    88   141   142    1
    89   101   102    1
    90   179   182    1
    91   179   180    1
    92   121   119   ar
    93   121   122    1
    94   182   183    1
    95    52    50   ar
    96   143   142    1
    97   143   144    2
    98   185   180   am
    99   185   186    1
   100    90    89    2
   101   142   145    1
   102   189   186    1
   103   180   181    2
   104    19    17    1
   105   187   186    1
   106   187   188    2
   107    50    49    1
   108    50    51   ar
   109    92    94    1
   110    92    91    1
   111    18    17    1
   112    89    88    1
   113    49    48    1
   114   145   146    1
   115    17    14    1
   116   146   147    1
   117    91    88    1
   118    91    93    1
   119    88    87    1
   120   156   155    1
   121   156   157    1
   122    48    45    1
   123   155   154    1
   124    14    13    1
   125    14    15    1
   126    46    45    1
   127    46    47    2
   128   150   151    1
   129    45    44    1
   130    82    81    2
   131   147   149   ar
   132   147   148   ar
   133    87    81   am
   134    43    41    1
   135    13     3   am
   136    15    16    2
   137    15    20   am
   138    81    80    1
   139   154   151    1
   140   151   152    1
   141    23    22    2
   142     3     4    2
   143     3     2    1
   144    20    21    1
   145     1     2    1
   146    40    39    2
   147    41    42    1
   148    41    38    1
   149     2     5    1
   150     5     6    1
   151    22    21    1
   152    22    31   am
   153    80    79    1
   154    80    83    1
   155    37    38    1
   156    37    33   am
   157   152   153    2
   158    21    24    1
   159    83    84    1
   160    32    31    1
   161    32    33    1
   162    32    35    1
   163    39    38    1
   164    86    84   ar
   165     8     6   ar
   166     8    10   ar
   167    84    85   ar
   168    33    34    2
   169     6     7   ar
   170    35    36    1
   171    24    25    1
   172    10    11   ar
   173    25    26    1
   174     7     9   ar
   175    26    27    1
   176    11     9   ar
   177    11    12    1
   178    27    28    2
   179    28    30    1
   180    28    29    1
