@<TRIPOS>MOLECULE
tmp/4di4A01.pdb
 148 140 0 0 0
SMALL
GASTEIGER

@<TRIPOS>ATOM
      1  N        -17.4040    1.2270   53.1010 N.3    50  ILE50      -0.1231
      2  CA       -18.1770    1.9500   52.1280 C.3    50  ILE50       0.1692
      3  C        -17.4160    3.1260   51.5100 C.2    50  ILE50       0.2591
      4  O        -17.2980    3.2140   50.2930 O.2    50  ILE50      -0.2718
      5  CB       -19.4730    2.4230   52.7440 C.3    50  ILE50       0.0266
      6  CG1      -20.4250    1.2320   52.8450 C.3    50  ILE50       0.0019
      7  CG2      -20.0710    3.5550   51.9190 C.3    50  ILE50       0.0020
      8  CD1      -21.6450    1.5120   53.7010 C.3    50  ILE50       0.0001
      9  N        -16.8990    4.0190   52.3440 N.am   51  MET51      -0.1979
     10  CA       -16.1910    5.1980   51.8540 C.3    51  MET51       0.1605
     11  C        -14.9780    4.8230   51.0330 C.2    51  MET51       0.2287
     12  O        -14.6350    5.4920   50.0770 O.2    51  MET51      -0.2864
     13  CB       -15.7760    6.1070   53.0110 C.3    51  MET51       0.0413
     14  CG       -16.8390    7.1330   53.4090 C.3    51  MET51       0.0598
     15  SD       -16.4950    7.8330   55.0450 S.3    51  MET51      -0.1393
     16  CE       -17.4420    9.3580   54.9700 C.3    51  MET51       0.0692
     17  N        -16.0850    3.4680   47.4320 N.3    54  ASN54      -0.1225
     18  CA       -16.3920    4.6320   46.6350 C.3    54  ASN54       0.1785
     19  C        -15.1360    5.3160   46.1010 C.2    54  ASN54       0.2597
     20  O        -14.9030    5.3590   44.8930 O.2    54  ASN54      -0.2718
     21  CB       -17.2220    5.6070   47.4590 C.3    54  ASN54       0.1169
     22  CG       -17.6760    6.7880   46.6570 C.2    54  ASN54       0.2627
     23  OD1      -17.5660    6.7930   45.4310 O.2    54  ASN54      -0.2716
     24  ND2      -18.1940    7.8000   47.3350 N.am   54  ASN54      -0.0877
     25  N        -14.3210    5.8350   47.0120 N.am   55  ALA55      -0.1979
     26  CA       -13.1970    6.6820   46.6430 C.3    55  ALA55       0.1597
     27  C        -12.0610    5.9390   45.9620 C.2    55  ALA55       0.2287
     28  O        -11.5070    6.3980   44.9810 O.2    55  ALA55      -0.2864
     29  CB       -12.6760    7.4080   47.8580 C.3    55  ALA55       0.0319
     30  N        -14.4030    2.1060   43.1480 N.3    58  GLN58      -0.1245
     31  CA       -15.3300    2.5350   42.1200 C.3    58  GLN58       0.1566
     32  C        -14.8470    3.7750   41.3450 C.2    58  GLN58       0.2260
     33  O        -14.7150    3.7440   40.1140 O.2    58  GLN58      -0.2867
     34  CB       -16.7110    2.8080   42.7450 C.3    58  GLN58       0.0367
     35  CG       -17.6320    3.6100   41.8370 C.3    58  GLN58       0.0905
     36  CD       -19.0760    3.5790   42.2630 C.2    58  GLN58       0.2608
     37  OE1      -19.5280    2.6460   42.9080 O.2    58  GLN58      -0.2717
     38  NE2      -19.8190    4.6010   41.8800 N.am   58  GLN58      -0.0878
     39  N        -18.9910   -2.6540   49.3030 N.3    83  TYR83      -0.1241
     40  CA       -20.1810   -1.9400   49.7290 C.3    83  TYR83       0.1605
     41  C        -21.0920   -2.8460   50.5570 C.2    83  TYR83       0.2264
     42  O        -21.6000   -2.4430   51.5830 O.2    83  TYR83      -0.2867
     43  CB       -20.9550   -1.4330   48.5120 C.3    83  TYR83       0.0534
     44  CG       -20.4140   -0.1770   47.8970 C.ar   83  TYR83      -0.0201
     45  CD1      -20.0030    0.8880   48.6780 C.ar   83  TYR83      -0.0009
     46  CD2      -20.3220   -0.0510   46.5200 C.ar   83  TYR83      -0.0009
     47  CE1      -19.5250    2.0520   48.1000 C.ar   83  TYR83       0.0417
     48  CE2      -19.8350    1.0920   45.9430 C.ar   83  TYR83       0.0417
     49  CZ       -19.4500    2.1420   46.7280 C.ar   83  TYR83       0.1957
     50  OH       -18.9620    3.2710   46.1190 O.3    83  TYR83      -0.2866
     51  N        -28.4350    5.4520   57.6850 N.3   129  TYR129     -0.1227
     52  CA       -27.8850    6.0970   56.5050 C.3   129  TYR129      0.1736
     53  C        -26.8210    5.2240   55.8520 C.2   129  TYR129      0.2595
     54  O        -26.8600    5.0060   54.6460 O.2   129  TYR129     -0.2718
     55  CB       -27.2900    7.4550   56.8610 C.3   129  TYR129      0.0548
     56  CG       -26.4200    8.0310   55.7710 C.ar  129  TYR129     -0.0200
     57  CD1      -26.9780    8.6790   54.6790 C.ar  129  TYR129     -0.0009
     58  CD2      -25.0410    7.9270   55.8290 C.ar  129  TYR129     -0.0009
     59  CE1      -26.1850    9.2060   53.6740 C.ar  129  TYR129      0.0417
     60  CE2      -24.2360    8.4580   54.8280 C.ar  129  TYR129      0.0417
     61  CZ       -24.8110    9.0940   53.7500 C.ar  129  TYR129      0.1957
     62  OH       -24.0130    9.6210   52.7500 O.3   129  TYR129     -0.2866
     63  N        -25.8890    4.7130   56.6560 N.am  130  TRP130     -0.1976
     64  CA       -24.7400    4.0080   56.1090 C.3   130  TRP130      0.1640
     65  C        -25.1050    2.6680   55.5000 C.2   130  TRP130      0.2290
     66  O        -24.5540    2.2730   54.4790 O.2   130  TRP130     -0.2864
     67  CB       -23.5970    3.8860   57.1280 C.3   130  TRP130      0.0576
     68  CG       -22.8470    5.1730   57.2120 C.ar  130  TRP130      0.0006
     69  CD1      -22.9040    6.0890   58.2160 C.ar  130  TRP130      0.0946
     70  CD2      -21.9860    5.7310   56.2120 C.ar  130  TRP130      0.0152
     71  NE1      -22.1100    7.1690   57.9200 N.ar  130  TRP130     -0.2442
     72  CE2      -21.5380    6.9750   56.6910 C.ar  130  TRP130      0.0810
     73  CE3      -21.5460    5.2970   54.9570 C.ar  130  TRP130      0.0012
     74  CZ2      -20.6660    7.7890   55.9650 C.ar  130  TRP130      0.0191
     75  CZ3      -20.6780    6.1070   54.2410 C.ar  130  TRP130      0.0001
     76  CH2      -20.2500    7.3390   54.7460 C.ar  130  TRP130      0.0015
     77  N        -27.2910    3.4700   52.4320 N.3   133  THR133     -0.1218
     78  CA       -26.3430    3.9170   51.4370 C.3   133  THR133      0.1862
     79  C        -25.4750    2.7810   50.8800 C.2   133  THR133      0.2287
     80  O        -25.1660    2.7620   49.7040 O.2   133  THR133     -0.2866
     81  CB       -25.4490    5.0400   51.9970 C.3   133  THR133      0.1770
     82  OG1      -26.2240    6.2370   52.1280 O.3   133  THR133     -0.2211
     83  CG2      -24.2800    5.3160   51.0570 C.3   133  THR133      0.0375
     84  N        -27.5510    0.5600   48.3930 N.3   136  VAL136     -0.1231
     85  CA       -27.9100    1.3230   47.2210 C.3   136  VAL136      0.1692
     86  C        -26.6790    1.5240   46.3330 C.2   136  VAL136      0.2591
     87  O        -26.7630    1.4000   45.1170 O.2   136  VAL136     -0.2718
     88  CB       -28.6090    2.6350   47.6460 C.3   136  VAL136      0.0266
     89  CG1      -28.4360    3.7410   46.6430 C.3   136  VAL136      0.0020
     90  CG2      -30.0660    2.3630   47.9040 C.3   136  VAL136      0.0020
     91  N        -25.5340    1.7930   46.9400 N.am  137  ALA137     -0.1980
     92  CA       -24.2990    1.8470   46.1830 C.3   137  ALA137      0.1597
     93  C        -24.0780    0.4960   45.4980 C.2   137  ALA137      0.2287
     94  O        -23.7730    0.4470   44.2940 O.2   137  ALA137     -0.2864
     95  CB       -23.1210    2.2200   47.0690 C.3   137  ALA137      0.0319
     96  N        -26.2640   -0.2490   42.4900 N.3   140  ALA140     -0.1245
     97  CA       -25.9450    0.5190   41.3170 C.3   140  ALA140      0.1562
     98  C        -24.8220   -0.1440   40.4930 C.2   140  ALA140      0.2260
     99  O        -24.6350    0.1750   39.3100 O.2   140  ALA140     -0.2867
    100  CB       -25.5650    1.9270   41.7280 C.3   140  ALA140      0.0290
    101  N        -28.0640   10.9880   48.6740 N.3   177  VAL177     -0.1245
    102  CA       -28.0760    9.5970   48.2570 C.3   177  VAL177      0.1561
    103  C        -29.4070    9.2370   47.6560 C.2   177  VAL177      0.2260
    104  O        -29.4710    8.5960   46.6000 O.2   177  VAL177     -0.2867
    105  CB       -27.8210    8.6800   49.4340 C.3   177  VAL177      0.0252
    106  CG1      -28.2460    7.2460   49.0890 C.3   177  VAL177      0.0019
    107  CG2      -26.3630    8.7680   49.8280 C.3   177  VAL177      0.0019
    108  N        -29.8360   10.6510   44.0360 N.3   180  LYS180     -0.1231
    109  CA       -29.2270    9.7780   43.0430 C.3   180  LYS180      0.1693
    110  C        -30.0790    8.5360   42.7950 C.2   180  LYS180      0.2592
    111  O        -30.2570    8.1160   41.6560 O.2   180  LYS180     -0.2718
    112  CB       -27.8230    9.3720   43.4490 C.3   180  LYS180      0.0285
    113  CG       -26.8470   10.5350   43.6130 C.3   180  LYS180      0.0035
    114  CD       -25.5090    9.9730   44.0600 C.3   180  LYS180      0.0206
    115  CE       -24.6330   10.9870   44.7490 C.3   180  LYS180      0.1093
    116  NZ       -23.4620   10.3020   45.3540 N.3   180  LYS180     -0.1314
    117  N        -30.6300    7.9620   43.8530 N.am  181  PHE181     -0.1976
    118  CA       -31.3960    6.7480   43.6830 C.3   181  PHE181      0.1639
    119  C        -32.6930    6.9420   42.8760 C.2   181  PHE181      0.2290
    120  O        -33.0120    6.1330   42.0100 O.2   181  PHE181     -0.2864
    121  CB       -31.7150    6.0590   45.0380 C.3   181  PHE181      0.0560
    122  CG       -32.6050    4.8670   44.8710 C.ar  181  PHE181     -0.0200
    123  CD1      -32.0660    3.6140   44.6140 C.ar  181  PHE181     -0.0042
    124  CD2      -33.9820    5.0240   44.8190 C.ar  181  PHE181     -0.0042
    125  CE1      -32.8810    2.5310   44.3600 C.ar  181  PHE181     -0.0003
    126  CE2      -34.8070    3.9400   44.5680 C.ar  181  PHE181     -0.0003
    127  CZ       -34.2530    2.6900   44.3410 C.ar  181  PHE181     -0.0000
    128  N        -32.3150    7.5520   39.1350 N.3   184  ALA184     -0.1245
    129  CA       -31.8090    6.4270   38.3650 C.3   184  ALA184      0.1562
    130  C        -32.7520    5.2250   38.3320 C.2   184  ALA184      0.2260
    131  O        -32.4260    4.2000   37.7500 O.2   184  ALA184     -0.2867
    132  CB       -30.4610    6.0020   38.8970 C.3   184  ALA184      0.0290
    133  N        -12.5150   15.0940   50.6050 N.3   253  LEU253     -0.1245
    134  CA       -13.7120   14.7640   49.8420 C.3   253  LEU253      0.1561
    135  C        -14.0470   15.8760   48.8450 C.2   253  LEU253      0.2260
    136  O        -14.6120   15.6290   47.7820 O.2   253  LEU253     -0.2867
    137  CB       -14.8920   14.4260   50.7660 C.3   253  LEU253      0.0270
    138  CG       -14.8530   13.0040   51.3530 C.3   253  LEU253      0.0019
    139  CD1      -13.6690   12.8140   52.2940 C.3   253  LEU253      0.0001
    140  CD2      -16.1550   12.6530   52.0630 C.3   253  LEU253      0.0001
    141  N        -11.6530   15.2370   46.0380 N.3   256  LEU256     -0.1245
    142  CA       -12.1120   14.0820   45.2900 C.3   256  LEU256      0.1561
    143  C        -13.2300   14.5180   44.3450 C.2   256  LEU256      0.2260
    144  O        -13.1890   14.2810   43.1390 O.2   256  LEU256     -0.2867
    145  CB       -12.6160   13.0220   46.2500 C.3   256  LEU256      0.0270
    146  CG       -12.7270   11.6280   45.6610 C.3   256  LEU256      0.0019
    147  CD1      -11.3670   10.9780   45.6680 C.3   256  LEU256      0.0001
    148  CD2      -13.7220   10.8040   46.4570 C.3   256  LEU256      0.0001
@<TRIPOS>BOND
     1   131   130    2
     2   130   129    1
     3   129   132    1
     4   129   128    1
     5    99    98    2
     6    33    32    2
     7    98    97    1
     8    97   100    1
     9    97    96    1
    10    32    31    1
    11   111   110    2
    12    35    36    1
    13    35    34    1
    14    38    36   am
    15   120   119    2
    16    31    34    1
    17    31    30    1
    18    36    37    2
    19   110   109    1
    20   110   117   am
    21   119   118    1
    22   109   112    1
    23   109   108    1
    24   144   143    2
    25   112   113    1
    26   113   114    1
    27   118   117    1
    28   118   121    1
    29   114   115    1
    30    94    93    2
    31   127   125   ar
    32   127   126   ar
    33   143   142    1
    34   125   123   ar
    35   126   124   ar
    36   123   122   ar
    37   115   116    1
    38   124   122   ar
    39   122   121    1
    40    20    19    2
    41    28    27    2
    42    87    86    2
    43   142   141    1
    44   142   145    1
    45    23    22    2
    46    93    92    1
    47   146   147    1
    48   146   145    1
    49   146   148    1
    50    48    46   ar
    51    48    49   ar
    52    27    26    1
    53    19    18    1
    54    19    25   am
    55    50    49    1
    56    92    91    1
    57    92    95    1
    58    86    91   am
    59    86    85    1
    60    46    44   ar
    61   104   103    2
    62    18    17    1
    63    18    21    1
    64    26    25    1
    65    26    29    1
    66    89    88    1
    67    22    24   am
    68    22    21    1
    69    49    47   ar
    70    85    88    1
    71    85    84    1
    72    88    90    1
    73   103   102    1
    74   136   135    2
    75    44    43    1
    76    44    45   ar
    77    47    45   ar
    78   102   101    1
    79   102   105    1
    80    43    40    1
    81   135   134    1
    82   106   105    1
    83    39    40    1
    84   105   107    1
    85    80    79    2
    86    40    41    1
    87   134   133    1
    88   134   137    1
    89    12    11    2
    90     4     3    2
    91    41    42    2
    92   137   138    1
    93    79    78    1
    94    11    10    1
    95    83    81    1
    96   138   140    1
    97   138   139    1
    98    78    81    1
    99    78    77    1
   100     3     2    1
   101     3     9   am
   102    10     9    1
   103    10    13    1
   104     7     5    1
   105    81    82    1
   106     2     5    1
   107     2     1    1
   108     5     6    1
   109    62    61    1
   110     6     8    1
   111    13    14    1
   112    14    15    1
   113    59    61   ar
   114    59    57   ar
   115    61    60   ar
   116    75    76   ar
   117    75    73   ar
   118    66    65    2
   119    54    53    2
   120    57    56   ar
   121    76    74   ar
   122    60    58   ar
   123    73    70   ar
   124    16    15    1
   125    65    64    1
   126    56    58   ar
   127    56    55    1
   128    53    52    1
   129    53    63   am
   130    74    72   ar
   131    64    63    1
   132    64    67    1
   133    70    72   ar
   134    70    68   ar
   135    52    55    1
   136    52    51    1
   137    72    71   ar
   138    67    68    1
   139    68    69   ar
   140    71    69   ar
