@<TRIPOS>MOLECULE
tmp/4di4A00.pdb
 109 107 0 0 0
SMALL
GASTEIGER

@<TRIPOS>ATOM
      1  N        -43.9560   -5.9970   54.1070 N.3   110  GLU110     -0.1245
      2  CA       -43.9210   -4.5480   54.2520 C.3   110  GLU110      0.1567
      3  C        -44.2380   -4.0800   55.6700 C.2   110  GLU110      0.2260
      4  O        -43.6380   -3.1190   56.1560 O.2   110  GLU110     -0.2867
      5  CB       -44.8740   -3.8900   53.2500 C.3   110  GLU110      0.0388
      6  CG       -44.9740   -2.3830   53.4010 C.3   110  GLU110      0.1160
      7  CD       -44.8560   -1.6620   52.0800 C.2   110  GLU110      0.3649
      8  OE1      -44.0860   -0.6770   52.0020 O.co2 110  GLU110     -0.2457
      9  OE2      -45.5310   -2.0870   51.1190 O.co2 110  GLU110     -0.2457
     10  N        -35.2350   -7.4290   44.5470 N.3   149  PRO149     -0.2102
     11  CA       -35.9790   -6.1690   44.6460 C.3   149  PRO149      0.1504
     12  C        -36.3470   -5.7940   46.0910 C.2   149  PRO149      0.2575
     13  O        -36.3950   -4.5960   46.3940 O.2   149  PRO149     -0.2718
     14  CB       -37.2240   -6.4330   43.8000 C.3   149  PRO149      0.0282
     15  CG       -36.8180   -7.5340   42.8550 C.3   149  PRO149      0.0208
     16  CD       -35.8640   -8.3900   43.6230 C.3   149  PRO149      0.0893
     17  N        -36.5740   -6.7860   46.9580 N.am  150  ASP150     -0.1974
     18  CA       -36.9340   -6.5280   48.3580 C.3   150  ASP150      0.1708
     19  C        -35.7860   -5.9280   49.1460 C.2   150  ASP150      0.2293
     20  O        -35.9890   -5.0970   50.0290 O.2   150  ASP150     -0.2864
     21  CB       -37.3790   -7.8090   49.0540 C.3   150  ASP150      0.1436
     22  CG       -38.5580   -8.4680   48.3710 C.2   150  ASP150      0.3671
     23  OD1      -38.8130   -8.1800   47.1740 O.co2 150  ASP150     -0.2456
     24  OD2      -39.2220   -9.2940   49.0340 O.co2 150  ASP150     -0.2456
     25  N        -33.3960   -4.0230   47.9450 N.3   152  VAL152     -0.1231
     26  CA       -33.3070   -2.6300   47.5400 C.3   152  VAL152      0.1692
     27  C        -34.3830   -1.8240   48.2530 C.2   152  VAL152      0.2592
     28  O        -34.1000   -0.8320   48.9330 O.2   152  VAL152     -0.2718
     29  CB       -33.4700   -2.4850   46.0190 C.3   152  VAL152      0.0266
     30  CG1      -33.0690   -1.0930   45.5640 C.3   152  VAL152      0.0020
     31  CG2      -32.6180   -3.5160   45.3170 C.3   152  VAL152      0.0020
     32  N        -35.6220   -2.2650   48.1160 N.am  153  HIS153     -0.1976
     33  CA       -36.7130   -1.5800   48.7810 C.3   153  HIS153      0.1656
     34  C        -36.4380   -1.3600   50.2890 C.2   153  HIS153      0.2291
     35  O        -36.6870   -0.2720   50.8290 O.2   153  HIS153     -0.2864
     36  CB       -38.0340   -2.3140   48.5560 C.3   153  HIS153      0.0771
     37  CG       -39.1920   -1.6660   49.2420 C.ar  153  HIS153      0.0820
     38  ND1      -39.8060   -0.5290   48.7540 N.ar  153  HIS153     -0.2267
     39  CD2      -39.8230   -1.9610   50.4030 C.ar  153  HIS153      0.1154
     40  CE1      -40.7690   -0.1660   49.5750 C.ar  153  HIS153      0.1986
     41  NE2      -40.7990   -1.0160   50.5900 N.ar  153  HIS153     -0.2212
     42  N        -33.9100    1.3600   50.7840 N.3   156  VAL156     -0.1231
     43  CA       -34.4650    2.6800   50.5240 C.3   156  VAL156      0.1692
     44  C        -35.3820    3.1060   51.6650 C.2   156  VAL156      0.2591
     45  O        -35.3960    4.2770   52.0620 O.2   156  VAL156     -0.2718
     46  CB       -35.1450    2.7820   49.1080 C.3   156  VAL156      0.0266
     47  CG1      -35.9460    4.0740   48.9430 C.3   156  VAL156      0.0020
     48  CG2      -34.0950    2.7110   48.0280 C.3   156  VAL156      0.0020
     49  N        -36.1240    2.1520   52.2170 N.am  157  MET157     -0.1979
     50  CA       -36.9960    2.4510   53.3440 C.3   157  MET157      0.1605
     51  C        -36.1620    2.9210   54.5600 C.2   157  MET157      0.2287
     52  O        -36.5990    3.7590   55.3500 O.2   157  MET157     -0.2864
     53  CB       -37.8460    1.2350   53.7130 C.3   157  MET157      0.0413
     54  CG       -38.9610    0.8670   52.7690 C.3   157  MET157      0.0598
     55  SD       -40.0790    2.1920   52.3160 S.3   157  MET157     -0.1393
     56  CE       -39.2740    2.8920   50.8730 C.3   157  MET157      0.0692
     57  N        -30.6300    7.9620   43.8530 N.3   181  PHE181     -0.1227
     58  CA       -31.3960    6.7480   43.6830 C.3   181  PHE181      0.1736
     59  C        -32.6930    6.9420   42.8760 C.2   181  PHE181      0.2595
     60  O        -33.0120    6.1330   42.0100 O.2   181  PHE181     -0.2718
     61  CB       -31.7150    6.0590   45.0380 C.3   181  PHE181      0.0547
     62  CG       -32.6050    4.8670   44.8710 C.ar  181  PHE181     -0.0202
     63  CD1      -32.0660    3.6140   44.6140 C.ar  181  PHE181     -0.0042
     64  CD2      -33.9820    5.0240   44.8190 C.ar  181  PHE181     -0.0042
     65  CE1      -32.8810    2.5310   44.3600 C.ar  181  PHE181     -0.0003
     66  CE2      -34.8070    3.9400   44.5680 C.ar  181  PHE181     -0.0003
     67  CZ       -34.2530    2.6900   44.3410 C.ar  181  PHE181     -0.0000
     68  N        -33.4590    7.9840   43.1810 N.am  182  TYR182     -0.1976
     69  CA       -34.8020    8.1450   42.6110 C.3   182  TYR182      0.1639
     70  C        -34.7220    8.4960   41.1520 C.2   182  TYR182      0.2290
     71  O        -35.6210    8.1850   40.3780 O.2   182  TYR182     -0.2864
     72  CB       -35.5720    9.2770   43.2960 C.3   182  TYR182      0.0560
     73  CG       -36.0470    8.9730   44.6870 C.ar  182  TYR182     -0.0198
     74  CD1      -36.5490    7.7170   45.0200 C.ar  182  TYR182     -0.0009
     75  CD2      -36.0020    9.9480   45.6710 C.ar  182  TYR182     -0.0009
     76  CE1      -36.9850    7.4460   46.2980 C.ar  182  TYR182      0.0417
     77  CE2      -36.4300    9.6850   46.9550 C.ar  182  TYR182      0.0417
     78  CZ       -36.9170    8.4350   47.2690 C.ar  182  TYR182      0.1957
     79  OH       -37.3370    8.2060   48.5650 O.3   182  TYR182     -0.2866
     80  N        -41.6030    2.6980   38.2020 N.3   188  SER188     -0.1202
     81  CA       -42.0440    1.3520   38.5800 C.3   188  SER188      0.2020
     82  C        -41.1210    0.6310   39.5810 C.2   188  SER188      0.2619
     83  O        -41.4570   -0.4420   40.0860 O.2   188  SER188     -0.2717
     84  CB       -42.2170    0.4890   37.3220 C.3   188  SER188      0.2103
     85  OG       -41.0190    0.4340   36.5610 O.3   188  SER188     -0.2182
     86  N        -39.9410    1.1900   39.8190 N.am  189  PHE189     -0.1961
     87  CA       -39.0210    0.6520   40.8230 C.3   189  PHE189      0.1771
     88  C        -39.0000    1.3860   42.1580 C.2   189  PHE189      0.2620
     89  O        -38.1060    1.1590   42.9790 O.2   189  PHE189     -0.2715
     90  CB       -37.6050    0.5470   40.2860 C.3   189  PHE189      0.0574
     91  CG       -36.8310   -0.5850   40.8800 C.ar  189  PHE189     -0.0200
     92  CD1      -37.3460   -1.8750   40.8550 C.ar  189  PHE189     -0.0042
     93  CD2      -35.5960   -0.3740   41.4530 C.ar  189  PHE189     -0.0042
     94  CE1      -36.6410   -2.9420   41.3840 C.ar  189  PHE189     -0.0003
     95  CE2      -34.8820   -1.4350   41.9800 C.ar  189  PHE189     -0.0003
     96  CZ       -35.4110   -2.7240   41.9480 C.ar  189  PHE189     -0.0000
     97  N        -39.9050    2.3430   42.3250 N.am  190  GLY190     -0.1954
     98  CA       -39.9210    3.1670   43.5200 C.3   190  GLY190      0.1869
     99  C        -39.1720    4.4700   43.3270 C.2   190  GLY190      0.2309
    100  O        -38.9490    5.2030   44.2810 O.2   190  GLY190     -0.2863
    101  N        -39.9250   12.5060   42.4880 N.3   195  LYS195     -0.1245
    102  CA       -39.3030   12.2100   43.7770 C.3   195  LYS195      0.1561
    103  C        -37.9080   12.7900   43.8270 C.2   195  LYS195      0.2260
    104  O        -37.5720   13.5230   44.7500 O.2   195  LYS195     -0.2867
    105  CB       -39.2430   10.7070   44.0580 C.3   195  LYS195      0.0271
    106  CG       -40.5130   10.1360   44.6710 C.3   195  LYS195      0.0035
    107  CD       -40.4730    8.6240   44.6230 C.3   195  LYS195      0.0206
    108  CE       -41.5700    8.0160   45.4690 C.3   195  LYS195      0.1093
    109  NZ       -41.0790    6.8130   46.2180 N.3   195  LYS195     -0.1314
@<TRIPOS>BOND
     1    85    84    1
     2    84    81    1
     3    80    81    1
     4    81    82    1
     5    82    86   am
     6    82    83    2
     7    86    87    1
     8    90    87    1
     9    90    91    1
    10    71    70    2
    11    87    88    1
    12    92    91   ar
    13    92    94   ar
    14    91    93   ar
    15    70    69    1
    16    94    96   ar
    17    93    95   ar
    18    96    95   ar
    19    60    59    2
    20    88    97   am
    21    88    89    2
    22    97    98    1
    23   101   102    1
    24    69    68    1
    25    69    72    1
    26    15    16    1
    27    15    14    1
    28    59    68   am
    29    59    58    1
    30    72    73    1
    31    99    98    1
    32    99   100    2
    33    16    10    1
    34    58    57    1
    35    58    61    1
    36   102   103    1
    37   102   105    1
    38    14    11    1
    39   103   104    2
    40   105   106    1
    41    67    65   ar
    42    67    66   ar
    43    65    63   ar
    44    10    11    1
    45    66    64   ar
    46    63    62   ar
    47   107   106    1
    48   107   108    1
    49    11    12    1
    50    73    74   ar
    51    73    75   ar
    52    64    62   ar
    53    62    61    1
    54    74    76   ar
    55    31    29    1
    56   108   109    1
    57    30    29    1
    58    75    77   ar
    59    29    26    1
    60    12    13    2
    61    12    17   am
    62    76    78   ar
    63    77    78   ar
    64    17    18    1
    65    23    22   ar
    66    78    79    1
    67    26    25    1
    68    26    27    1
    69    48    46    1
    70    32    27   am
    71    32    33    1
    72    27    28    2
    73    18    21    1
    74    18    19    1
    75    22    24   ar
    76    22    21    1
    77    36    33    1
    78    36    37    1
    79    38    37   ar
    80    38    40   ar
    81    33    34    1
    82    47    46    1
    83    46    43    1
    84    19    20    2
    85    37    39   ar
    86    40    41   ar
    87    34    35    2
    88    39    41   ar
    89    43    42    1
    90    43    44    1
    91    56    55    1
    92     9     7   ar
    93    44    45    2
    94    44    49   am
    95     8     7   ar
    96     7     6    1
    97    49    50    1
    98    55    54    1
    99    54    53    1
   100     5     6    1
   101     5     2    1
   102    50    53    1
   103    50    51    1
   104     1     2    1
   105     2     3    1
   106    51    52    2
   107     3     4    2
