@<TRIPOS>MOLECULE
tmp/4di8B01.pdb
 145 138 0 0 0
SMALL
GASTEIGER

@<TRIPOS>ATOM
      1  N         20.2290  -14.9370  -33.6130 N.3    30  HIS30      -0.1241
      2  CA        20.6360  -15.2660  -34.9760 C.3    30  HIS30       0.1621
      3  C         21.0840  -16.7110  -35.0660 C.2    30  HIS30       0.2264
      4  O         22.2240  -17.0350  -34.7300 O.2    30  HIS30      -0.2867
      5  CB        21.7540  -14.3340  -35.4790 C.3    30  HIS30       0.0745
      6  CG        22.0400  -14.4820  -36.9410 C.ar   30  HIS30       0.0817
      7  ND1       21.3760  -13.7460  -37.9030 N.ar   30  HIS30      -0.2268
      8  CD2       22.9000  -15.2870  -37.6080 C.ar   30  HIS30       0.1154
      9  CE1       21.8210  -14.0850  -39.1010 C.ar   30  HIS30       0.1986
     10  NE2       22.7410  -15.0240  -38.9520 N.ar   30  HIS30      -0.2212
     11  N         19.8660  -20.7230  -37.2850 N.3    32  HIS32      -0.1241
     12  CA        19.1140  -21.2840  -38.3820 C.3    32  HIS32       0.1621
     13  C         18.7860  -22.7410  -38.1070 C.2    32  HIS32       0.2264
     14  O         19.4260  -23.3910  -37.2730 O.2    32  HIS32      -0.2867
     15  CB        19.9120  -21.2510  -39.6870 C.3    32  HIS32       0.0745
     16  CG        20.6160  -19.9620  -39.9700 C.ar   32  HIS32       0.0817
     17  ND1       19.9810  -18.8690  -40.5180 N.ar   32  HIS32      -0.2268
     18  CD2       21.9200  -19.6170  -39.8440 C.ar   32  HIS32       0.1154
     19  CE1       20.8590  -17.8940  -40.6890 C.ar   32  HIS32       0.1986
     20  NE2       22.0430  -18.3220  -40.2870 N.ar   32  HIS32      -0.2212
     21  N         24.5730  -23.5900  -51.4440 N.3    48  TYR48      -0.1241
     22  CA        25.2050  -24.6090  -50.6170 C.3    48  TYR48       0.1605
     23  C         24.1230  -25.5800  -50.1750 C.2    48  TYR48       0.2264
     24  O         22.9550  -25.2050  -50.0180 O.2    48  TYR48      -0.2867
     25  CB        25.9380  -23.9990  -49.4120 C.3    48  TYR48       0.0534
     26  CG        25.0440  -23.3030  -48.4200 C.ar   48  TYR48      -0.0201
     27  CD1       24.6190  -21.9920  -48.6400 C.ar   48  TYR48      -0.0009
     28  CD2       24.6130  -23.9530  -47.2580 C.ar   48  TYR48      -0.0009
     29  CE1       23.7950  -21.3430  -47.7400 C.ar   48  TYR48       0.0417
     30  CE2       23.7800  -23.3040  -46.3470 C.ar   48  TYR48       0.0417
     31  CZ        23.3860  -21.9960  -46.5990 C.ar   48  TYR48       0.1957
     32  OH        22.5560  -21.3350  -45.7270 O.3    48  TYR48      -0.2866
     33  N         17.3200  -19.5240  -43.6520 N.3    75  ALA75      -0.1231
     34  CA        18.6180  -19.6890  -44.2930 C.3    75  ALA75       0.1694
     35  C         18.4740  -19.6360  -45.8150 C.2    75  ALA75       0.2592
     36  O         17.4680  -20.1110  -46.3600 O.2    75  ALA75      -0.2718
     37  CB        19.2630  -21.0150  -43.8480 C.3    75  ALA75       0.0304
     38  N         19.4630  -19.0530  -46.4970 N.am   76  SER76      -0.1952
     39  CA        19.4160  -18.9020  -47.9710 C.3    76  SER76       0.1924
     40  C         19.3340  -20.2240  -48.7510 C.2    76  SER76       0.2314
     41  O         18.8780  -20.2430  -49.9080 O.2    76  SER76      -0.2863
     42  CB        20.5840  -18.0490  -48.4860 C.3    76  SER76       0.2116
     43  OG        21.8070  -18.7450  -48.4000 O.3    76  SER76      -0.2180
     44  N         14.1530  -10.8540  -44.4370 N.3   123  ARG123     -0.1245
     45  CA        15.5780  -10.6660  -44.6250 C.3   123  ARG123      0.1563
     46  C         15.9290  -10.3640  -46.0780 C.2   123  ARG123      0.2260
     47  O         15.4300  -11.0200  -47.0010 O.2   123  ARG123     -0.2867
     48  CB        16.3520  -11.8880  -44.1230 C.3   123  ARG123      0.0307
     49  CG        17.8670  -11.7070  -44.0920 C.3   123  ARG123      0.0489
     50  CD        18.4980  -12.9440  -43.4710 C.3   123  ARG123      0.2205
     51  NE        19.9080  -12.7870  -43.1040 N.pl3 123  ARG123     -0.0865
     52  CZ        20.8010  -13.7680  -43.2220 C.cat 123  ARG123      0.5346
     53  NH1       22.0560  -13.5820  -42.8490 N.pl3 123  ARG123      0.1354
     54  NH2       20.4340  -14.9440  -43.7230 N.pl3 123  ARG123      0.1354
     55  N         19.2180  -10.1580  -48.4860 N.3   125  ASN125     -0.1240
     56  CA        20.5890  -10.6740  -48.5250 C.3   125  ASN125      0.1653
     57  C         21.2990  -10.1700  -49.7800 C.2   125  ASN125      0.2266
     58  O         20.9570  -10.5740  -50.9010 O.2   125  ASN125     -0.2867
     59  CB        20.5670  -12.2100  -48.5020 C.3   125  ASN125      0.1155
     60  CG        21.9390  -12.8170  -48.2850 C.2   125  ASN125      0.2627
     61  OD1       22.9670  -12.1950  -48.5550 O.2   125  ASN125     -0.2716
     62  ND2       21.9590  -14.0460  -47.7710 N.am  125  ASN125     -0.0877
     63  N         27.4420  -14.2850  -53.3430 N.3   129  ARG129     -0.1231
     64  CA        27.8410  -15.6870  -53.1470 C.3   129  ARG129      0.1694
     65  C         26.7410  -16.5310  -52.5050 C.2   129  ARG129      0.2591
     66  O         26.8510  -17.7610  -52.4460 O.2   129  ARG129     -0.2718
     67  CB        29.1620  -15.8060  -52.3610 C.3   129  ARG129      0.0321
     68  CG        29.0960  -15.3920  -50.8850 C.3   129  ARG129      0.0489
     69  CD        30.4050  -15.7250  -50.1470 C.3   129  ARG129      0.2205
     70  NE        30.4340  -15.1460  -48.7990 N.pl3 129  ARG129     -0.0865
     71  CZ        29.8180  -15.6650  -47.7360 C.cat 129  ARG129      0.5346
     72  NH1       29.1160  -16.8030  -47.8280 N.pl3 129  ARG129      0.1354
     73  NH2       29.9260  -15.0520  -46.5650 N.pl3 129  ARG129      0.1354
     74  N         25.6830  -15.8610  -52.0350 N.am  130  LEU130     -0.1980
     75  CA        24.5530  -16.5260  -51.3950 C.3   130  LEU130      0.1596
     76  C         23.2670  -16.4250  -52.2070 C.2   130  LEU130      0.2287
     77  O         22.5300  -17.4080  -52.3130 O.2   130  LEU130     -0.2864
     78  CB        24.3170  -15.9630  -49.9800 C.3   130  LEU130      0.0297
     79  CG        25.4540  -16.1230  -48.9680 C.3   130  LEU130      0.0022
     80  CD1       25.1530  -15.3300  -47.6970 C.3   130  LEU130      0.0001
     81  CD2       25.6850  -17.6060  -48.5980 C.3   130  LEU130      0.0001
     82  N         21.6620   -8.0990  -44.7290 N.3   155  TYR155     -0.1241
     83  CA        23.0060   -8.6650  -44.7560 C.3   155  TYR155      0.1605
     84  C         23.7580   -8.1130  -45.9630 C.2   155  TYR155      0.2264
     85  O         23.3390   -8.3040  -47.1010 O.2   155  TYR155     -0.2867
     86  CB        22.9130  -10.1890  -44.8550 C.3   155  TYR155      0.0534
     87  CG        24.1890  -10.9570  -44.5980 C.ar  155  TYR155     -0.0201
     88  CD1       25.2670  -10.3750  -43.9270 C.ar  155  TYR155     -0.0009
     89  CD2       24.3020  -12.2970  -45.0030 C.ar  155  TYR155     -0.0009
     90  CE1       26.4410  -11.1010  -43.6830 C.ar  155  TYR155      0.0417
     91  CE2       25.4550  -13.0320  -44.7440 C.ar  155  TYR155      0.0417
     92  CZ        26.5240  -12.4220  -44.0910 C.ar  155  TYR155      0.1957
     93  OH        27.6660  -13.1340  -43.8110 O.3   155  TYR155     -0.2866
     94  N         25.7070   -9.1060  -38.5860 N.3   179  HIS179     -0.1241
     95  CA        27.1750   -9.1530  -38.4220 C.3   179  HIS179      0.1621
     96  C         27.8530   -7.8080  -38.6770 C.2   179  HIS179      0.2264
     97  O         28.9700   -7.7740  -39.1840 O.2   179  HIS179     -0.2867
     98  CB        27.7760  -10.2480  -39.3180 C.3   179  HIS179      0.0745
     99  CG        26.9360  -11.4810  -39.3860 C.ar  179  HIS179      0.0817
    100  ND1       26.2400  -11.9620  -38.2990 N.ar  179  HIS179     -0.2268
    101  CD2       26.6860  -12.3370  -40.4060 C.ar  179  HIS179      0.1154
    102  CE1       25.5740  -13.0480  -38.6540 C.ar  179  HIS179      0.1986
    103  NE2       25.8410  -13.3040  -39.9220 N.ar  179  HIS179     -0.2212
    104  N         29.7600   -6.8280  -41.8440 N.3   182  ARG182     -0.1245
    105  CA        31.0670   -7.4720  -42.0320 C.3   182  ARG182      0.1563
    106  C         32.2750   -6.5330  -42.0620 C.2   182  ARG182      0.2260
    107  O         33.0690   -6.5860  -43.0030 O.2   182  ARG182     -0.2867
    108  CB        31.0530   -8.3830  -43.2720 C.3   182  ARG182      0.0307
    109  CG        29.9880   -9.4670  -43.1980 C.3   182  ARG182      0.0489
    110  CD        30.0940  -10.4330  -44.3680 C.3   182  ARG182      0.2205
    111  NE        31.3850  -11.1340  -44.3610 N.pl3 182  ARG182     -0.0865
    112  CZ        31.5430  -12.4310  -44.1040 C.cat 182  ARG182      0.5346
    113  NH1       30.4920  -13.2060  -43.8130 N.pl3 182  ARG182      0.1354
    114  NH2       32.7670  -12.9560  -44.1210 N.pl3 182  ARG182      0.1354
    115  N         33.5050  -15.6050  -38.5810 N.3   216  ARG216     -0.1245
    116  CA        33.4470  -15.0790  -39.9540 C.3   216  ARG216      0.1563
    117  C         34.3730  -13.8960  -40.1850 C.2   216  ARG216      0.2260
    118  O         34.9510  -13.7620  -41.2610 O.2   216  ARG216     -0.2867
    119  CB        32.0170  -14.6640  -40.3440 C.3   216  ARG216      0.0307
    120  CG        30.9680  -15.7770  -40.1510 C.3   216  ARG216      0.0489
    121  CD        29.6000  -15.4130  -40.7660 C.3   216  ARG216      0.2205
    122  NE        28.6930  -16.5080  -40.4600 N.pl3 216  ARG216     -0.0865
    123  CZ        28.5330  -17.5820  -41.2330 C.cat 216  ARG216      0.5346
    124  NH1       29.1670  -17.6710  -42.4010 N.pl3 216  ARG216      0.1354
    125  NH2       27.7220  -18.5640  -40.8470 N.pl3 216  ARG216      0.1354
    126  N         24.8680  -17.7730  -34.5250 N.3   247  ALA247     -0.1245
    127  CA        24.9050  -18.0700  -35.9680 C.3   247  ALA247      0.1562
    128  C         24.9800  -19.5710  -36.2650 C.2   247  ALA247      0.2260
    129  O         25.2350  -19.9740  -37.4090 O.2   247  ALA247     -0.2867
    130  CB        26.0380  -17.3020  -36.6740 C.3   247  ALA247      0.0290
    131  N         26.3700  -21.7830  -41.4840 N.3   251  PRO251     -0.2102
    132  CA        26.4470  -22.0680  -42.9280 C.3   251  PRO251      0.1504
    133  C         27.7270  -21.4900  -43.5490 C.2   251  PRO251      0.2575
    134  O         28.1240  -20.3580  -43.2360 O.2   251  PRO251     -0.2718
    135  CB        25.1950  -21.3800  -43.4990 C.3   251  PRO251      0.0282
    136  CG        24.7700  -20.3800  -42.4440 C.3   251  PRO251      0.0208
    137  CD        25.1330  -21.0490  -41.1380 C.3   251  PRO251      0.0893
    138  N         28.3800  -22.2990  -44.3830 N.am  252  ASN252     -0.1975
    139  CA        29.5800  -21.8980  -45.1340 C.3   252  ASN252      0.1688
    140  C         30.8650  -21.7990  -44.3280 C.2   252  ASN252      0.2292
    141  O         31.8990  -21.3460  -44.8430 O.2   252  ASN252     -0.2864
    142  CB        29.3130  -20.6340  -45.9660 C.3   252  ASN252      0.1181
    143  CG        28.1710  -20.8360  -46.9240 C.2   252  ASN252      0.2629
    144  OD1       28.2390  -21.7160  -47.8000 O.2   252  ASN252     -0.2716
    145  ND2       27.0910  -20.0650  -46.7490 N.am  252  ASN252     -0.0877
@<TRIPOS>BOND
     1    63    64    1
     2    64    65    1
     3    64    67    1
     4    65    66    2
     5    65    74   am
     6    67    68    1
     7    77    76    2
     8    76    75    1
     9    74    75    1
    10    21    22    1
    11    75    78    1
    12    58    57    2
    13    68    69    1
    14    22    23    1
    15    22    25    1
    16    23    24    2
    17    69    70    1
    18    78    79    1
    19    41    40    2
    20    57    56    1
    21    25    26    1
    22    79    81    1
    23    79    80    1
    24    70    71    2
    25    40    39    1
    26    27    26   ar
    27    27    29   ar
    28    61    60    2
    29    56    59    1
    30    56    55    1
    31    59    60    1
    32    42    43    1
    33    42    39    1
    34    26    28   ar
    35    60    62   am
    36    39    38    1
    37    72    71    1
    38   144   143    2
    39    29    31   ar
    40    71    73    1
    41    28    30   ar
    42    85    84    2
    43    47    46    2
    44   143   145   am
    45   143   142    1
    46    31    30   ar
    47    31    32    1
    48    38    35   am
    49    36    35    2
    50    46    45    1
    51   142   139    1
    52    84    83    1
    53    35    34    1
    54   139   138    1
    55   139   140    1
    56    89    91   ar
    57    89    87   ar
    58    86    83    1
    59    86    87    1
    60   141   140    2
    61    83    82    1
    62    91    92   ar
    63    45    44    1
    64    45    48    1
    65    87    88   ar
    66   138   133   am
    67   110   111    1
    68   110   109    1
    69   111   112    2
    70    34    37    1
    71    34    33    1
    72    48    49    1
    73   114   112    1
    74   112   113    1
    75    49    50    1
    76    92    93    1
    77    92    90   ar
    78    88    90   ar
    79    54    52    1
    80   133   134    2
    81   133   132    1
    82   135   132    1
    83   135   136    1
    84    50    51    1
    85   108   109    1
    86   108   105    1
    87    52    51    2
    88    52    53    1
    89   107   106    2
    90   132   131    1
    91   136   137    1
    92   124   123    1
    93   106   105    1
    94   105   104    1
    95   131   137    1
    96   118   117    2
    97   123   125    1
    98   123   122    2
    99   121   122    1
   100   121   120    1
   101    19    17   ar
   102    19    20   ar
   103    17    16   ar
   104   101   103   ar
   105   101    99   ar
   106   119   120    1
   107   119   116    1
   108    20    18   ar
   109   117   116    1
   110    16    18   ar
   111    16    15    1
   112   116   115    1
   113   103   102   ar
   114    15    12    1
   115    99    98    1
   116    99   100   ar
   117    98    95    1
   118    97    96    2
   119     9    10   ar
   120     9     7   ar
   121    10     8   ar
   122    96    95    1
   123   102   100   ar
   124    94    95    1
   125    12    13    1
   126    12    11    1
   127    13    14    2
   128     7     6   ar
   129     8     6   ar
   130   129   128    2
   131     6     5    1
   132   130   127    1
   133   128   127    1
   134   127   126    1
   135     5     2    1
   136     3     2    1
   137     3     4    2
   138     2     1    1
