@<TRIPOS>MOLECULE
tmp/4dieC00.pdb
 186 174 0 0 0
SMALL
GASTEIGER

@<TRIPOS>ATOM
      1  N        -24.9060   22.4890  -32.8040 N.3    10  SER10      -0.1217
      2  CA       -25.0570   22.1360  -34.1900 C.3    10  SER10       0.1889
      3  C        -26.5430   22.0570  -34.6100 C.2    10  SER10       0.2288
      4  O        -27.4410   21.9570  -33.7730 O.2    10  SER10      -0.2866
      5  CB       -24.3200   20.8170  -34.4030 C.3    10  SER10       0.2089
      6  OG       -24.2170   20.5270  -35.7800 O.3    10  SER10      -0.2183
      7  N        -25.8240   27.6270  -38.1510 N.3    14  LYS14      -0.1231
      8  CA       -24.7950   28.5490  -37.6630 C.3    14  LYS14       0.1693
      9  C        -23.7680   28.9280  -38.7200 C.2    14  LYS14       0.2592
     10  O        -23.4950   30.1110  -38.9280 O.2    14  LYS14      -0.2718
     11  CB       -24.0850   27.9110  -36.4800 C.3    14  LYS14       0.0285
     12  CG       -22.9830   28.7330  -35.8450 C.3    14  LYS14       0.0035
     13  CD       -22.6200   28.1690  -34.4680 C.3    14  LYS14       0.0206
     14  CE       -21.8820   26.8480  -34.5590 C.3    14  LYS14       0.1093
     15  NZ       -20.5070   27.1770  -35.0010 N.3    14  LYS14      -0.1314
     16  N        -23.2230   27.9320  -39.4110 N.am   15  SER15      -0.1952
     17  CA       -22.1950   28.2170  -40.3840 C.3    15  SER15       0.1924
     18  C        -22.6730   29.0700  -41.5590 C.2    15  SER15       0.2314
     19  O        -21.9840   30.0150  -41.9500 O.2    15  SER15      -0.2863
     20  CB       -21.5350   26.9410  -40.8600 C.3    15  SER15       0.2116
     21  OG       -20.6520   26.4670  -39.8460 O.3    15  SER15      -0.2180
     22  N        -14.0110   29.5520  -40.0860 N.3    31  ASP31      -0.1225
     23  CA       -14.7610   28.3540  -39.6970 C.3    31  ASP31       0.1805
     24  C        -13.8590   27.4570  -38.8060 C.2    31  ASP31       0.2598
     25  O        -13.0790   26.6530  -39.3090 O.2    31  ASP31      -0.2718
     26  CB       -15.2280   27.6510  -40.9780 C.3    31  ASP31       0.1424
     27  CG       -15.9140   26.3340  -40.7270 C.2    31  ASP31       0.3668
     28  OD1      -16.3840   25.7230  -41.7250 O.co2  31  ASP31      -0.2456
     29  OD2      -15.9660   25.8600  -39.5510 O.co2  31  ASP31      -0.2456
     30  N        -13.9670   27.6100  -37.4910 N.am   32  THR32      -0.1939
     31  CA       -13.0810   26.8950  -36.5730 C.3    32  THR32       0.2028
     32  C        -13.3710   25.3730  -36.4940 C.2    32  THR32       0.2643
     33  O        -12.4570   24.5710  -36.2920 O.2    32  THR32      -0.2714
     34  CB       -13.1050   27.4650  -35.1450 C.3    32  THR32       0.1808
     35  OG1      -14.4220   27.3120  -34.6020 O.3    32  THR32      -0.2208
     36  CG2      -12.6300   28.9250  -35.0830 C.3    32  THR32       0.0379
     37  N        -14.6310   24.9810  -36.6600 N.am   33  GLY33      -0.1939
     38  CA       -14.9850   23.5830  -36.6520 C.3    33  GLY33       0.2014
     39  C        -14.2650   22.8720  -37.7660 C.2    33  GLY33       0.2638
     40  O        -13.9220   21.6840  -37.6570 O.2    33  GLY33      -0.2714
     41  N        -14.0330   23.5900  -38.8550 N.am   34  ALA34      -0.1977
     42  CA       -13.3770   22.9930  -39.9830 C.3    34  ALA34       0.1597
     43  C        -11.9420   22.6870  -39.5810 C.2    34  ALA34       0.2287
     44  O        -11.3950   21.6500  -39.9710 O.2    34  ALA34      -0.2864
     45  CB       -13.4400   23.9200  -41.1850 C.3    34  ALA34       0.0319
     46  N        -10.7310   21.7750  -36.5870 N.3    36  TYR36      -0.1227
     47  CA       -10.7690   20.5350  -35.7980 C.3    36  TYR36       0.1736
     48  C        -11.0250   19.3470  -36.6860 C.2    36  TYR36       0.2595
     49  O        -10.4270   18.2800  -36.4930 O.2    36  TYR36      -0.2718
     50  CB       -11.8340   20.6040  -34.6860 C.3    36  TYR36       0.0548
     51  CG       -11.4400   21.5020  -33.5280 C.ar   36  TYR36      -0.0200
     52  CD1      -11.8370   22.8320  -33.4660 C.ar   36  TYR36      -0.0009
     53  CD2      -10.6360   21.0190  -32.5180 C.ar   36  TYR36      -0.0009
     54  CE1      -11.4540   23.6340  -32.4010 C.ar   36  TYR36       0.0417
     55  CE2      -10.2270   21.8150  -31.4660 C.ar   36  TYR36       0.0417
     56  CZ       -10.6430   23.1140  -31.4070 C.ar   36  TYR36       0.1957
     57  OH       -10.2230   23.8760  -30.3530 O.3    36  TYR36      -0.2866
     58  N        -11.8890   19.5230  -37.6790 N.am   37  ARG37      -0.1980
     59  CA       -12.1630   18.4240  -38.6110 C.3    37  ARG37       0.1597
     60  C        -10.9270   18.0690  -39.4440 C.2    37  ARG37       0.2287
     61  O        -10.7200   16.9070  -39.7590 O.2    37  ARG37      -0.2864
     62  CB       -13.3510   18.7560  -39.5180 C.3    37  ARG37       0.0334
     63  CG       -14.7050   18.7200  -38.8170 C.3    37  ARG37       0.0492
     64  CD       -15.8120   19.3840  -39.6430 C.3    37  ARG37       0.2205
     65  NE       -17.1020   19.1680  -39.0350 N.pl3  37  ARG37      -0.0865
     66  CZ       -17.7450   18.0060  -39.0450 C.cat  37  ARG37       0.5346
     67  NH1      -17.2340   16.9400  -39.6430 N.pl3  37  ARG37       0.1354
     68  NH2      -18.9130   17.9000  -38.4410 N.pl3  37  ARG37       0.1354
     69  N        -16.1250   16.6780  -44.1210 N.3    88  ARG88      -0.1245
     70  CA       -17.5530   16.6870  -43.7880 C.3    88  ARG88       0.1563
     71  C        -18.1610   15.2950  -43.7500 C.2    88  ARG88       0.2260
     72  O        -19.3420   15.1650  -43.4430 O.2    88  ARG88      -0.2867
     73  CB       -18.3550   17.5230  -44.7820 C.3    88  ARG88       0.0307
     74  CG       -17.8910   18.9650  -44.9080 C.3    88  ARG88       0.0489
     75  CD       -18.0580   19.7800  -43.6350 C.3    88  ARG88       0.2205
     76  NE       -17.3500   21.0650  -43.7380 N.pl3  88  ARG88      -0.0865
     77  CZ       -17.2340   21.9500  -42.7530 C.cat  88  ARG88       0.5346
     78  NH1      -17.7870   21.7330  -41.5560 N.pl3  88  ARG88       0.1354
     79  NH2      -16.5670   23.0750  -42.9680 N.pl3  88  ARG88       0.1354
     80  N        -14.2990   13.4140  -34.5900 N.3    96  VAL96      -0.1231
     81  CA       -13.7990   14.7760  -34.2960 C.3    96  VAL96       0.1692
     82  C        -13.8090   15.1190  -32.8050 C.2    96  VAL96       0.2592
     83  O        -12.9420   15.8370  -32.3620 O.2    96  VAL96      -0.2718
     84  CB       -14.5230   15.9030  -35.0910 C.3    96  VAL96       0.0266
     85  CG1      -16.0090   16.0070  -34.7040 C.3    96  VAL96       0.0020
     86  CG2      -13.7570   17.2240  -34.9250 C.3    96  VAL96       0.0020
     87  N        -14.7590   14.5910  -32.0400 N.am   97  SER97      -0.1952
     88  CA       -14.7850   14.8400  -30.6060 C.3    97  SER97       0.1924
     89  C        -13.7100   14.1080  -29.8460 C.2    97  SER97       0.2314
     90  O        -13.2760   14.5900  -28.8020 O.2    97  SER97      -0.2863
     91  CB       -16.1330   14.4850  -30.0150 C.3    97  SER97       0.2116
     92  OG       -17.1020   15.4290  -30.4290 O.3    97  SER97      -0.2180
     93  N        -10.7880   16.5850  -30.6830 N.3   100  SER100     -0.1217
     94  CA       -11.0420   17.8700  -30.0540 C.3   100  SER100      0.1889
     95  C        -10.8540   17.8950  -28.5430 C.2   100  SER100      0.2288
     96  O        -10.6260   18.9400  -27.9730 O.2   100  SER100     -0.2866
     97  CB       -12.4530   18.2980  -30.3620 C.3   100  SER100      0.2089
     98  OG       -12.5080   18.5670  -31.7240 O.3   100  SER100     -0.2183
     99  N         -6.2280   21.3370  -28.7780 N.3   106  ARG106     -0.1245
    100  CA        -6.9220   22.6230  -28.6240 C.3   106  ARG106      0.1563
    101  C         -5.9250   23.7670  -28.5010 C.2   106  ARG106      0.2260
    102  O         -6.0810   24.8240  -29.1090 O.2   106  ARG106     -0.2867
    103  CB        -7.8150   22.6230  -27.3870 C.3   106  ARG106      0.0307
    104  CG        -8.8770   21.5450  -27.4000 C.3   106  ARG106      0.0489
    105  CD        -9.9720   21.8200  -26.3900 C.3   106  ARG106      0.2205
    106  NE       -10.8900   22.8530  -26.8660 N.pl3 106  ARG106     -0.0865
    107  CZ       -11.7760   22.6980  -27.8500 C.cat 106  ARG106      0.5346
    108  NH1      -11.8830   21.5430  -28.4980 N.pl3 106  ARG106      0.1354
    109  NH2      -12.5600   23.7040  -28.1980 N.pl3 106  ARG106      0.1354
    110  N         -6.1050   30.0770  -34.1960 N.3   113  GLN113     -0.1245
    111  CA        -7.3480   30.8410  -34.3470 C.3   113  GLN113      0.1566
    112  C         -7.1870   32.3150  -33.9630 C.2   113  GLN113      0.2260
    113  O         -7.6370   33.1930  -34.6880 O.2   113  GLN113     -0.2867
    114  CB        -8.4870   30.1680  -33.5580 C.3   113  GLN113      0.0367
    115  CG        -9.1540   29.0500  -34.3630 C.3   113  GLN113      0.0905
    116  CD        -9.7320   27.9250  -33.5150 C.2   113  GLN113      0.2608
    117  OE1      -10.0980   28.1180  -32.3720 O.2   113  GLN113     -0.2717
    118  NE2       -9.8290   26.7420  -34.0980 N.am  113  GLN113     -0.0878
    119  N        -16.4260   31.7350  -36.1770 N.3   126  GLU126     -0.1230
    120  CA       -17.4790   30.8230  -35.8070 C.3   126  GLU126      0.1702
    121  C        -16.9430   29.5800  -35.0720 C.2   126  GLU126      0.2632
    122  O        -15.9030   29.0430  -35.4450 O.2   126  GLU126     -0.2714
    123  CB       -18.1850   30.3630  -37.0730 C.3   126  GLU126      0.0402
    124  CG       -19.2480   29.3270  -36.8060 C.3   126  GLU126      0.1161
    125  CD       -19.3720   28.2830  -37.8800 C.2   126  GLU126      0.3649
    126  OE1      -18.6140   28.3450  -38.8640 O.co2 126  GLU126     -0.2457
    127  OE2      -20.2580   27.3940  -37.7370 O.co2 126  GLU126     -0.2457
    128  N        -17.6770   29.1060  -34.0570 N.am  127  GLY127     -0.1718
    129  CA       -17.3530   27.8460  -33.3970 C.2   127  GLY127      0.1480
    130  C        -18.2450   27.4780  -32.2240 C.2   127  GLY127      0.2820
    131  O        -19.4730   27.5990  -32.3010 O.2   127  GLY127     -0.2669
    132  N        -17.6170   27.0300  -31.1360 N.am  128  ARG128     -0.1929
    133  CA       -18.3150   26.7170  -29.8800 C.3   128  ARG128      0.1732
    134  C        -17.7550   27.4490  -28.6530 C.2   128  ARG128      0.2616
    135  O        -18.5100   27.7250  -27.7220 O.2   128  ARG128     -0.2715
    136  CB       -18.2950   25.2120  -29.6170 C.3   128  ARG128      0.0348
    137  CG       -18.5830   24.3970  -30.8510 C.3   128  ARG128      0.0492
    138  CD       -18.5730   22.9040  -30.5880 C.3   128  ARG128      0.2205
    139  NE       -19.9340   22.3560  -30.5530 N.pl3 128  ARG128     -0.0865
    140  CZ       -20.4370   21.5410  -29.6240 C.cat 128  ARG128      0.5346
    141  NH1      -19.7160   21.1300  -28.5790 N.pl3 128  ARG128      0.1354
    142  NH2      -21.7010   21.1330  -29.7510 N.pl3 128  ARG128      0.1354
    143  N        -16.4540   27.7440  -28.6300 N.am  129  ASP129     -0.1957
    144  CA       -15.8450   28.4170  -27.4820 C.3   129  ASP129      0.1840
    145  C        -15.1820   29.7230  -27.8970 C.2   129  ASP129      0.2621
    146  O        -14.2650   30.2180  -27.2290 O.2   129  ASP129     -0.2715
    147  CB       -14.8460   27.5020  -26.7630 C.3   129  ASP129      0.1450
    148  CG       -13.6910   27.0300  -27.6600 C.2   129  ASP129      0.3671
    149  OD1      -13.6930   27.2880  -28.8900 O.co2 129  ASP129     -0.2456
    150  OD2      -12.7600   26.3840  -27.1080 O.co2 129  ASP129     -0.2456
    151  N        -15.6590   30.3090  -28.9830 N.am  130  ILE130     -0.1977
    152  CA       -15.0230   31.5150  -29.4740 C.3   130  ILE130      0.1596
    153  C        -15.1720   32.6700  -28.4880 C.2   130  ILE130      0.2287
    154  O        -14.1930   33.3270  -28.1230 O.2   130  ILE130     -0.2864
    155  CB       -15.5630   31.9280  -30.8360 C.3   130  ILE130      0.0276
    156  CG1      -15.3800   30.7980  -31.8640 C.3   130  ILE130      0.0022
    157  CG2      -14.8530   33.1740  -31.2890 C.3   130  ILE130      0.0022
    158  CD1      -14.0020   30.1720  -31.8750 C.3   130  ILE130      0.0001
    159  N        -27.4170   14.3440  -26.6830 N.3   171  ARG171     -0.1245
    160  CA       -26.2040   15.1100  -26.9970 C.3   171  ARG171      0.1563
    161  C        -26.1380   16.4640  -26.2720 C.2   171  ARG171      0.2260
    162  O        -25.0470   16.9600  -25.9900 O.2   171  ARG171     -0.2867
    163  CB       -26.0550   15.3110  -28.5160 C.3   171  ARG171      0.0307
    164  CG       -25.4040   14.0440  -29.1200 C.3   171  ARG171      0.0489
    165  CD       -25.3560   14.2040  -30.6420 C.3   171  ARG171      0.2205
    166  NE       -24.4890   15.3610  -30.9850 N.pl3 171  ARG171     -0.0865
    167  CZ       -24.9870   16.5280  -31.4650 C.cat 171  ARG171      0.5346
    168  NH1      -26.2720   16.6840  -31.7400 N.pl3 171  ARG171      0.1354
    169  NH2      -24.0130   17.4560  -31.6850 N.pl3 171  ARG171      0.1354
    170  N        -19.4190   18.1190  -20.5300 N.3   178  ARG178     -0.1245
    171  CA       -18.1250   17.6230  -21.0570 C.3   178  ARG178      0.1563
    172  C        -16.9310   18.3240  -20.3890 C.2   178  ARG178      0.2260
    173  O        -16.9800   19.5200  -20.1070 O.2   178  ARG178     -0.2867
    174  CB       -18.0610   17.7540  -22.5930 C.3   178  ARG178      0.0307
    175  CG       -16.6950   17.4480  -23.1810 C.3   178  ARG178      0.0489
    176  CD       -16.6470   17.8210  -24.6630 C.3   178  ARG178      0.2205
    177  NE       -17.3920   16.8700  -25.4600 N.pl3 178  ARG178     -0.0865
    178  CZ       -18.0450   17.1340  -26.5810 C.cat 178  ARG178      0.5346
    179  NH1      -17.8390   18.2950  -27.1900 N.pl3 178  ARG178      0.1354
    180  NH2      -18.7440   16.1900  -27.1710 N.pl3 178  ARG178      0.1354
    181  N        -13.9630   20.8950  -23.2690 N.3   181  SER181     -0.1217
    182  CA       -14.6270   22.0740  -23.8410 C.3   181  SER181      0.1889
    183  C        -16.1230   21.8380  -23.7820 C.2   181  SER181      0.2288
    184  O        -16.7120   21.3730  -24.7530 O.2   181  SER181     -0.2866
    185  CB       -14.1750   22.3300  -25.2840 C.3   181  SER181      0.2089
    186  OG       -14.7820   23.3680  -25.8730 O.3   181  SER181     -0.2183
@<TRIPOS>BOND
     1    74    73    1
     2    74    75    1
     3    73    70    1
     4    69    70    1
     5    70    71    1
     6    71    72    2
     7    76    75    1
     8    76    77    2
     9    79    77    1
    10    77    78    1
    11    19    18    2
    12    28    27   ar
    13    18    17    1
    14    45    42    1
    15    26    27    1
    16    26    23    1
    17    20    17    1
    18    20    21    1
    19    27    29   ar
    20    17    16    1
    21    22    23    1
    22    42    43    1
    23    42    41    1
    24    44    43    2
    25    61    60    2
    26    23    24    1
    27    64    65    1
    28    64    63    1
    29    67    66    1
    30    62    63    1
    31    62    59    1
    32    60    59    1
    33    16     9   am
    34    25    24    2
    35    66    65    2
    36    66    68    1
    37    10     9    2
    38   126   125   ar
    39    41    39   am
    40    24    30   am
    41     9     8    1
    42    59    58    1
    43     7     8    1
    44   125   127   ar
    45   125   124    1
    46    39    40    2
    47    39    38    1
    48    58    48   am
    49     8    11    1
    50    30    31    1
    51   123   124    1
    52   123   120    1
    53    48    49    2
    54    48    47    1
    55    37    38    1
    56    37    32   am
    57    46    47    1
    58    31    32    1
    59    31    34    1
    60    32    33    2
    61    11    12    1
    62   119   120    1
    63    12    13    1
    64   120   121    1
    65    47    50    1
    66     6     5    1
    67   122   121    2
    68    34    36    1
    69    34    35    1
    70    84    86    1
    71    84    85    1
    72    84    81    1
    73   121   128    1
    74    15    14    1
    75   113   112    2
    76    50    51    1
    77     3     2    1
    78     3     4    2
    79    80    81    1
    80    14    13    1
    81     5     2    1
    82   115   114    1
    83   115   116    1
    84   111   110    1
    85   111   112    1
    86   111   114    1
    87    81    82    1
    88     2     1    1
    89   118   116   am
    90   128   129    2
    91    51    52   ar
    92    51    53   ar
    93   116   117    2
    94    52    54   ar
    95   129   130    1
    96    82    83    2
    97    82    87   am
    98    53    55   ar
    99    54    56   ar
   100   131   130    2
   101   130   132   am
   102    87    88    1
   103   158   156    1
   104   156   155    1
   105   168   167    1
   106    98    97    1
   107   169   167    1
   108    55    56   ar
   109   167   166    2
   110    56    57    1
   111   157   155    1
   112   132   133    1
   113   166   165    1
   114   137   138    1
   115   137   136    1
   116   155   152    1
   117    93    94    1
   118   165   164    1
   119    88    91    1
   120    88    89    1
   121   138   139    1
   122   139   140    2
   123    92    91    1
   124    97    94    1
   125    94    95    1
   126   133   136    1
   127   133   134    1
   128    89    90    2
   129   142   140    1
   130   140   141    1
   131   152   151    1
   132   152   153    1
   133   164   163    1
   134   102   101    2
   135   151   145   am
   136   149   148   ar
   137    99   100    1
   138   134   143   am
   139   134   135    2
   140   143   144    1
   141   100   101    1
   142   100   103    1
   143    95    96    2
   144   163   160    1
   145   108   107    1
   146   153   154    2
   147   109   107    1
   148   145   144    1
   149   145   146    2
   150   107   106    2
   151   148   150   ar
   152   148   147    1
   153   144   147    1
   154   104   103    1
   155   104   105    1
   156   179   178    1
   157   180   178    1
   158   160   159    1
   159   160   161    1
   160   106   105    1
   161   178   177    2
   162   161   162    2
   163   186   185    1
   164   177   176    1
   165   185   182    1
   166   184   183    2
   167   176   175    1
   168   182   183    1
   169   182   181    1
   170   175   174    1
   171   174   171    1
   172   171   170    1
   173   171   172    1
   174   172   173    2
