@<TRIPOS>MOLECULE
tmp/4digA04.pdb
 116 115 0 0 0
SMALL
GASTEIGER

@<TRIPOS>ATOM
      1  N        -12.6700   16.3830   10.1110 N.3    89  THR89      -0.1203
      2  CA       -13.1640   14.9810    9.9870 C.3    89  THR89       0.1994
      3  C        -14.6090   14.9300    9.4750 C.2    89  THR89       0.2618
      4  O        -15.3800   15.8940    9.5950 O.2    89  THR89      -0.2717
      5  CB       -13.0830   14.1790   11.3040 C.3    89  THR89       0.1784
      6  OG1      -14.0010   14.7330   12.2400 O.3    89  THR89      -0.2211
      7  CG2      -11.6470   14.1990   11.9240 C.3    89  THR89       0.0376
      8  N        -14.9980   13.8140    8.8780 N.am   90  GLU90      -0.1965
      9  CA       -16.3320   13.7660    8.2970 C.3    90  GLU90       0.1733
     10  C        -17.3950   12.8400    8.9350 C.2    90  GLU90       0.2616
     11  O        -18.5940   13.0630    8.7710 O.2    90  GLU90      -0.2715
     12  CB       -16.2130   13.5410    6.7990 C.3    90  GLU90       0.0429
     13  CG       -15.8570   14.9010    6.1570 C.3    90  GLU90       0.1163
     14  CD       -15.4060   14.7840    4.7060 C.2    90  GLU90       0.3649
     15  OE1      -16.1640   14.1850    3.8930 O.co2  90  GLU90      -0.2457
     16  OE2      -14.2960   15.3030    4.3970 O.co2  90  GLU90      -0.2457
     17  N        -16.9820   11.8190    9.6320 N.am   91  GLY91      -0.1955
     18  CA       -17.9970   10.9120   10.2920 C.3    91  GLY91       0.1869
     19  C        -18.2280    9.8040    9.2650 C.2    91  GLY91       0.2309
     20  O        -18.3660   10.0700    8.0610 O.2    91  GLY91      -0.2863
     21  N        -28.4350    4.8630    5.1930 N.3   247  HIS247     -0.1241
     22  CA       -27.5830    4.5100    6.3720 C.3   247  HIS247      0.1621
     23  C        -28.4290    4.6030    7.6280 C.2   247  HIS247      0.2264
     24  O        -29.5610    5.1010    7.6380 O.2   247  HIS247     -0.2867
     25  CB       -26.3440    5.4080    6.4820 C.3   247  HIS247      0.0745
     26  CG       -26.6920    6.8810    6.4300 C.ar  247  HIS247      0.0817
     27  ND1      -26.6050    7.5540    5.2670 N.ar  247  HIS247     -0.2268
     28  CD2      -27.2160    7.7900    7.3770 C.ar  247  HIS247      0.1154
     29  CE1      -27.0320    8.8540    5.4280 C.ar  247  HIS247      0.1986
     30  NE2      -27.3970    9.0080    6.6920 N.ar  247  HIS247     -0.2212
     31  N        -26.9880    5.8570   10.6150 N.3   249  ALA249     -0.1231
     32  CA       -26.5120    7.0360   11.3700 C.3   249  ALA249      0.1694
     33  C        -25.1940    7.4500   10.7780 C.2   249  ALA249      0.2592
     34  O        -24.5380    6.6840   10.0780 O.2   249  ALA249     -0.2718
     35  CB       -26.2940    6.6630   12.8620 C.3   249  ALA249      0.0304
     36  N        -24.7800    8.6670   11.1120 N.am  250  VAL250     -0.1966
     37  CA       -23.4180    9.0820   10.8180 C.3   250  VAL250      0.1727
     38  C        -22.7340    9.0330   12.2140 C.2   250  VAL250      0.2616
     39  O        -23.2900    9.5550   13.2360 O.2   250  VAL250     -0.2715
     40  CB       -23.3970   10.5230   10.4000 C.3   250  VAL250      0.0290
     41  CG1      -21.9400   11.0580   10.3420 C.3   250  VAL250      0.0023
     42  CG2      -24.2670   10.6850    9.1000 C.3   250  VAL250      0.0023
     43  N        -21.5850    8.3650   12.2660 N.am  251  ALA251     -0.1964
     44  CA       -20.7710    8.1200   13.4870 C.3   251  ALA251      0.1713
     45  C        -19.6080    9.0390   13.5620 C.2   251  ALA251      0.2458
     46  O        -19.0040    9.3110   12.5500 O.2   251  ALA251     -0.2730
     47  CB       -20.2210    6.6360   13.4610 C.3   251  ALA251      0.0333
     48  N        -19.2290    9.4810   14.8080 N.am  252  PRO252     -0.2716
     49  CA       -18.0480   10.2330   15.0600 C.3   252  PRO252      0.1536
     50  C        -16.8250    9.3510   14.8090 C.2   252  PRO252      0.2598
     51  O        -16.8650    8.1860   15.1530 O.2   252  PRO252     -0.2715
     52  CB       -18.2110   10.6730   16.5620 C.3   252  PRO252      0.0310
     53  CG       -19.0680    9.6230   17.2080 C.3   252  PRO252      0.0237
     54  CD       -19.9590    9.0950   16.0540 C.3   252  PRO252      0.0939
     55  N        -15.8100    9.8310   14.1360 N.am  253  ASN253     -0.1973
     56  CA       -14.6920    8.9580   13.8430 C.3   253  ASN253      0.1688
     57  C        -14.0730    8.4020   15.1380 C.2   253  ASN253      0.2292
     58  O        -14.1190    9.0410   16.2090 O.2   253  ASN253     -0.2864
     59  CB       -13.5820    9.7060   13.0230 C.3   253  ASN253      0.1181
     60  CG       -13.9480    9.9310   11.5380 C.2   253  ASN253      0.2629
     61  OD1      -14.7490    9.2170   10.9410 O.2   253  ASN253     -0.2716
     62  ND2      -13.2430   10.8780   10.9140 N.am  253  ASN253     -0.0877
     63  N        -18.9440   16.7780   23.4730 N.3   318  GLU318     -0.1231
     64  CA       -18.8700   17.6160   22.2900 C.3   318  GLU318      0.1699
     65  C        -18.3600   16.8030   21.1300 C.2   318  GLU318      0.2592
     66  O        -18.8800   16.9470   20.0160 O.2   318  GLU318     -0.2718
     67  CB       -17.9500   18.8130   22.4690 C.3   318  GLU318      0.0402
     68  CG       -18.6170   19.8560   23.3630 C.3   318  GLU318      0.1161
     69  CD       -17.6690   20.9800   23.7390 C.2   318  GLU318      0.3649
     70  OE1      -16.4890   20.7190   23.9950 O.co2 318  GLU318     -0.2457
     71  OE2      -18.0820   22.2100   23.6390 O.co2 318  GLU318     -0.2457
     72  N        -17.3470   15.9890   21.3670 N.am  319  TYR319     -0.1962
     73  CA       -16.7700   15.1800   20.3070 C.3   319  TYR319      0.1771
     74  C        -17.7850   14.2130   19.7270 C.2   319  TYR319      0.2619
     75  O        -17.9290   14.1350   18.5580 O.2   319  TYR319     -0.2715
     76  CB       -15.5130   14.4180   20.7160 C.3   319  TYR319      0.0574
     77  CG       -14.9350   13.6540   19.5720 C.ar  319  TYR319     -0.0198
     78  CD1      -14.2060   14.2760   18.5970 C.ar  319  TYR319     -0.0009
     79  CD2      -15.2080   12.3240   19.4090 C.ar  319  TYR319     -0.0009
     80  CE1      -13.7380   13.5890   17.5130 C.ar  319  TYR319      0.0417
     81  CE2      -14.7410   11.6210   18.3320 C.ar  319  TYR319      0.0417
     82  CZ       -14.0070   12.2380   17.3700 C.ar  319  TYR319      0.1957
     83  OH       -13.5450   11.5660   16.3140 O.3   319  TYR319     -0.2866
     84  N        -18.4340   13.4550   20.5660 N.am  320  LEU320     -0.1963
     85  CA       -19.4540   12.5030   20.1150 C.3   320  LEU320      0.1728
     86  C        -20.7110   13.1760   19.5340 C.2   320  LEU320      0.2616
     87  O        -21.4300   12.5740   18.6910 O.2   320  LEU320     -0.2715
     88  CB       -19.8280   11.5870   21.2660 C.3   320  LEU320      0.0311
     89  CG       -18.6900   10.6870   21.8210 C.3   320  LEU320      0.0022
     90  CD1      -19.2740    9.8410   22.9540 C.3   320  LEU320      0.0001
     91  CD2      -18.1580    9.7610   20.6710 C.3   320  LEU320      0.0001
     92  N        -21.0060   14.4050   20.0210 N.am  321  GLY321     -0.1955
     93  CA       -22.2360   15.0660   19.6800 C.3   321  GLY321      0.1869
     94  C        -23.4120   14.7160   20.5750 C.2   321  GLY321      0.2309
     95  O        -23.6260   13.5400   21.0110 O.2   321  GLY321     -0.2863
     96  N        -26.6520   14.3620   20.1640 N.3   323  GLU323     -0.1231
     97  CA       -27.6810   13.3920   19.8070 C.3   323  GLU323      0.1699
     98  C        -27.1800   11.9750   20.0760 C.2   323  GLU323      0.2592
     99  O        -27.8920   11.1580   20.6180 O.2   323  GLU323     -0.2718
    100  CB       -27.9670   13.4350   18.3280 C.3   323  GLU323      0.0402
    101  CG       -28.3450   14.7860   17.7620 C.3   323  GLU323      0.1161
    102  CD       -29.1820   14.5950   16.5160 C.2   323  GLU323      0.3649
    103  OE1      -28.8020   13.7390   15.6640 O.co2 323  GLU323     -0.2457
    104  OE2      -30.2220   15.2850   16.4090 O.co2 323  GLU323     -0.2457
    105  N        -25.9470   11.7040   19.6670 N.am  324  TYR324     -0.1976
    106  CA       -25.3880   10.3510   19.8240 C.3   324  TYR324      0.1639
    107  C        -25.2210   10.0440   21.3040 C.2   324  TYR324      0.2290
    108  O        -25.4940    8.9630   21.7530 O.2   324  TYR324     -0.2864
    109  CB       -24.0520   10.2060   19.0690 C.3   324  TYR324      0.0560
    110  CG       -23.4290    8.7840   19.2000 C.ar  324  TYR324     -0.0198
    111  CD1      -24.2500    7.6260   19.1600 C.ar  324  TYR324     -0.0009
    112  CD2      -22.0580    8.6100   19.3640 C.ar  324  TYR324     -0.0009
    113  CE1      -23.6890    6.3160   19.2220 C.ar  324  TYR324      0.0417
    114  CE2      -21.4800    7.3430   19.4530 C.ar  324  TYR324      0.0417
    115  CZ       -22.3090    6.2210   19.4260 C.ar  324  TYR324      0.1957
    116  OH       -21.7480    5.0100   19.5450 O.3   324  TYR324     -0.2866
@<TRIPOS>BOND
     1    15    14   ar
     2    16    14   ar
     3    14    13    1
     4    21    22    1
     5    27    29   ar
     6    27    26   ar
     7    29    30   ar
     8    13    12    1
     9    22    25    1
    10    22    23    1
    11    26    25    1
    12    26    28   ar
    13    30    28   ar
    14    12     9    1
    15    23    24    2
    16    20    19    2
    17     9     8    1
    18     9    10    1
    19    11    10    2
    20     8     3   am
    21    10    17   am
    22    42    40    1
    23    19    18    1
    24     3     4    2
    25     3     2    1
    26    17    18    1
    27     2     1    1
    28     2     5    1
    29    34    33    2
    30    41    40    1
    31    40    37    1
    32    31    32    1
    33    33    36   am
    34    33    32    1
    35    37    36    1
    36    37    38    1
    37    62    60   am
    38    61    60    2
    39     5     7    1
    40     5     6    1
    41    32    35    1
    42    60    59    1
    43    38    43   am
    44    38    39    2
    45    43    44    1
    46    46    45    2
    47    59    56    1
    48    47    44    1
    49    44    45    1
    50    45    48   am
    51    56    55    1
    52    56    57    1
    53    55    50   am
    54    48    49    1
    55    48    54    1
    56    50    49    1
    57    50    51    2
    58    49    52    1
    59    57    58    2
    60   103   102   ar
    61    54    53    1
    62    83    82    1
    63   104   102   ar
    64   102   101    1
    65    52    53    1
    66    82    80   ar
    67    82    81   ar
    68    80    78   ar
    69   101   100    1
    70   100    97    1
    71    81    79   ar
    72    75    74    2
    73    78    77   ar
    74    87    86    2
    75   109   110    1
    76   109   106    1
    77   111   110   ar
    78   111   113   ar
    79   110   112   ar
    80   113   115   ar
    81   112   114   ar
    82    79    77   ar
    83   115   114   ar
    84   115   116    1
    85    86    92   am
    86    86    85    1
    87    77    76    1
    88   105   106    1
    89   105    98   am
    90    93    92    1
    91    93    94    1
    92    74    73    1
    93    74    84   am
    94    97    98    1
    95    97    96    1
    96   106   107    1
    97    66    65    2
    98    98    99    2
    99    85    84    1
   100    85    88    1
   101    73    76    1
   102    73    72    1
   103    94    95    2
   104    91    89    1
   105    65    72   am
   106    65    64    1
   107    88    89    1
   108   107   108    2
   109    89    90    1
   110    64    67    1
   111    64    63    1
   112    67    68    1
   113    68    69    1
   114    71    69   ar
   115    69    70   ar
