@<TRIPOS>MOLECULE
tmp/4dijA00.pdb
 143 137 0 0 0
SMALL
GASTEIGER

@<TRIPOS>ATOM
      1  N          4.3720   -2.4440   27.1250 N.3     2  ILE2       -0.1245
      2  CA         5.3290   -2.6960   28.2110 C.3     2  ILE2        0.1561
      3  C          5.4530   -1.4200   29.0570 C.2     2  ILE2        0.2260
      4  O          5.6630   -0.3330   28.5090 O.2     2  ILE2       -0.2867
      5  CB         6.7320   -3.1320   27.6720 C.3     2  ILE2        0.0252
      6  CG1        6.6270   -4.3340   26.7120 C.3     2  ILE2        0.0019
      7  CG2        7.7200   -3.4130   28.8250 C.3     2  ILE2        0.0019
      8  CD1        6.1600   -5.6420   27.3420 C.3     2  ILE2        0.0001
      9  N         16.0320   -3.8520   22.5440 N.3    37  LEU37      -0.1231
     10  CA        14.9680   -4.0470   21.5490 C.3    37  LEU37       0.1693
     11  C         15.2510   -3.3510   20.2270 C.2    37  LEU37       0.2592
     12  O         14.9530   -3.8980   19.1680 O.2    37  LEU37      -0.2718
     13  CB        13.5920   -3.6300   22.0950 C.3    37  LEU37       0.0284
     14  CG        12.7690   -4.7050   22.8240 C.3    37  LEU37       0.0019
     15  CD1       12.4240   -5.8670   21.8980 C.3    37  LEU37       0.0001
     16  CD2       13.4680   -5.2210   24.0800 C.3    37  LEU37       0.0001
     17  N         15.8370   -2.1550   20.2890 N.am   38  PHE38      -0.1976
     18  CA        16.2610   -1.4400   19.0760 C.3    38  PHE38       0.1639
     19  C         17.2320   -2.2640   18.2210 C.2    38  PHE38       0.2290
     20  O         17.0240   -2.4400   17.0220 O.2    38  PHE38      -0.2864
     21  CB        16.9160   -0.0990   19.4280 C.3    38  PHE38       0.0560
     22  CG        17.6440    0.5420   18.2700 C.ar   38  PHE38      -0.0200
     23  CD1       16.9380    1.2020   17.2730 C.ar   38  PHE38      -0.0042
     24  CD2       19.0380    0.4910   18.1860 C.ar   38  PHE38      -0.0042
     25  CE1       17.6070    1.8000   16.1910 C.ar   38  PHE38      -0.0003
     26  CE2       19.7150    1.0860   17.1090 C.ar   38  PHE38      -0.0003
     27  CZ        18.9900    1.7400   16.1140 C.ar   38  PHE38      -0.0000
     28  N         17.8610   -5.4820   18.3910 N.3    40  LEU40      -0.1231
     29  CA        17.1970   -6.7060   17.9230 C.3    40  LEU40       0.1693
     30  C         16.3540   -6.4110   16.6820 C.2    40  LEU40       0.2592
     31  O         16.3330   -7.2010   15.7370 O.2    40  LEU40      -0.2718
     32  CB        16.3240   -7.3260   19.0230 C.3    40  LEU40       0.0284
     33  CG        17.0550   -8.1150   20.1170 C.3    40  LEU40       0.0019
     34  CD1       16.0800   -8.4890   21.2100 C.3    40  LEU40       0.0001
     35  CD2       17.7410   -9.3670   19.5460 C.3    40  LEU40       0.0001
     36  N         15.6580   -5.2770   16.6980 N.am   41  GLY41      -0.1957
     37  CA        14.9810   -4.7640   15.5060 C.3    41  GLY41       0.1869
     38  C         15.9340   -4.5770   14.3310 C.2    41  GLY41       0.2309
     39  O         15.6130   -4.9880   13.2100 O.2    41  GLY41      -0.2863
     40  N         16.9270   -8.1470   12.9020 N.3    44  ILE44      -0.1231
     41  CA        15.8330   -8.7830   12.1770 C.3    44  ILE44       0.1692
     42  C         15.7000   -8.1590   10.7850 C.2    44  ILE44       0.2591
     43  O         15.5400   -8.8600    9.7730 O.2    44  ILE44      -0.2718
     44  CB        14.5010   -8.6500   12.9640 C.3    44  ILE44       0.0266
     45  CG1       14.5610   -9.4850   14.2490 C.3    44  ILE44       0.0019
     46  CG2       13.3130   -9.0850   12.1140 C.3    44  ILE44       0.0020
     47  CD1       13.4360   -9.1920   15.2350 C.3    44  ILE44       0.0001
     48  N         15.7940   -6.8370   10.7570 N.am   45  MET45      -0.1979
     49  CA        15.7320   -6.0670    9.5210 C.3    45  MET45       0.1605
     50  C         16.8640   -6.4030    8.5450 C.2    45  MET45       0.2287
     51  O         16.6000   -6.6880    7.3850 O.2    45  MET45      -0.2864
     52  CB        15.7550   -4.5770    9.8560 C.3    45  MET45       0.0413
     53  CG        15.6080   -3.6820    8.6530 C.3    45  MET45       0.0598
     54  SD        14.0100   -3.8960    7.8760 S.3    45  MET45      -0.1393
     55  CE        12.9650   -3.2030    9.1510 C.3    45  MET45       0.0692
     56  N         11.9610  -11.2500    8.9890 N.3    50  TYR50      -0.1241
     57  CA        10.5190  -11.0720    8.8450 C.3    50  TYR50       0.1605
     58  C         10.0600  -11.7270    7.5360 C.2    50  TYR50       0.2264
     59  O         10.8010  -11.7460    6.5530 O.2    50  TYR50      -0.2867
     60  CB        10.1420   -9.5770    8.8780 C.3    50  TYR50       0.0534
     61  CG        10.7680   -8.7710    7.7540 C.ar   50  TYR50      -0.0201
     62  CD1       10.0830   -8.5650    6.5560 C.ar   50  TYR50      -0.0009
     63  CD2       12.0530   -8.2430    7.8810 C.ar   50  TYR50      -0.0009
     64  CE1       10.6570   -7.8460    5.5150 C.ar   50  TYR50       0.0417
     65  CE2       12.6370   -7.5290    6.8460 C.ar   50  TYR50       0.0417
     66  CZ        11.9320   -7.3360    5.6660 C.ar   50  TYR50       0.1957
     67  OH        12.5040   -6.6230    4.6410 O.3    50  TYR50      -0.2866
     68  N          4.5320   -9.6360    7.1430 N.3    55  GLN55      -0.1245
     69  CA         5.6990   -8.8890    7.6300 C.3    55  GLN55       0.1566
     70  C          5.7320   -8.6320    9.1360 C.2    55  GLN55       0.2260
     71  O          6.7250   -8.1130    9.6560 O.2    55  GLN55      -0.2867
     72  CB         5.8950   -7.5960    6.8280 C.3    55  GLN55       0.0367
     73  CG         6.2310   -7.8670    5.3600 C.3    55  GLN55       0.0905
     74  CD         6.5910   -6.6240    4.5790 C.2    55  GLN55       0.2608
     75  OE1        6.4010   -5.5000    5.0450 O.2    55  GLN55      -0.2717
     76  NE2        7.1230   -6.8220    3.3790 N.am   55  GLN55      -0.0878
     77  N         19.1180  -15.9740   16.5090 N.3    65  LEU65      -0.1245
     78  CA        17.9780  -15.3910   17.2370 C.3    65  LEU65       0.1561
     79  C         16.9830  -16.4530   17.7120 C.2    65  LEU65       0.2260
     80  O         16.4560  -16.3650   18.8240 O.2    65  LEU65      -0.2867
     81  CB        17.2600  -14.3120   16.4020 C.3    65  LEU65       0.0270
     82  CG        16.1080  -13.5670   17.1010 C.3    65  LEU65       0.0019
     83  CD1       16.6130  -12.8000   18.3250 C.3    65  LEU65       0.0001
     84  CD2       15.3760  -12.6280   16.1430 C.3    65  LEU65       0.0001
     85  N         15.8940  -17.2330   21.5110 N.3    69  PHE69      -0.1241
     86  CA        14.4830  -17.1090   21.8850 C.3    69  PHE69       0.1605
     87  C         13.7970  -18.4480   22.1970 C.2    69  PHE69       0.2264
     88  O         12.8270  -18.4880   22.9590 O.2    69  PHE69      -0.2867
     89  CB        13.7100  -16.3700   20.7920 C.3    69  PHE69       0.0534
     90  CG        13.8210  -14.8610   20.8590 C.ar   69  PHE69      -0.0203
     91  CD1       14.8050  -14.2310   21.6300 C.ar   69  PHE69      -0.0042
     92  CD2       12.9470  -14.0690   20.1180 C.ar   69  PHE69      -0.0042
     93  CE1       14.8960  -12.8350   21.6760 C.ar   69  PHE69      -0.0003
     94  CE2       13.0300  -12.6740   20.1570 C.ar   69  PHE69      -0.0003
     95  CZ        14.0100  -12.0560   20.9350 C.ar   69  PHE69      -0.0000
     96  N          7.6670  -15.9270   15.6830 N.3    74  PHE74      -0.1241
     97  CA         6.8380  -15.1350   16.5990 C.3    74  PHE74       0.1605
     98  C          6.3140  -13.8990   15.8720 C.2    74  PHE74       0.2264
     99  O          6.8580  -13.5040   14.8340 O.2    74  PHE74      -0.2867
    100  CB         7.6280  -14.7190   17.8540 C.3    74  PHE74       0.0534
    101  CG         8.7980  -13.8010   17.5680 C.ar   74  PHE74      -0.0203
    102  CD1        8.6450  -12.4150   17.6240 C.ar   74  PHE74      -0.0042
    103  CD2       10.0450  -14.3190   17.2300 C.ar   74  PHE74      -0.0042
    104  CE1        9.7220  -11.5590   17.3570 C.ar   74  PHE74      -0.0003
    105  CE2       11.1330  -13.4720   16.9570 C.ar   74  PHE74      -0.0003
    106  CZ        10.9670  -12.0810   17.0170 C.ar   74  PHE74      -0.0000
    107  N          5.6150   -9.7800   15.8900 N.3    76  VAL76      -0.1245
    108  CA         6.1760   -8.5520   16.4650 C.3    76  VAL76       0.1561
    109  C          5.1280   -7.7560   17.2520 C.2    76  VAL76       0.2260
    110  O          5.4640   -6.8000   17.9530 O.2    76  VAL76      -0.2867
    111  CB         6.8300   -7.6370   15.3920 C.3    76  VAL76       0.0252
    112  CG1        7.9570   -8.3680   14.6660 C.3    76  VAL76       0.0019
    113  CG2        5.7790   -7.1210   14.3950 C.3    76  VAL76       0.0019
    114  N          4.2730   -8.0070   22.4030 N.3    79  HIS79      -0.1241
    115  CA         5.4180   -7.4250   23.1200 C.3    79  HIS79       0.1621
    116  C          5.7920   -8.1720   24.4000 C.2    79  HIS79       0.2264
    117  O          6.9700   -8.4040   24.6620 O.2    79  HIS79      -0.2867
    118  CB         5.1680   -5.9540   23.4570 C.3    79  HIS79       0.0745
    119  CG         5.0710   -5.0590   22.2620 C.ar   79  HIS79       0.0817
    120  ND1        5.2630   -3.6980   22.3440 N.ar   79  HIS79      -0.2268
    121  CD2        4.7970   -5.3230   20.9620 C.ar   79  HIS79       0.1154
    122  CE1        5.1090   -3.1600   21.1460 C.ar   79  HIS79       0.1986
    123  NE2        4.8270   -4.1250   20.2890 N.ar   79  HIS79      -0.2212
    124  N          7.6220  -11.2860   23.5980 N.3    82  ILE82      -0.1231
    125  CA         8.9980  -10.9560   23.2070 C.3    82  ILE82       0.1692
    126  C          9.9130  -10.6830   24.4110 C.2    82  ILE82       0.2592
    127  O         11.0060  -11.2660   24.5110 O.2    82  ILE82      -0.2718
    128  CB         9.0430   -9.8070   22.1650 C.3    82  ILE82       0.0266
    129  CG1        8.4520  -10.3010   20.8450 C.3    82  ILE82       0.0019
    130  CG2       10.4970   -9.3220   21.9550 C.3    82  ILE82       0.0020
    131  CD1        8.0120   -9.1880   19.8640 C.3    82  ILE82       0.0001
    132  N          9.4680   -9.8290   25.3350 N.am   83  TYR83      -0.1976
    133  CA        10.2300   -9.5870   26.5820 C.3    83  TYR83       0.1639
    134  C         10.5460  -10.8760   27.3510 C.2    83  TYR83       0.2290
    135  O         11.6720  -11.0700   27.8460 O.2    83  TYR83      -0.2864
    136  CB         9.4880   -8.5920   27.4790 C.3    83  TYR83       0.0560
    137  CG         9.8920   -7.1590   27.2250 C.ar   83  TYR83      -0.0198
    138  CD1        9.7050   -6.5770   25.9710 C.ar   83  TYR83      -0.0009
    139  CD2       10.4710   -6.3880   28.2360 C.ar   83  TYR83      -0.0009
    140  CE1       10.0910   -5.2640   25.7190 C.ar   83  TYR83       0.0417
    141  CE2       10.8520   -5.0620   28.0030 C.ar   83  TYR83       0.0417
    142  CZ        10.6600   -4.5120   26.7440 C.ar   83  TYR83       0.1957
    143  OH        11.0330   -3.2110   26.4990 O.3    83  TYR83      -0.2866
@<TRIPOS>BOND
     1    76    74   am
     2    74    75    2
     3    74    73    1
     4    67    66    1
     5    73    72    1
     6    64    66   ar
     7    64    62   ar
     8    66    65   ar
     9    59    58    2
    10    62    61   ar
    11    72    69    1
    12    65    63   ar
    13    68    69    1
    14    51    50    2
    15    58    57    1
    16    69    70    1
    17    61    63   ar
    18    61    60    1
    19    54    53    1
    20    54    55    1
    21    50    49    1
    22    53    52    1
    23    57    60    1
    24    57    56    1
    25    70    71    2
    26    49    52    1
    27    49    48    1
    28    43    42    2
    29    48    42   am
    30    42    41    1
    31    46    44    1
    32    41    40    1
    33    41    44    1
    34    44    45    1
    35    39    38    2
    36    45    47    1
    37    38    37    1
    38   113   111    1
    39   112   111    1
    40    99    98    2
    41   111   108    1
    42    37    36    1
    43    96    97    1
    44    31    30    2
    45    98    97    1
    46   107   108    1
    47    27    25   ar
    48    27    26   ar
    49    84    82    1
    50    25    23   ar
    51    81    82    1
    52    81    78    1
    53   108   109    1
    54    77    78    1
    55    97   100    1
    56    30    36   am
    57    30    29    1
    58   105   106   ar
    59   105   103   ar
    60   106   104   ar
    61    20    19    2
    62    82    83    1
    63    26    24   ar
    64   103   101   ar
    65    78    79    1
    66   109   110    2
    67    23    22   ar
    68   104   102   ar
    69   101   102   ar
    70   101   100    1
    71    79    80    2
    72    29    28    1
    73    29    32    1
    74    24    22   ar
    75    19    18    1
    76    22    21    1
    77    32    33    1
    78    18    21    1
    79    18    17    1
    80    12    11    2
    81    35    33    1
    82   131   129    1
    83    33    34    1
    84    92    94   ar
    85    92    90   ar
    86    94    95   ar
    87    11    17   am
    88    11    10    1
    89   123   121   ar
    90   123   122   ar
    91    89    90    1
    92    89    86    1
    93   129   128    1
    94    90    91   ar
    95    95    93   ar
    96   121   119   ar
    97   122   120   ar
    98    85    86    1
    99    10    13    1
   100    10     9    1
   101    91    93   ar
   102    86    87    1
   103    15    14    1
   104   130   128    1
   105    13    14    1
   106   128   125    1
   107    87    88    2
   108   119   120   ar
   109   119   118    1
   110   114   115    1
   111    14    16    1
   112   115   118    1
   113   115   116    1
   114   125   124    1
   115   125   126    1
   116   116   117    2
   117   126   127    2
   118   126   132   am
   119   132   133    1
   120   140   138   ar
   121   140   142   ar
   122   138   137   ar
   123   143   142    1
   124   133   134    1
   125   133   136    1
   126     6     8    1
   127     6     5    1
   128   142   141   ar
   129     1     2    1
   130   137   136    1
   131   137   139   ar
   132   134   135    2
   133     5     2    1
   134     5     7    1
   135   141   139   ar
   136     2     3    1
   137     4     3    2
