@<TRIPOS>MOLECULE
tmp/4diqA00.pdb
 150 145 0 0 0
SMALL
GASTEIGER

@<TRIPOS>ATOM
      1  N        -23.9930  -60.5740   -5.9800 N.3   117  ARG117     -0.1245
      2  CA       -25.2960  -60.0460   -6.3250 C.3   117  ARG117      0.1563
      3  C        -26.3220  -61.1700   -6.4600 C.2   117  ARG117      0.2260
      4  O        -26.1570  -62.0410   -7.2930 O.2   117  ARG117     -0.2867
      5  CB       -25.2520  -59.2770   -7.6510 C.3   117  ARG117      0.0307
      6  CG       -26.6400  -58.8070   -8.0700 C.3   117  ARG117      0.0489
      7  CD       -26.6140  -57.8630   -9.2540 C.3   117  ARG117      0.2205
      8  NE       -26.2470  -58.5560  -10.4810 N.pl3 117  ARG117     -0.0865
      9  CZ       -25.7060  -57.9970  -11.5620 C.cat 117  ARG117      0.5346
     10  NH1      -25.4160  -58.7680  -12.6000 N.pl3 117  ARG117      0.1354
     11  NH2      -25.4340  -56.6900  -11.6230 N.pl3 117  ARG117      0.1354
     12  N        -27.0450  -56.6770   -3.1610 N.3   148  TYR148     -0.1241
     13  CA       -25.6110  -56.4760   -3.4170 C.3   148  TYR148      0.1605
     14  C        -24.8140  -56.5190   -2.1250 C.2   148  TYR148      0.2264
     15  O        -25.0490  -55.6920   -1.2180 O.2   148  TYR148     -0.2867
     16  CB       -25.3630  -55.1060   -4.0410 C.3   148  TYR148      0.0534
     17  CG       -25.8820  -54.9390   -5.4200 C.ar  148  TYR148     -0.0201
     18  CD1      -25.0380  -55.0300   -6.5130 C.ar  148  TYR148     -0.0009
     19  CD2      -27.2250  -54.7120   -5.6540 C.ar  148  TYR148     -0.0009
     20  CE1      -25.5200  -54.8870   -7.8020 C.ar  148  TYR148      0.0417
     21  CE2      -27.7150  -54.5600   -6.9390 C.ar  148  TYR148      0.0417
     22  CZ       -26.8550  -54.6610   -8.0170 C.ar  148  TYR148      0.1957
     23  OH       -27.3380  -54.5320   -9.3270 O.3   148  TYR148     -0.2866
     24  N        -20.9100  -56.2220   -0.9030 N.3   150  THR150     -0.1218
     25  CA       -19.5810  -55.8080   -1.3660 C.3   150  THR150      0.1862
     26  C        -18.6330  -55.8320   -0.1810 C.2   150  THR150      0.2287
     27  O        -18.9290  -55.2490    0.8720 O.2   150  THR150     -0.2866
     28  CB       -19.6260  -54.4060   -2.0120 C.3   150  THR150      0.1770
     29  OG1      -20.4160  -54.4760   -3.2090 O.3   150  THR150     -0.2211
     30  CG2      -18.2460  -53.8810   -2.3470 C.3   150  THR150      0.0375
     31  N        -17.5490  -53.7080   -6.8030 N.3   156  GLY156     -0.1210
     32  CA       -18.0410  -54.8250   -7.6050 C.3   156  GLY156      0.1956
     33  C        -18.2030  -54.5700   -9.1140 C.2   156  GLY156      0.2612
     34  O        -17.8870  -55.4410   -9.9240 O.2   156  GLY156     -0.2717
     35  N        -18.6710  -53.3910   -9.5130 N.am  157  PHE157     -0.1962
     36  CA       -19.1270  -53.1960  -10.8980 C.3   157  PHE157      0.1771
     37  C        -18.6270  -51.9120  -11.5280 C.2   157  PHE157      0.2619
     38  O        -18.3550  -50.9400  -10.8280 O.2   157  PHE157     -0.2715
     39  CB       -20.6520  -53.2340  -10.9110 C.3   157  PHE157      0.0574
     40  CG       -21.2100  -54.4910  -10.2990 C.ar  157  PHE157     -0.0200
     41  CD1      -21.5130  -55.5680  -11.0820 C.ar  157  PHE157     -0.0042
     42  CD2      -21.3490  -54.6100   -8.9030 C.ar  157  PHE157     -0.0042
     43  CE1      -22.0110  -56.7450  -10.5130 C.ar  157  PHE157     -0.0003
     44  CE2      -21.8470  -55.7750   -8.3300 C.ar  157  PHE157     -0.0003
     45  CZ       -22.1680  -56.8470   -9.1390 C.ar  157  PHE157     -0.0000
     46  N        -18.5070  -51.9440  -12.8520 N.am  158  ALA158     -0.1977
     47  CA       -18.1770  -50.7750  -13.6410 C.3   158  ALA158      0.1597
     48  C        -19.3980  -49.8590  -13.5790 C.2   158  ALA158      0.2287
     49  O        -20.5380  -50.3220  -13.4060 O.2   158  ALA158     -0.2864
     50  CB       -17.8080  -51.1350  -15.1200 C.3   158  ALA158      0.0319
     51  N        -22.5090  -47.7890  -14.6400 N.3   160  HIS160     -0.1241
     52  CA       -23.5250  -48.1290  -15.6290 C.3   160  HIS160      0.1621
     53  C        -24.7730  -47.3650  -15.3110 C.2   160  HIS160      0.2264
     54  O        -24.8780  -46.7320  -14.2350 O.2   160  HIS160     -0.2867
     55  CB       -23.7520  -49.6410  -15.6300 C.3   160  HIS160      0.0745
     56  CG       -24.8020  -50.1340  -14.6290 C.ar  160  HIS160      0.0817
     57  ND1      -25.8110  -50.9610  -14.9850 N.ar  160  HIS160     -0.2268
     58  CD2      -24.9560  -49.9090  -13.2530 C.ar  160  HIS160      0.1154
     59  CE1      -26.5690  -51.2400  -13.9110 C.ar  160  HIS160      0.1986
     60  NE2      -26.0420  -50.6010  -12.8440 N.ar  160  HIS160     -0.2212
     61  N        -29.1090  -48.1750  -15.4740 N.3   162  ASP162     -0.1239
     62  CA       -30.1220  -49.1990  -15.5460 C.3   162  ASP162      0.1674
     63  C        -31.2530  -48.7330  -16.4290 C.2   162  ASP162      0.2266
     64  O        -31.3750  -47.5440  -16.7400 O.2   162  ASP162     -0.2867
     65  CB       -30.7090  -49.4360  -14.1220 C.3   162  ASP162      0.1410
     66  CG       -29.8090  -50.2830  -13.2150 C.2   162  ASP162      0.3668
     67  OD1      -29.6450  -51.4970  -13.4800 O.co2 162  ASP162     -0.2456
     68  OD2      -29.3030  -49.7590  -12.2020 O.co2 162  ASP162     -0.2456
     69  N        -32.4290  -47.6020   -3.8710 N.3   168  VAL168     -0.1245
     70  CA       -31.4120  -48.2930   -3.1500 C.3   168  VAL168      0.1561
     71  C        -31.6790  -48.1830   -1.6510 C.2   168  VAL168      0.2260
     72  O        -31.7040  -47.0900   -1.1040 O.2   168  VAL168     -0.2867
     73  CB       -30.0380  -47.6820   -3.4630 C.3   168  VAL168      0.0252
     74  CG1      -28.9840  -48.2200   -2.4950 C.3   168  VAL168      0.0019
     75  CG2      -29.6760  -47.9580   -4.9100 C.3   168  VAL168      0.0019
     76  N        -21.4360  -47.3160    2.1350 N.3   175  LYS175     -0.1245
     77  CA       -20.9350  -47.3580    0.7370 C.3   175  LYS175      0.1561
     78  C        -20.9070  -45.9380    0.1310 C.2   175  LYS175      0.2260
     79  O        -21.8430  -45.1660    0.3220 O.2   175  LYS175     -0.2867
     80  CB       -21.7900  -48.3140   -0.1380 C.3   175  LYS175      0.0271
     81  CG       -21.1020  -48.9030   -1.3740 C.3   175  LYS175      0.0035
     82  CD       -21.8480  -50.1280   -1.9130 C.3   175  LYS175      0.0206
     83  CE       -20.9890  -51.0410   -2.7700 C.3   175  LYS175      0.1093
     84  NZ       -21.7190  -52.2540   -3.2340 N.3   175  LYS175     -0.1314
     85  N        -21.3130  -43.7010   -2.8710 N.3   177  TRP177     -0.1241
     86  CA       -22.0200  -43.6970   -4.1230 C.3   177  TRP177      0.1605
     87  C        -21.7700  -42.4740   -4.8730 C.2   177  TRP177      0.2264
     88  O        -21.7150  -41.3910   -4.2810 O.2   177  TRP177     -0.2867
     89  CB       -23.5170  -43.7380   -3.8370 C.3   177  TRP177      0.0550
     90  CG       -24.0360  -45.1400   -3.6030 C.ar  177  TRP177      0.0003
     91  CD1      -23.9140  -45.9340   -2.4660 C.ar  177  TRP177      0.0946
     92  CD2      -24.7540  -45.9490   -4.5530 C.ar  177  TRP177      0.0152
     93  NE1      -24.5160  -47.1370   -2.6510 N.ar  177  TRP177     -0.2442
     94  CE2      -25.0310  -47.2120   -3.8900 C.ar  177  TRP177      0.0810
     95  CE3      -25.1770  -45.7640   -5.8540 C.ar  177  TRP177      0.0012
     96  CZ2      -25.7180  -48.2210   -4.5160 C.ar  177  TRP177      0.0191
     97  CZ3      -25.8760  -46.7880   -6.4620 C.ar  177  TRP177      0.0001
     98  CH2      -26.1360  -47.9900   -5.8080 C.ar  177  TRP177      0.0015
     99  N        -32.9660  -43.1070   -7.9340 N.3   219  PHE219     -0.1241
    100  CA       -32.5500  -42.4030   -9.1420 C.3   219  PHE219      0.1605
    101  C        -33.1270  -43.0310  -10.4030 C.2   219  PHE219      0.2264
    102  O        -33.2970  -44.2430  -10.4600 O.2   219  PHE219     -0.2867
    103  CB       -31.0190  -42.3020   -9.2330 C.3   219  PHE219      0.0534
    104  CG       -30.3280  -43.6180   -9.0870 C.ar  219  PHE219     -0.0203
    105  CD1      -30.2590  -44.4890  -10.1660 C.ar  219  PHE219     -0.0042
    106  CD2      -29.7830  -43.9970   -7.8830 C.ar  219  PHE219     -0.0042
    107  CE1      -29.6510  -45.7140  -10.0370 C.ar  219  PHE219     -0.0003
    108  CE2      -29.1560  -45.2170   -7.7550 C.ar  219  PHE219     -0.0003
    109  CZ       -29.0970  -46.0840   -8.8360 C.ar  219  PHE219     -0.0000
    110  N        -24.4430  -44.6450  -12.2830 N.3   225  HIS225     -0.1226
    111  CA       -24.0560  -44.7440  -10.8820 C.3   225  HIS225      0.1752
    112  C        -22.9740  -45.7710  -10.7010 C.2   225  HIS225      0.2596
    113  O        -22.7640  -46.6540  -11.5520 O.2   225  HIS225     -0.2718
    114  CB       -25.2470  -45.1240  -10.0320 C.3   225  HIS225      0.0759
    115  CG       -26.0390  -46.2360  -10.6140 C.ar  225  HIS225      0.0818
    116  ND1      -26.8410  -46.0530  -11.6720 N.ar  225  HIS225     -0.2268
    117  CD2      -26.0940  -47.5930  -10.2910 C.ar  225  HIS225      0.1154
    118  CE1      -27.4140  -47.2370  -12.0000 C.ar  225  HIS225      0.1986
    119  NE2      -26.9520  -48.1720  -11.1510 N.ar  225  HIS225     -0.2212
    120  N        -22.2390  -45.6040   -9.6080 N.am  226  GLN226     -0.1965
    121  CA       -21.2480  -46.5580   -9.1730 C.3   226  GLN226      0.1733
    122  C        -21.0480  -46.3370   -7.6890 C.2   226  GLN226      0.2616
    123  O        -21.4350  -45.2950   -7.1250 O.2   226  GLN226     -0.2715
    124  CB       -19.9200  -46.3850   -9.9170 C.3   226  GLN226      0.0408
    125  CG       -19.1870  -45.0810   -9.5920 C.3   226  GLN226      0.0908
    126  CD       -17.9280  -44.9010  -10.4110 C.2   226  GLN226      0.2608
    127  OE1      -17.1600  -45.8430  -10.6160 O.2   226  GLN226     -0.2717
    128  NE2      -17.6980  -43.6790  -10.8730 N.am  226  GLN226     -0.0878
    129  N        -20.4220  -47.3230   -7.0650 N.am  227  ALA227     -0.1977
    130  CA       -20.3740  -47.3870   -5.6330 C.3   227  ALA227      0.1597
    131  C        -19.1800  -48.2050   -5.1790 C.2   227  ALA227      0.2287
    132  O        -18.7350  -49.1310   -5.8730 O.2   227  ALA227     -0.2864
    133  CB       -21.6740  -48.0080   -5.1120 C.3   227  ALA227      0.0319
    134  N        -26.8660  -53.8740    0.4120 N.3   237  HIS237     -0.1241
    135  CA       -28.0300  -53.1290    0.0320 C.3   237  HIS237      0.1621
    136  C        -28.9810  -53.9450   -0.7950 C.2   237  HIS237      0.2264
    137  O        -28.5940  -54.9390   -1.3740 O.2   237  HIS237     -0.2867
    138  CB       -27.6310  -51.8020   -0.6160 C.3   237  HIS237      0.0745
    139  CG       -27.3380  -51.8640   -2.0960 C.ar  237  HIS237      0.0817
    140  ND1      -26.0930  -51.9370   -2.5690 N.ar  237  HIS237     -0.2268
    141  CD2      -28.1700  -51.7420   -3.2060 C.ar  237  HIS237      0.1154
    142  CE1      -26.1070  -51.8910   -3.9120 C.ar  237  HIS237      0.1986
    143  NE2      -27.3820  -51.7860   -4.3110 N.ar  237  HIS237     -0.2212
    144  N        -31.7210  -53.2740   -3.8920 N.3   239  THR239     -0.1218
    145  CA       -32.2660  -52.3140   -4.8360 C.3   239  THR239      0.1862
    146  C        -33.5830  -52.7910   -5.3560 C.2   239  THR239      0.2287
    147  O        -33.6790  -53.8670   -5.9970 O.2   239  THR239     -0.2866
    148  CB       -31.3340  -52.0590   -6.0220 C.3   239  THR239      0.1770
    149  OG1      -30.0990  -51.5370   -5.5510 O.3   239  THR239     -0.2211
    150  CG2      -31.9640  -51.0130   -7.0240 C.3   239  THR239      0.0375
@<TRIPOS>BOND
     1    64    63    2
     2    63    62    1
     3    55    52    1
     4    55    56    1
     5    52    53    1
     6    52    51    1
     7    62    61    1
     8    62    65    1
     9    53    54    2
    10    50    47    1
    11    57    56   ar
    12    57    59   ar
    13    56    58   ar
    14    65    66    1
    15    59    60   ar
    16    47    48    1
    17    47    46    1
    18    48    49    2
    19    67    66   ar
    20    58    60   ar
    21    66    68   ar
    22    46    37   am
    23    10     9    1
    24   110   111    1
    25   118   116   ar
    26   118   119   ar
    27   116   115   ar
    28    11     9    1
    29     9     8    2
    30   113   112    2
    31    37    36    1
    32    37    38    2
    33   119   117   ar
    34    41    43   ar
    35    41    40   ar
    36    39    36    1
    37    39    40    1
    38    36    35    1
    39   111   112    1
    40   111   114    1
    41   128   126   am
    42   112   120   am
    43   127   126    2
    44   115   117   ar
    45   115   114    1
    46    43    45   ar
    47     8     7    1
    48   102   101    2
    49   126   125    1
    50   101   100    1
    51    40    42   ar
    52   105   107   ar
    53   105   104   ar
    54   107   109   ar
    55    34    33    2
    56   124   125    1
    57   124   121    1
    58   120   121    1
    59    35    33   am
    60    23    22    1
    61     7     6    1
    62   103   100    1
    63   103   104    1
    64   121   122    1
    65   100    99    1
    66    45    44   ar
    67    33    32    1
    68   104   106   ar
    69    42    44   ar
    70   109   108   ar
    71     6     5    1
    72    22    20   ar
    73    22    21   ar
    74   106   108   ar
    75    20    18   ar
    76   122   123    2
    77   122   129   am
    78     5     2    1
    79    32    31    1
    80     4     3    2
    81   129   130    1
    82   150   148    1
    83    21    19   ar
    84    18    17   ar
    85    97    95   ar
    86    97    98   ar
    87     3     2    1
    88     2     1    1
    89   148   149    1
    90   148   145    1
    91   147   146    2
    92   132   131    2
    93    95    92   ar
    94    98    96   ar
    95    19    17   ar
    96   130   131    1
    97   130   133    1
    98    17    16    1
    99   146   145    1
   100    75    73    1
   101    87    88    2
   102    87    86    1
   103   145   144    1
   104    92    94   ar
   105    92    90   ar
   106    96    94   ar
   107   143   142   ar
   108   143   141   ar
   109    86    89    1
   110    86    85    1
   111    16    13    1
   112   142   140   ar
   113    94    93   ar
   114    69    70    1
   115    89    90    1
   116    90    91   ar
   117    73    70    1
   118    73    74    1
   119    13    12    1
   120    13    14    1
   121    84    83    1
   122    29    28    1
   123   141   139   ar
   124    70    71    1
   125    83    82    1
   126    93    91   ar
   127   140   139   ar
   128    30    28    1
   129    14    15    2
   130   139   138    1
   131    28    25    1
   132    82    81    1
   133    71    72    2
   134   137   136    2
   135    81    80    1
   136    25    24    1
   137    25    26    1
   138   136   135    1
   139   138   135    1
   140    26    27    2
   141    80    77    1
   142   135   134    1
   143    78    79    2
   144    78    77    1
   145    77    76    1
