@<TRIPOS>MOLECULE
tmp/4ditA00.pdb
 144 136 0 0 0
SMALL
GASTEIGER

@<TRIPOS>ATOM
      1  N          3.6580    0.0330  -10.4540 N.3    28  ILE28      -0.1245
      2  CA         4.1830   -0.8290  -11.5150 C.3    28  ILE28       0.1561
      3  C          4.1870   -2.3050  -11.1180 C.2    28  ILE28       0.2260
      4  O          4.5280   -3.1670  -11.9300 O.2    28  ILE28      -0.2867
      5  CB         5.6370   -0.4390  -11.9320 C.3    28  ILE28       0.0252
      6  CG1        6.6000   -0.6180  -10.7570 C.3    28  ILE28       0.0019
      7  CG2        5.6720    0.9940  -12.4300 C.3    28  ILE28       0.0019
      8  CD1        8.0670   -0.4710  -11.1310 C.3    28  ILE28       0.0001
      9  N          4.7790   -2.7190   -5.8610 N.3    36  VAL36      -0.1245
     10  CA         5.9830   -1.9940   -6.2550 C.3    36  VAL36       0.1561
     11  C          5.6180   -0.7600   -7.0770 C.2    36  VAL36       0.2260
     12  O          4.8700   -0.8610   -8.0430 O.2    36  VAL36      -0.2867
     13  CB         6.9000   -2.8910   -7.1100 C.3    36  VAL36       0.0252
     14  CG1        8.2690   -2.2570   -7.2680 C.3    36  VAL36       0.0019
     15  CG2        7.0130   -4.2550   -6.4780 C.3    36  VAL36       0.0019
     16  N         12.4120    2.2090   -7.2040 N.3    49  ALA49      -0.1245
     17  CA        11.2210    1.3830   -7.1020 C.3    49  ALA49       0.1562
     18  C         10.9260    1.2960   -5.6130 C.2    49  ALA49       0.2260
     19  O         11.8320    1.1040   -4.8190 O.2    49  ALA49      -0.2867
     20  CB        11.4770    0.0140   -7.6600 C.3    49  ALA49       0.0290
     21  N          8.9680   -0.7690   -2.8150 N.3    51  LYS51      -0.1245
     22  CA         8.1930   -1.9690   -2.5430 C.3    51  LYS51       0.1561
     23  C          7.5220   -1.7830   -1.1870 C.2    51  LYS51       0.2260
     24  O          8.1980   -1.6310   -0.1690 O.2    51  LYS51      -0.2867
     25  CB         9.0970   -3.1970   -2.5270 C.3    51  LYS51       0.0271
     26  CG         8.3430   -4.4940   -2.3470 C.3    51  LYS51       0.0035
     27  CD         9.3080   -5.6610   -2.3600 C.3    51  LYS51       0.0206
     28  CE         8.6340   -6.9400   -1.9410 C.3    51  LYS51       0.1093
     29  NZ         9.5820   -8.0870   -2.0200 N.3    51  LYS51      -0.1314
     30  N         19.7990   -6.3980   -6.5510 N.3    76  VAL76      -0.1245
     31  CA        19.1290   -5.1110   -6.5100 C.3    76  VAL76       0.1561
     32  C         19.6280   -4.2950   -5.3210 C.2    76  VAL76       0.2260
     33  O         19.6690   -4.7780   -4.1970 O.2    76  VAL76      -0.2867
     34  CB        17.5760   -5.3080   -6.4950 C.3    76  VAL76       0.0252
     35  CG1       17.0950   -5.8160   -5.1300 C.3    76  VAL76       0.0019
     36  CG2       16.8890   -4.0190   -6.9130 C.3    76  VAL76       0.0019
     37  N         14.5240    1.0200   -3.7950 N.3    94  LEU94      -0.1231
     38  CA        15.5730    0.3310   -4.5280 C.3    94  LEU94       0.1693
     39  C         16.0140    1.0520   -5.8010 C.2    94  LEU94       0.2592
     40  O         15.2520    1.8040   -6.4000 O.2    94  LEU94      -0.2718
     41  CB        15.0540   -1.0710   -4.8700 C.3    94  LEU94       0.0284
     42  CG        14.4450   -1.7240   -3.6130 C.3    94  LEU94       0.0019
     43  CD1       13.1440   -2.4210   -3.9220 C.3    94  LEU94       0.0001
     44  CD2       15.4540   -2.6780   -3.0040 C.3    94  LEU94       0.0001
     45  N         17.2600    0.8400   -6.1980 N.am   95  ASP95      -0.1960
     46  CA        17.7370    1.4280   -7.4360 C.3    95  ASP95       0.1840
     47  C         16.9220    0.7460   -8.5450 C.2    95  ASP95       0.2622
     48  O         16.9840   -0.4760   -8.7110 O.2    95  ASP95      -0.2715
     49  CB        19.2330    1.1500   -7.6240 C.3    95  ASP95       0.1450
     50  CG        20.1010    2.2480   -7.0560 C.2    95  ASP95       0.3671
     51  OD1       19.5530    3.3430   -6.7930 O.co2  95  ASP95      -0.2456
     52  OD2       21.3260    2.0300   -6.8930 O.co2  95  ASP95      -0.2456
     53  N         16.1640    1.5500   -9.2910 N.am   96  TYR96      -0.1960
     54  CA        15.2950    1.0750  -10.3700 C.3    96  TYR96       0.1771
     55  C         16.0030    0.4390  -11.5680 C.2    96  TYR96       0.2619
     56  O         17.0570    0.9090  -12.0190 O.2    96  TYR96      -0.2715
     57  CB        14.4320    2.2320  -10.8580 C.3    96  TYR96       0.0574
     58  CG        13.4400    1.8770  -11.9410 C.ar   96  TYR96      -0.0198
     59  CD1       12.3760    1.0210  -11.6800 C.ar   96  TYR96      -0.0009
     60  CD2       13.5560    2.4160  -13.2200 C.ar   96  TYR96      -0.0009
     61  CE1       11.4450    0.7090  -12.6600 C.ar   96  TYR96       0.0417
     62  CE2       12.6340    2.1120  -14.2100 C.ar   96  TYR96       0.0417
     63  CZ        11.5790    1.2570  -13.9240 C.ar   96  TYR96       0.1957
     64  OH        10.6580    0.9420  -14.9050 O.3    96  TYR96      -0.2866
     65  N         15.4070   -0.6390  -12.0720 N.am   97  VAL97      -0.1964
     66  CA        15.9320   -1.3580  -13.2240 C.3    97  VAL97       0.1712
     67  C         14.7120   -1.4430  -14.1370 C.2    97  VAL97       0.2458
     68  O         13.6130   -1.7200  -13.6920 O.2    97  VAL97      -0.2730
     69  CB        16.5070   -2.7260  -12.7920 C.3    97  VAL97       0.0289
     70  CG1       17.2480   -3.3770  -13.9300 C.3    97  VAL97       0.0023
     71  CG2       17.4920   -2.5080  -11.6650 C.3    97  VAL97       0.0023
     72  N         14.8930   -1.1660  -15.4300 N.am   98  PRO98      -0.2716
     73  CA        13.7710   -1.1920  -16.3710 C.3    98  PRO98       0.1536
     74  C         13.1150   -2.4820  -16.8780 C.2    98  PRO98       0.2598
     75  O         11.9720   -2.4400  -17.3270 O.2    98  PRO98      -0.2715
     76  CB        14.2740   -0.2970  -17.5040 C.3    98  PRO98       0.0310
     77  CG        15.7470   -0.5740  -17.5250 C.3    98  PRO98       0.0237
     78  CD        16.1210   -0.6460  -16.0640 C.3    98  PRO98       0.0939
     79  N         13.7850   -3.6220  -16.8100 N.am   99  GLU99      -0.1964
     80  CA        13.1340   -4.8310  -17.3080 C.3    99  GLU99       0.1733
     81  C         13.3150   -6.0560  -16.4320 C.2    99  GLU99       0.2617
     82  O         13.9420   -5.9960  -15.3720 O.2    99  GLU99      -0.2715
     83  CB        13.6380   -5.1670  -18.7260 C.3    99  GLU99       0.0429
     84  CG        13.0780   -4.2940  -19.8500 C.3    99  GLU99       0.1163
     85  CD        11.6050   -4.5620  -20.1260 C.2    99  GLU99       0.3649
     86  OE1       10.9750   -3.7390  -20.8260 O.co2  99  GLU99      -0.2457
     87  OE2       11.0790   -5.5950  -19.6520 O.co2  99  GLU99      -0.2457
     88  N         12.7490   -7.1740  -16.8830 N.am  100  THR100     -0.1951
     89  CA        12.9140   -8.4350  -16.1760 C.3   100  THR100      0.1897
     90  C         13.0770   -9.5620  -17.1830 C.2   100  THR100      0.2313
     91  O         12.7120   -9.4230  -18.3570 O.2   100  THR100     -0.2863
     92  CB        11.7400   -8.7690  -15.2600 C.3   100  THR100      0.1794
     93  OG1       10.5890   -9.0940  -16.0500 O.3   100  THR100     -0.2208
     94  CG2       11.4480   -7.5970  -14.3470 C.3   100  THR100      0.0378
     95  N          9.6030  -10.3650  -18.6280 N.3   103  ARG103     -0.1245
     96  CA         9.0940   -9.4970  -19.6840 C.3   103  ARG103      0.1563
     97  C          9.8840   -9.6440  -20.9750 C.2   103  ARG103      0.2260
     98  O          9.3430   -9.4460  -22.0660 O.2   103  ARG103     -0.2867
     99  CB         9.1520   -8.0470  -19.2500 C.3   103  ARG103      0.0307
    100  CG         8.1320   -7.6900  -18.2300 C.3   103  ARG103      0.0489
    101  CD         8.6520   -6.5330  -17.4370 C.3   103  ARG103      0.2205
    102  NE         8.8900   -5.3550  -18.2650 N.pl3 103  ARG103     -0.0865
    103  CZ         7.9710   -4.4330  -18.5210 C.cat 103  ARG103      0.5346
    104  NH1        6.7460   -4.5610  -18.0160 N.pl3 103  ARG103      0.1354
    105  NH2        8.2870   -3.3710  -19.2500 N.pl3 103  ARG103      0.1354
    106  N         10.4730  -13.4560  -13.1390 N.3   147  GLN147     -0.1231
    107  CA         9.9320  -12.2030  -12.6240 C.3   147  GLN147      0.1698
    108  C         10.9060  -11.5290  -11.6600 C.2   147  GLN147      0.2592
    109  O         10.9790  -10.3030  -11.5960 O.2   147  GLN147     -0.2718
    110  CB         8.5960  -12.4390  -11.9020 C.3   147  GLN147      0.0381
    111  CG         7.4360  -12.8590  -12.8020 C.3   147  GLN147      0.0905
    112  CD         7.3770  -14.3620  -13.0520 C.2   147  GLN147      0.2608
    113  OE1        8.4040  -15.0530  -13.0600 O.2   147  GLN147     -0.2717
    114  NE2        6.1730  -14.8710  -13.2720 N.am  147  GLN147     -0.0878
    115  N         11.6640  -12.3420  -10.9240 N.am  148  ASN148     -0.1974
    116  CA        12.6140  -11.8490   -9.9300 C.3   148  ASN148      0.1688
    117  C         13.9870  -11.4190  -10.4360 C.2   148  ASN148      0.2292
    118  O         14.7580  -10.8090   -9.6910 O.2   148  ASN148     -0.2864
    119  CB        12.7910  -12.8940   -8.8310 C.3   148  ASN148      0.1181
    120  CG        11.5530  -13.0410   -7.9780 C.2   148  ASN148      0.2629
    121  OD1       10.8080  -12.0800   -7.7790 O.2   148  ASN148     -0.2716
    122  ND2       11.3310  -14.2400   -7.4520 N.am  148  ASN148     -0.0877
    123  N         15.8180   -8.9640  -12.5080 N.3   150  LEU150     -0.1245
    124  CA        15.7530   -7.6840  -13.2040 C.3   150  LEU150      0.1561
    125  C         16.9560   -7.5510  -14.1350 C.2   150  LEU150      0.2260
    126  O         17.9900   -8.1840  -13.9290 O.2   150  LEU150     -0.2867
    127  CB        15.8000   -6.5270  -12.1990 C.3   150  LEU150      0.0270
    128  CG        14.9050   -6.6200  -10.9490 C.3   150  LEU150      0.0019
    129  CD1       15.2090   -5.4770   -9.9800 C.3   150  LEU150      0.0001
    130  CD2       13.4230   -6.6020  -11.3560 C.3   150  LEU150      0.0001
    131  N         16.3880   -9.8470   -7.2710 N.3   161  CYS161     -0.1221
    132  CA        15.5900   -9.0370   -6.3570 C.3   161  CYS161      0.1808
    133  C         14.5250   -9.9260   -5.7120 C.2   161  CYS161      0.2601
    134  O         14.4230  -11.1080   -6.0220 O.2   161  CYS161     -0.2717
    135  CB        14.9020   -7.8860   -7.1030 C.3   161  CYS161      0.0970
    136  SG        13.4330   -8.3980   -8.0380 S.3   161  CYS161     -0.0800
    137  N         13.7130   -9.3340   -4.8430 N.am  162  ASP162     -0.1973
    138  CA        12.6400  -10.0520   -4.1440 C.3   162  ASP162      0.1709
    139  C         13.1390  -11.1150   -3.1750 C.2   162  ASP162      0.2293
    140  O         13.1750  -12.3060   -3.4860 O.2   162  ASP162     -0.2864
    141  CB        11.6520  -10.7020   -5.1250 C.3   162  ASP162      0.1436
    142  CG        10.4640  -11.3410   -4.4090 C.2   162  ASP162      0.3671
    143  OD1        9.9030  -10.6930   -3.4890 O.co2 162  ASP162     -0.2456
    144  OD2       10.0910  -12.4810   -4.7660 O.co2 162  ASP162     -0.2456
@<TRIPOS>BOND
     1    98    97    2
     2    97    96    1
     3    86    85   ar
     4    85    84    1
     5    85    87   ar
     6    84    83    1
     7    96    99    1
     8    96    95    1
     9    99   100    1
    10   105   103    1
    11    83    80    1
    12   103   102    2
    13   103   104    1
    14    91    90    2
    15   102   101    1
    16   100   101    1
    17    77    76    1
    18    77    78    1
    19    76    73    1
    20    75    74    2
    21    80    79    1
    22    80    81    1
    23    90    89    1
    24    88    81   am
    25    88    89    1
    26    74    79   am
    27    74    73    1
    28    81    82    2
    29    73    72    1
    30    89    92    1
    31    78    72    1
    32    93    92    1
    33    72    67   am
    34    92    94    1
    35    64    63    1
    36    62    63   ar
    37    62    60   ar
    38    67    68    2
    39    67    66    1
    40   125   126    2
    41   125   124    1
    42    70    69    1
    43    63    61   ar
    44   114   112   am
    45    66    69    1
    46    66    65    1
    47    60    58   ar
    48   124   123    1
    49   124   127    1
    50   106   107    1
    51   113   112    2
    52   112   111    1
    53   111   110    1
    54    69    71    1
    55    61    59   ar
    56   107   110    1
    57   107   108    1
    58     7     5    1
    59   127   128    1
    60    65    55   am
    61    56    55    2
    62    58    59   ar
    63    58    57    1
    64     5     2    1
    65     5     6    1
    66     4     3    2
    67   108   109    2
    68   108   115   am
    69    55    54    1
    70     2     3    1
    71     2     1    1
    72   130   128    1
    73     8     6    1
    74   128   129    1
    75   115   116    1
    76    57    54    1
    77   117   116    1
    78   117   118    2
    79    54    53    1
    80   116   119    1
    81    53    47   am
    82   119   120    1
    83    48    47    2
    84    47    46    1
    85    12    11    2
    86   136   135    1
    87   120   121    2
    88   120   122   am
    89    20    17    1
    90    49    46    1
    91    49    50    1
    92    46    45    1
    93   131   132    1
    94    14    13    1
    95    16    17    1
    96    13    15    1
    97    13    10    1
    98   135   132    1
    99    17    18    1
   100    11    10    1
   101    50    52   ar
   102    50    51   ar
   103    36    34    1
   104    30    31    1
   105    31    34    1
   106    31    32    1
   107    34    35    1
   108    40    39    2
   109   132   133    1
   110    10     9    1
   111    45    39   am
   112   134   133    2
   113    39    38    1
   114   133   137   am
   115    18    19    2
   116    32    33    2
   117   141   142    1
   118   141   138    1
   119    41    38    1
   120    41    42    1
   121   137   138    1
   122   144   142   ar
   123    38    37    1
   124   142   143   ar
   125   138   139    1
   126    43    42    1
   127    42    44    1
   128   140   139    2
   129    21    22    1
   130    22    25    1
   131    22    23    1
   132    25    26    1
   133    27    26    1
   134    27    28    1
   135    29    28    1
   136    23    24    2
