@<TRIPOS>MOLECULE
tmp/4dj4A00.pdb
 113 109 0 0 0
SMALL
GASTEIGER

@<TRIPOS>ATOM
      1  N        -17.9200   29.2400    7.2090 N.3    55  TRP55      -0.1241
      2  CA       -17.8960   27.7730    7.0350 C.3    55  TRP55       0.1605
      3  C        -16.6410   27.1990    6.3360 C.2    55  TRP55       0.2264
      4  O        -16.4060   25.9930    6.3960 O.2    55  TRP55      -0.2867
      5  CB       -19.1380   27.3160    6.2850 C.3    55  TRP55       0.0550
      6  CG       -19.2160   27.8430    4.8770 C.ar   55  TRP55       0.0003
      7  CD1      -19.8230   29.0190    4.4420 C.ar   55  TRP55       0.0946
      8  CD2      -18.6640   27.2300    3.6660 C.ar   55  TRP55       0.0152
      9  NE1      -19.7000   29.1700    3.0850 N.ar   55  TRP55      -0.2442
     10  CE2      -19.0190   28.1300    2.5540 C.ar   55  TRP55       0.0810
     11  CE3      -17.9470   26.0660    3.3940 C.ar   55  TRP55       0.0012
     12  CZ2      -18.6550   27.8590    1.2470 C.ar   55  TRP55       0.0191
     13  CZ3      -17.5790   25.8080    2.0670 C.ar   55  TRP55       0.0001
     14  CH2      -17.9280   26.6860    1.0220 C.ar   55  TRP55       0.0015
     15  N        -11.7760   24.0640    6.7880 N.3    59  LEU59      -0.1245
     16  CA       -11.3930   23.3710    5.5530 C.3    59  LEU59       0.1561
     17  C         -9.9050   23.5430    5.1590 C.2    59  LEU59       0.2260
     18  O         -9.4620   23.0080    4.1260 O.2    59  LEU59      -0.2867
     19  CB       -12.3040   23.8140    4.3990 C.3    59  LEU59       0.0270
     20  CG       -13.8210   23.5910    4.6010 C.3    59  LEU59       0.0019
     21  CD1      -14.5280   23.8000    3.2700 C.3    59  LEU59       0.0001
     22  CD2      -14.2100   22.2210    5.1820 C.3    59  LEU59       0.0001
     23  N        -19.1340   18.0510   12.9160 N.3    83  VAL83      -0.1245
     24  CA       -19.7650   18.0830   11.5880 C.3    83  VAL83       0.1561
     25  C        -18.8430   17.3800   10.5550 C.2    83  VAL83       0.2260
     26  O        -17.6320   17.5970   10.5130 O.2    83  VAL83      -0.2867
     27  CB       -20.1490   19.5310   11.1760 C.3    83  VAL83       0.0252
     28  CG1      -20.8850   19.5580    9.8370 C.3    83  VAL83       0.0019
     29  CG2      -21.0100   20.1710   12.2660 C.3    83  VAL83       0.0019
     30  N        -16.8510   15.8270    7.3610 N.3    85  ASP85      -0.1225
     31  CA       -16.2000   16.2850    6.1370 C.3    85  ASP85       0.1805
     32  C        -15.5610   17.7050    6.2290 C.2    85  ASP85       0.2597
     33  O        -14.9900   18.1820    5.2480 O.2    85  ASP85      -0.2718
     34  CB       -17.1740   16.2080    4.9320 C.3    85  ASP85       0.1424
     35  CG       -17.8330   14.8270    4.7710 C.2    85  ASP85       0.3668
     36  OD1      -17.1430   13.8080    4.9670 O.co2  85  ASP85      -0.2456
     37  OD2      -19.0390   14.7600    4.4210 O.co2  85  ASP85      -0.2456
     38  N        -15.6310   18.3650    7.3870 N.am   86  MET86      -0.1979
     39  CA       -15.1910   19.7610    7.5100 C.3    86  MET86       0.1605
     40  C        -13.7230   19.8320    7.8820 C.2    86  MET86       0.2287
     41  O        -13.3720   20.2390    9.0050 O.2    86  MET86      -0.2864
     42  CB       -16.0220   20.5300    8.5440 C.3    86  MET86       0.0413
     43  CG       -17.4990   20.6340    8.2360 C.3    86  MET86       0.0598
     44  SD       -17.8400   21.0410    6.5160 S.3    86  MET86      -0.1393
     45  CE       -17.9600   22.8410    6.6060 C.3    86  MET86       0.0692
     46  N        -11.9570   16.6770    3.2610 N.3    90  GLY90      -0.1210
     47  CA       -13.3570   16.7860    2.8130 C.3    90  GLY90       0.1956
     48  C        -13.5970   17.9070    1.7920 C.2    90  GLY90       0.2611
     49  O        -14.3680   17.7490    0.8200 O.2    90  GLY90      -0.2717
     50  N        -12.9470   19.0490    2.0360 N.am   91  ALA91      -0.1979
     51  CA       -13.0450   20.2170    1.1590 C.3    91  ALA91       0.1597
     52  C        -12.6570   19.8400   -0.2910 C.2    91  ALA91       0.2287
     53  O        -13.3790   20.1440   -1.2580 O.2    91  ALA91      -0.2864
     54  CB       -12.1520   21.3100    1.7010 C.3    91  ALA91       0.0319
     55  N        -15.3230   17.6780   -1.9460 N.3    94  ASN94      -0.1225
     56  CA       -16.4410   18.5480   -2.2260 C.3    94  ASN94       0.1785
     57  C        -16.2690   19.3450   -3.5070 C.2    94  ASN94       0.2597
     58  O        -17.0520   19.2130   -4.4600 O.2    94  ASN94      -0.2718
     59  CB       -16.6530   19.5170   -1.0740 C.3    94  ASN94       0.1169
     60  CG       -17.9640   20.2510   -1.1800 C.2    94  ASN94       0.2627
     61  OD1      -18.7660   19.9940   -2.0870 O.2    94  ASN94      -0.2716
     62  ND2      -18.1900   21.1740   -0.2540 N.am   94  ASN94      -0.0877
     63  N        -15.2330   20.1670   -3.5390 N.am   95  PHE95      -0.1976
     64  CA       -15.0680   21.0990   -4.6480 C.3    95  PHE95       0.1639
     65  C        -14.6700   20.4060   -5.9180 C.2    95  PHE95       0.2290
     66  O        -14.9300   20.9210   -7.0040 O.2    95  PHE95      -0.2864
     67  CB       -14.0880   22.2030   -4.2650 C.3    95  PHE95       0.0560
     68  CG       -14.5900   23.0490   -3.1460 C.ar   95  PHE95      -0.0200
     69  CD1      -15.7660   23.7780   -3.2960 C.ar   95  PHE95      -0.0042
     70  CD2      -13.9470   23.0690   -1.9230 C.ar   95  PHE95      -0.0042
     71  CE1      -16.2620   24.5430   -2.2430 C.ar   95  PHE95      -0.0003
     72  CE2      -14.4370   23.8360   -0.8770 C.ar   95  PHE95      -0.0003
     73  CZ       -15.5800   24.5890   -1.0490 C.ar   95  PHE95      -0.0000
     74  N        -18.1620   19.2720   -7.2320 N.3    98  GLN98      -0.1245
     75  CA       -18.7750   20.4800   -7.8460 C.3    98  GLN98       0.1566
     76  C        -18.2560   20.8160   -9.2470 C.2    98  GLN98       0.2260
     77  O        -19.0190   21.1180  -10.1460 O.2    98  GLN98      -0.2867
     78  CB       -18.5670   21.6910   -6.9700 C.3    98  GLN98       0.0367
     79  CG       -19.2270   21.5660   -5.6090 C.3    98  GLN98       0.0905
     80  CD       -19.2150   22.8710   -4.8880 C.2    98  GLN98       0.2608
     81  OE1      -19.1590   23.9170   -5.5300 O.2    98  GLN98      -0.2717
     82  NE2      -19.2630   22.8360   -3.5570 N.am   98  GLN98      -0.0878
     83  N        -26.7570   26.5740   -6.2870 N.3   110  ARG110     -0.1231
     84  CA       -26.0010   26.2450   -5.0750 C.3   110  ARG110      0.1694
     85  C        -24.4640   26.3750   -5.2120 C.2   110  ARG110      0.2592
     86  O        -23.7970   26.5720   -4.1970 O.2   110  ARG110     -0.2718
     87  CB       -26.3460   24.8230   -4.5830 C.3   110  ARG110      0.0321
     88  CG       -27.7030   24.6720   -3.8970 C.3   110  ARG110      0.0489
     89  CD       -27.9700   23.2120   -3.5420 C.3   110  ARG110      0.2205
     90  NE       -27.0940   22.7230   -2.4740 N.pl3 110  ARG110     -0.0865
     91  CZ       -27.5130   22.2550   -1.2990 C.cat 110  ARG110      0.5346
     92  NH1      -28.8120   22.1830   -1.0180 N.pl3 110  ARG110      0.1354
     93  NH2      -26.6240   21.8450   -0.3970 N.pl3 110  ARG110      0.1354
     94  N        -23.9190   26.2660   -6.4330 N.am  111  TYR111     -0.1962
     95  CA       -22.4680   26.2390   -6.6420 C.3   111  TYR111      0.1771
     96  C        -21.9240   27.2900   -7.6130 C.2   111  TYR111      0.2619
     97  O        -22.3930   27.4520   -8.7350 O.2   111  TYR111     -0.2715
     98  CB       -22.0280   24.8650   -7.1310 C.3   111  TYR111      0.0574
     99  CG       -22.4080   23.7180   -6.2200 C.ar  111  TYR111     -0.0198
    100  CD1      -22.7930   22.4950   -6.7450 C.ar  111  TYR111     -0.0009
    101  CD2      -22.3690   23.8530   -4.8420 C.ar  111  TYR111     -0.0009
    102  CE1      -23.1320   21.4350   -5.9230 C.ar  111  TYR111      0.0417
    103  CE2      -22.7170   22.8010   -4.0100 C.ar  111  TYR111      0.0417
    104  CZ       -23.0960   21.5950   -4.5610 C.ar  111  TYR111      0.1957
    105  OH       -23.4350   20.5430   -3.7450 O.3   111  TYR111     -0.2866
    106  N        -20.8820   27.9710   -7.1630 N.am  112  ASN112     -0.1972
    107  CA       -20.1760   28.9950   -7.9320 C.3   112  ASN112      0.1688
    108  C        -18.8280   28.4160   -8.2990 C.2   112  ASN112      0.2292
    109  O        -17.9720   28.2350   -7.4300 O.2   112  ASN112     -0.2864
    110  CB       -20.0310   30.2580   -7.0750 C.3   112  ASN112      0.1181
    111  CG       -19.1590   31.3320   -7.7180 C.2   112  ASN112      0.2629
    112  OD1      -18.1390   31.0660   -8.3480 O.2   112  ASN112     -0.2716
    113  ND2      -19.5680   32.5800   -7.5360 N.am  112  ASN112     -0.0877
@<TRIPOS>BOND
     1    77    76    2
     2    76    75    1
     3    97    96    2
     4   112   111    2
     5   108   107    1
     6   108   109    2
     7   107   106    1
     8   107   110    1
     9    75    74    1
    10    75    78    1
    11   111   113   am
    12   111   110    1
    13    96   106   am
    14    96    95    1
    15    98    95    1
    16    98    99    1
    17    66    65    2
    18    78    79    1
    19   100    99   ar
    20   100   102   ar
    21    95    94    1
    22    94    85   am
    23    83    84    1
    24    99   101   ar
    25   102   104   ar
    26    65    64    1
    27    79    80    1
    28    81    80    2
    29    85    84    1
    30    85    86    2
    31    84    87    1
    32    80    82   am
    33   101   103   ar
    34    64    67    1
    35    64    63    1
    36    87    88    1
    37   104   103   ar
    38   104   105    1
    39    58    57    2
    40    67    68    1
    41    88    89    1
    42    89    90    1
    43    63    57   am
    44    57    56    1
    45    69    68   ar
    46    69    71   ar
    47    68    70   ar
    48    90    91    2
    49    71    73   ar
    50    56    55    1
    51    56    59    1
    52    61    60    2
    53    70    72   ar
    54    91    92    1
    55    91    93    1
    56    53    52    2
    57    60    59    1
    58    60    62   am
    59    73    72   ar
    60    52    51    1
    61    49    48    2
    62    14    12   ar
    63    14    13   ar
    64    51    54    1
    65    51    50    1
    66    12    10   ar
    67    48    50   am
    68    48    47    1
    69    13    11   ar
    70    10     9   ar
    71    10     8   ar
    72    47    46    1
    73     9     7   ar
    74    21    20    1
    75    11     8   ar
    76     8     6   ar
    77    18    17    2
    78    19    20    1
    79    19    16    1
    80    37    35   ar
    81     7     6   ar
    82    20    22    1
    83    35    34    1
    84    35    36   ar
    85     6     5    1
    86    34    31    1
    87    17    16    1
    88    33    32    2
    89    16    15    1
    90    31    32    1
    91    31    30    1
    92    32    38   am
    93     5     2    1
    94     3     4    2
    95     3     2    1
    96    44    45    1
    97    44    43    1
    98     2     1    1
    99    38    39    1
   100    39    40    1
   101    39    42    1
   102    40    41    2
   103    43    42    1
   104    28    27    1
   105    26    25    2
   106    25    24    1
   107    27    24    1
   108    27    29    1
   109    24    23    1
