@<TRIPOS>MOLECULE
tmp/4dj4B01.pdb
 133 129 0 0 0
SMALL
GASTEIGER

@<TRIPOS>ATOM
      1  N        -16.7080   34.3570  -16.2280 N.3    51  TYR51      -0.1241
      2  CA       -16.6720   35.7940  -15.8410 C.3    51  TYR51       0.1605
      3  C        -17.3730   36.6950  -16.8800 C.2    51  TYR51       0.2264
      4  O        -18.0820   37.6570  -16.5290 O.2    51  TYR51      -0.2867
      5  CB       -15.2200   36.2830  -15.6820 C.3    51  TYR51       0.0534
      6  CG       -15.0990   37.7810  -15.4870 C.ar   51  TYR51      -0.0201
      7  CD1      -15.3050   38.3570  -14.2260 C.ar   51  TYR51      -0.0009
      8  CD2      -14.7910   38.6280  -16.5580 C.ar   51  TYR51      -0.0009
      9  CE1      -15.2080   39.7370  -14.0330 C.ar   51  TYR51       0.0417
     10  CE2      -14.7040   40.0140  -16.3810 C.ar   51  TYR51       0.0417
     11  CZ       -14.9140   40.5600  -15.1140 C.ar   51  TYR51       0.1957
     12  OH       -14.8270   41.9270  -14.9220 O.3    51  TYR51      -0.2866
     13  N        -21.2580   36.5180  -16.4110 N.3    54  LYS54      -0.1231
     14  CA       -21.8260   36.5390  -15.0420 C.3    54  LYS54       0.1693
     15  C        -23.2690   36.9980  -15.0290 C.2    54  LYS54       0.2592
     16  O        -24.0790   36.4540  -14.3050 O.2    54  LYS54      -0.2718
     17  CB       -21.0860   37.5260  -14.1370 C.3    54  LYS54       0.0285
     18  CG       -19.7700   37.0950  -13.5420 C.3    54  LYS54       0.0035
     19  CD       -19.4990   37.9550  -12.3030 C.3    54  LYS54       0.0206
     20  CE       -18.0450   37.9560  -11.8950 C.3    54  LYS54       0.1093
     21  NZ       -17.8810   38.3700  -10.4720 N.3    54  LYS54      -0.1314
     22  N        -23.5370   38.0610  -15.7890 N.am   55  TRP55      -0.1976
     23  CA       -24.8740   38.6740  -15.9290 C.3    55  TRP55       0.1640
     24  C        -25.9790   37.7330  -16.3850 C.2    55  TRP55       0.2290
     25  O        -27.1420   38.0360  -16.2140 O.2    55  TRP55      -0.2864
     26  CB       -24.8040   39.8770  -16.8970 C.3    55  TRP55       0.0576
     27  CG       -24.3510   39.5340  -18.2890 C.ar   55  TRP55       0.0006
     28  CD1      -23.0370   39.4980  -18.7810 C.ar   55  TRP55       0.0946
     29  CD2      -25.1840   39.1470  -19.4230 C.ar   55  TRP55       0.0152
     30  NE1      -23.0050   39.1290  -20.0950 N.ar   55  TRP55      -0.2442
     31  CE2      -24.2590   38.9070  -20.5500 C.ar   55  TRP55       0.0810
     32  CE3      -26.5460   38.9810  -19.6200 C.ar   55  TRP55       0.0012
     33  CZ2      -24.7100   38.5170  -21.7980 C.ar   55  TRP55       0.0191
     34  CZ3      -26.9900   38.6000  -20.8860 C.ar   55  TRP55       0.0001
     35  CH2      -26.0950   38.3580  -21.9490 C.ar   55  TRP55       0.0015
     36  N        -30.8790   35.1030  -15.1830 N.3    59  LEU59      -0.1245
     37  CA       -31.8100   34.8480  -16.2950 C.3    59  LEU59       0.1561
     38  C        -32.3260   33.3890  -16.3900 C.2    59  LEU59       0.2260
     39  O        -33.1780   33.0700  -17.2220 O.2    59  LEU59      -0.2867
     40  CB       -31.1340   35.1900  -17.6170 C.3    59  LEU59       0.0270
     41  CG       -30.4770   36.5810  -17.7750 C.3    59  LEU59       0.0019
     42  CD1      -30.1230   36.8070  -19.2540 C.3    59  LEU59       0.0001
     43  CD2      -31.3550   37.7080  -17.2260 C.3    59  LEU59       0.0001
     44  N        -30.2780   42.4240   -6.6980 N.3    81  HIS81      -0.1241
     45  CA       -29.9820   43.8470   -6.4460 C.3    81  HIS81       0.1621
     46  C        -30.9430   44.7980   -7.1240 C.2    81  HIS81       0.2264
     47  O        -30.6370   45.9740   -7.3060 O.2    81  HIS81      -0.2867
     48  CB       -28.5370   44.1620   -6.8500 C.3    81  HIS81       0.0745
     49  CG       -27.5210   43.2240   -6.2370 C.ar   81  HIS81       0.0817
     50  ND1      -26.6570   42.4950   -6.9840 N.ar   81  HIS81      -0.2268
     51  CD2      -27.2830   42.8780   -4.9030 C.ar   81  HIS81       0.1154
     52  CE1      -25.8910   41.7410   -6.1700 C.ar   81  HIS81       0.1986
     53  NE2      -26.2780   41.9730   -4.8950 N.ar   81  HIS81      -0.2212
     54  N        -32.0060   45.0470  -10.2600 N.3    83  VAL83      -0.1245
     55  CA       -31.9230   45.3710  -11.6910 C.3    83  VAL83       0.1561
     56  C        -33.0590   44.6580  -12.4370 C.2    83  VAL83       0.2260
     57  O        -33.1600   43.4210  -12.4470 O.2    83  VAL83      -0.2867
     58  CB       -30.5540   45.0660  -12.3480 C.3    83  VAL83       0.0252
     59  CG1      -30.5480   45.5480  -13.8000 C.3    83  VAL83       0.0019
     60  CG2      -29.4290   45.7500  -11.5870 C.3    83  VAL83       0.0019
     61  N        -35.9120   43.3360  -15.2080 N.3    85  ASP85      -0.1225
     62  CA       -35.8680   42.4290  -16.3530 C.3    85  ASP85       0.1805
     63  C        -34.8650   41.2570  -16.2150 C.2    85  ASP85       0.2597
     64  O        -34.8600   40.3600  -17.0580 O.2    85  ASP85      -0.2718
     65  CB       -35.5950   43.1980  -17.6640 C.3    85  ASP85       0.1424
     66  CG       -36.5880   44.3270  -17.9020 C.2    85  ASP85       0.3668
     67  OD1      -37.8030   44.0320  -17.9390 O.co2  85  ASP85      -0.2456
     68  OD2      -36.1520   45.4960  -18.0660 O.co2  85  ASP85      -0.2456
     69  N        -34.0270   41.2510  -15.1750 N.am   86  MET86      -0.1979
     70  CA       -32.9890   40.2160  -15.0340 C.3    86  MET86       0.1605
     71  C        -33.6110   38.9770  -14.3670 C.2    86  MET86       0.2287
     72  O        -33.4040   38.6670  -13.1730 O.2    86  MET86      -0.2864
     73  CB       -31.7650   40.7690  -14.2920 C.3    86  MET86       0.0413
     74  CG       -31.1500   41.9950  -14.9560 C.3    86  MET86       0.0598
     75  SD       -30.6530   41.7750  -16.6950 S.3    86  MET86      -0.1393
     76  CE       -29.2150   40.7110  -16.4730 C.3    86  MET86       0.0692
     77  N        -37.7710   38.1430  -18.4840 N.3    90  GLY90      -0.1210
     78  CA       -37.1070   39.2590  -19.1780 C.3    90  GLY90       0.1956
     79  C        -36.2110   38.7740  -20.3260 C.2    90  GLY90       0.2611
     80  O        -36.1900   39.3800  -21.4190 O.2    90  GLY90      -0.2717
     81  N        -35.4890   37.6760  -20.0810 N.am   91  ALA91      -0.1979
     82  CA       -34.4610   37.2110  -20.9980 C.3    91  ALA91       0.1597
     83  C        -35.0490   36.6810  -22.3050 C.2    91  ALA91       0.2287
     84  O        -34.4970   36.9430  -23.3860 O.2    91  ALA91      -0.2864
     85  CB       -33.5670   36.1520  -20.3350 C.3    91  ALA91       0.0319
     86  N        -36.0160   39.6550  -24.3140 N.3    94  ASN94      -0.1225
     87  CA       -34.7790   40.2820  -24.7740 C.3    94  ASN94       0.1785
     88  C        -34.2880   39.5940  -26.0390 C.2    94  ASN94       0.2597
     89  O        -34.0330   40.2400  -27.0750 O.2    94  ASN94      -0.2718
     90  CB       -33.7130   40.1310  -23.6960 C.3    94  ASN94       0.1169
     91  CG       -32.4550   40.9490  -23.9600 C.2    94  ASN94       0.2627
     92  OD1      -32.3930   41.8090  -24.8460 O.2    94  ASN94      -0.2716
     93  ND2      -31.4320   40.6650  -23.1670 N.am   94  ASN94      -0.0877
     94  N        -34.2040   38.2700  -25.9560 N.am   95  PHE95      -0.1976
     95  CA       -33.5700   37.5130  -27.0090 C.3    95  PHE95       0.1639
     96  C        -34.5100   37.2430  -28.1840 C.2    95  PHE95       0.2290
     97  O        -34.0510   36.9250  -29.2970 O.2    95  PHE95      -0.2864
     98  CB       -32.9350   36.2470  -26.4180 C.3    95  PHE95       0.0560
     99  CG       -31.7660   36.5500  -25.5190 C.ar   95  PHE95      -0.0200
    100  CD1      -30.5880   37.0890  -26.0550 C.ar   95  PHE95      -0.0042
    101  CD2      -31.8460   36.3450  -24.1500 C.ar   95  PHE95      -0.0042
    102  CE1      -29.5140   37.3800  -25.2260 C.ar   95  PHE95      -0.0003
    103  CE2      -30.7780   36.6440  -23.3290 C.ar   95  PHE95      -0.0003
    104  CZ       -29.6160   37.1660  -23.8600 C.ar   95  PHE95      -0.0000
    105  N        -33.9110   40.4840  -30.0980 N.3    98  GLN98      -0.1245
    106  CA       -32.6150   40.4710  -30.7800 C.3    98  GLN98       0.1566
    107  C        -32.7240   39.6780  -32.0870 C.2    98  GLN98       0.2260
    108  O        -32.2750   40.1440  -33.1610 O.2    98  GLN98      -0.2867
    109  CB       -31.4920   39.9040  -29.8750 C.3    98  GLN98       0.0367
    110  CG       -31.1740   40.7880  -28.6650 C.3    98  GLN98       0.0905
    111  CD       -30.0290   40.2590  -27.7990 C.2    98  GLN98       0.2608
    112  OE1      -29.1320   39.5340  -28.2850 O.2    98  GLN98      -0.2717
    113  NE2      -30.0410   40.6360  -26.5080 N.am   98  GLN98      -0.0878
    114  N        -24.7590   42.6270  -30.2740 N.3   107  TYR107     -0.1227
    115  CA       -25.6540   41.4850  -30.3490 C.3   107  TYR107      0.1736
    116  C        -25.0140   40.3830  -31.1680 C.2   107  TYR107      0.2595
    117  O        -24.4540   40.6300  -32.2430 O.2   107  TYR107     -0.2718
    118  CB       -27.0200   41.8680  -30.9370 C.3   107  TYR107      0.0548
    119  CG       -27.8130   42.8160  -30.0530 C.ar  107  TYR107     -0.0200
    120  CD1      -28.9150   43.5070  -30.5420 C.ar  107  TYR107     -0.0009
    121  CD2      -27.4420   43.0230  -28.7300 C.ar  107  TYR107     -0.0009
    122  CE1      -29.6350   44.3750  -29.7270 C.ar  107  TYR107      0.0417
    123  CE2      -28.1440   43.8860  -27.9110 C.ar  107  TYR107      0.0417
    124  CZ       -29.2380   44.5620  -28.4070 C.ar  107  TYR107      0.1957
    125  OH       -29.9230   45.4200  -27.5760 O.3   107  TYR107     -0.2866
    126  N        -25.0780   39.1730  -30.6110 N.am  108  ASN108     -0.1974
    127  CA       -24.5770   37.9580  -31.2400 C.3   108  ASN108      0.1688
    128  C        -25.7360   36.9710  -31.3350 C.2   108  ASN108      0.2292
    129  O        -26.3070   36.5700  -30.2940 O.2   108  ASN108     -0.2864
    130  CB       -23.4370   37.3660  -30.4140 C.3   108  ASN108      0.1181
    131  CG       -22.9610   36.0110  -30.9280 C.2   108  ASN108      0.2629
    132  OD1      -23.7380   35.2070  -31.5010 O.2   108  ASN108     -0.2716
    133  ND2      -21.6630   35.7530  -30.7330 N.am  108  ASN108     -0.0877
@<TRIPOS>BOND
     1   108   107    2
     2   117   116    2
     3   107   106    1
     4   132   131    2
     5   128   127    1
     6   128   129    2
     7   127   126    1
     8   127   130    1
     9   116   126   am
    10   116   115    1
    11   118   115    1
    12   118   119    1
    13   131   133   am
    14   131   130    1
    15   106   105    1
    16   106   109    1
    17   120   119   ar
    18   120   122   ar
    19   115   114    1
    20   119   121   ar
    21   109   110    1
    22   122   124   ar
    23    97    96    2
    24   121   123   ar
    25   110   111    1
    26   124   123   ar
    27   124   125    1
    28   112   111    2
    29    96    95    1
    30   111   113   am
    31    89    88    2
    32    95    98    1
    33    95    94    1
    34    98    99    1
    35   100    99   ar
    36   100   102   ar
    37    88    94   am
    38    88    87    1
    39    99   101   ar
    40   102   104   ar
    41    92    91    2
    42    87    86    1
    43    87    90    1
    44   101   103   ar
    45    91    90    1
    46    91    93   am
    47   104   103   ar
    48    84    83    2
    49    83    82    1
    50    35    33   ar
    51    35    34   ar
    52    33    31   ar
    53    80    79    2
    54    82    85    1
    55    82    81    1
    56    34    32   ar
    57    31    30   ar
    58    31    29   ar
    59    79    81   am
    60    79    78    1
    61    30    28   ar
    62    32    29   ar
    63    29    27   ar
    64    42    41    1
    65    78    77    1
    66    28    27   ar
    67    27    26    1
    68    68    66   ar
    69    67    66   ar
    70    66    65    1
    71    41    40    1
    72    41    43    1
    73    65    62    1
    74    40    37    1
    75    39    38    2
    76    64    63    2
    77    26    23    1
    78     3     4    2
    79     3     2    1
    80    75    76    1
    81    75    74    1
    82     8    10   ar
    83     8     6   ar
    84    13    14    1
    85    38    37    1
    86    24    25    2
    87    24    23    1
    88    10    11   ar
    89    62    63    1
    90    62    61    1
    91    37    36    1
    92     1     2    1
    93    63    69   am
    94    23    22    1
    95     2     5    1
    96    22    15   am
    97     5     6    1
    98     6     7   ar
    99    69    70    1
   100    11    12    1
   101    11     9   ar
   102    14    15    1
   103    14    17    1
   104    70    71    1
   105    70    73    1
   106    15    16    2
   107    74    73    1
   108    71    72    2
   109     7     9   ar
   110    17    18    1
   111    59    58    1
   112    18    19    1
   113    57    56    2
   114    56    55    1
   115    58    55    1
   116    58    60    1
   117    19    20    1
   118    20    21    1
   119    55    54    1
   120    47    46    2
   121    46    45    1
   122    50    49   ar
   123    50    52   ar
   124    48    45    1
   125    48    49    1
   126    44    45    1
   127    49    51   ar
   128    52    53   ar
   129    51    53   ar
