@<TRIPOS>MOLECULE
tmp/4dj8A01.pdb
 134 126 0 0 0
SMALL
GASTEIGER

@<TRIPOS>ATOM
      1  N         55.7450  -19.8000   76.7660 N.3    88  TYR88      -0.1241
      2  CA        54.6760  -20.0300   77.7130 C.3    88  TYR88       0.1605
      3  C         53.3440  -19.8720   77.0050 C.2    88  TYR88       0.2264
      4  O         53.1070  -18.8350   76.3700 O.2    88  TYR88      -0.2867
      5  CB        54.7620  -19.0540   78.8750 C.3    88  TYR88       0.0534
      6  CG        53.8600  -19.3830   80.0430 C.ar   88  TYR88      -0.0201
      7  CD1       54.3190  -20.1550   81.1190 C.ar   88  TYR88      -0.0009
      8  CD2       52.5590  -18.9090   80.0890 C.ar   88  TYR88      -0.0009
      9  CE1       53.4880  -20.4280   82.2230 C.ar   88  TYR88       0.0417
     10  CE2       51.7180  -19.1840   81.1770 C.ar   88  TYR88       0.0417
     11  CZ        52.1870  -19.9380   82.2370 C.ar   88  TYR88       0.1957
     12  OH        51.3400  -20.2090   83.2890 O.3    88  TYR88      -0.2866
     13  N         59.2710   -7.7310   92.3570 N.3   121  ARG121     -0.1245
     14  CA        60.2070   -8.4960   91.5300 C.3   121  ARG121      0.1563
     15  C         59.9610   -8.2860   90.0260 C.2   121  ARG121      0.2260
     16  O         58.8430   -7.9870   89.5800 O.2   121  ARG121     -0.2867
     17  CB        60.1150   -9.9910   91.8450 C.3   121  ARG121      0.0307
     18  CG        60.7440  -10.4200   93.1580 C.3   121  ARG121      0.0489
     19  CD        61.3960  -11.7920   93.0010 C.3   121  ARG121      0.2205
     20  NE        60.5930  -12.9750   93.3630 N.pl3 121  ARG121     -0.0865
     21  CZ        59.3020  -13.0200   93.7280 C.cat 121  ARG121      0.5346
     22  NH1       58.5280  -11.9330   93.7830 N.pl3 121  ARG121      0.1354
     23  NH2       58.7710  -14.1960   94.0440 N.pl3 121  ARG121      0.1354
     24  N         60.5950  -12.8710   87.0540 N.3   124  GLY124     -0.1210
     25  CA        59.7830  -14.1040   86.9610 C.3   124  GLY124      0.1956
     26  C         60.0240  -14.8550   85.6630 C.2   124  GLY124      0.2613
     27  O         59.8980  -14.2610   84.5930 O.2   124  GLY124     -0.2717
     28  N         60.4020  -16.1400   85.7630 N.am  125  THR125     -0.1938
     29  CA        60.7510  -17.0000   84.6010 C.3   125  THR125      0.2028
     30  C         59.9930  -18.3370   84.5970 C.2   125  THR125      0.2643
     31  O         59.1440  -18.5860   85.4260 O.2   125  THR125     -0.2714
     32  CB        62.2870  -17.3390   84.5100 C.3   125  THR125      0.1808
     33  OG1       62.6620  -18.2710   85.5490 O.3   125  THR125     -0.2208
     34  CG2       63.1950  -16.0530   84.4940 C.3   125  THR125      0.0379
     35  N         60.3080  -19.2140   83.6680 N.am  126  THR126     -0.1936
     36  CA        59.5740  -20.4510   83.5730 C.3   126  THR126      0.2028
     37  C         60.3790  -21.4210   82.7590 C.2   126  THR126      0.2642
     38  O         61.1320  -20.9980   81.8840 O.2   126  THR126     -0.2714
     39  CB        58.1930  -20.2450   82.8660 C.3   126  THR126      0.1808
     40  OG1       57.7230  -21.4960   82.3520 O.3   126  THR126     -0.2208
     41  CG2       58.3180  -19.3110   81.6990 C.3   126  THR126      0.0379
     42  N         60.1910  -22.7150   83.0190 N.am  127  SER127     -0.1949
     43  CA        60.8190  -23.7940   82.2110 C.3   127  SER127      0.1924
     44  C         60.1730  -24.0330   80.8160 C.2   127  SER127      0.2314
     45  O         60.7020  -24.7790   79.9900 O.2   127  SER127     -0.2863
     46  CB        60.9080  -25.0930   83.0010 C.3   127  SER127      0.2116
     47  OG        59.6090  -25.5430   83.3510 O.3   127  SER127     -0.2180
     48  N         65.4920  -21.9570   83.1620 N.3   134  SER134     -0.1217
     49  CA        64.2890  -21.1390   83.0420 C.3   134  SER134      0.1889
     50  C         64.5290  -19.6830   82.6420 C.2   134  SER134      0.2288
     51  O         65.3080  -18.9890   83.2930 O.2   134  SER134     -0.2866
     52  CB        63.4970  -21.1890   84.3420 C.3   134  SER134      0.2089
     53  OG        63.1880  -22.5360   84.6730 O.3   134  SER134     -0.2183
     54  N         58.0670  -10.2580   83.5510 N.3   142  TRP142     -0.1241
     55  CA        57.0680  -10.9940   84.3200 C.3   142  TRP142      0.1605
     56  C         56.9350  -10.3890   85.6860 C.2   142  TRP142      0.2264
     57  O         57.7420  -10.6500   86.5850 O.2   142  TRP142     -0.2867
     58  CB        57.4010  -12.4800   84.4460 C.3   142  TRP142      0.0550
     59  CG        56.1890  -13.2700   84.8650 C.ar  142  TRP142      0.0003
     60  CD1       55.0410  -12.7880   85.5050 C.ar  142  TRP142      0.0946
     61  CD2       55.9440  -14.7100   84.6880 C.ar  142  TRP142      0.0152
     62  NE1       54.1330  -13.7890   85.7070 N.ar  142  TRP142     -0.2442
     63  CE2       54.6030  -14.9680   85.2440 C.ar  142  TRP142      0.0810
     64  CE3       56.6610  -15.7750   84.1270 C.ar  142  TRP142      0.0012
     65  CZ2       54.0310  -16.2360   85.2320 C.ar  142  TRP142      0.0191
     66  CZ3       56.0620  -17.0490   84.1130 C.ar  142  TRP142      0.0001
     67  CH2       54.7790  -17.2660   84.6550 C.ar  142  TRP142      0.0015
     68  N         55.9010   -9.5610   89.3110 N.3   144  LEU144     -0.1245
     69  CA        55.5300  -10.3410   90.4790 C.3   144  LEU144      0.1561
     70  C         55.1850   -9.5260   91.7490 C.2   144  LEU144      0.2260
     71  O         54.8870   -8.3370   91.6900 O.2   144  LEU144     -0.2867
     72  CB        56.6640  -11.3210   90.7910 C.3   144  LEU144      0.0270
     73  CG        56.8000  -12.5540   89.9070 C.3   144  LEU144      0.0019
     74  CD1       57.7250  -13.5830   90.5780 C.3   144  LEU144      0.0001
     75  CD2       55.4260  -13.1490   89.6690 C.3   144  LEU144      0.0001
     76  N         48.1320  -12.4840   82.6380 N.3   174  HIS174     -0.1241
     77  CA        48.4010  -13.8320   83.0730 C.3   174  HIS174      0.1621
     78  C         47.2210  -14.4610   83.7630 C.2   174  HIS174      0.2264
     79  O         46.7080  -13.9280   84.7460 O.2   174  HIS174     -0.2867
     80  CB        49.6110  -13.8620   83.9790 C.3   174  HIS174      0.0745
     81  CG        49.9290  -15.2350   84.5290 C.ar  174  HIS174      0.0817
     82  ND1       50.1040  -15.4690   85.8360 N.ar  174  HIS174     -0.2268
     83  CD2       50.0940  -16.4640   83.8880 C.ar  174  HIS174      0.1154
     84  CE1       50.3910  -16.7730   86.0270 C.ar  174  HIS174      0.1986
     85  NE2       50.3730  -17.3830   84.8370 N.ar  174  HIS174     -0.2212
     86  N         46.5270  -17.6100   85.8490 N.3   176  SER176     -0.1202
     87  CA        47.1390  -18.7100   86.6280 C.3   176  SER176      0.2020
     88  C         46.2750  -19.9710   86.6830 C.2   176  SER176      0.2619
     89  O         45.0420  -19.8920   86.6480 O.2   176  SER176     -0.2717
     90  CB        47.3910  -18.2030   88.0400 C.3   176  SER176      0.2103
     91  OG        47.3940  -16.7670   88.0380 O.3   176  SER176     -0.2182
     92  N         46.9100  -21.1360   86.7800 N.am  177  GLY177     -0.1956
     93  CA        46.1600  -22.4070   86.8570 C.3   177  GLY177      0.1869
     94  C         45.1320  -22.5070   87.9860 C.2   177  GLY177      0.2309
     95  O         44.0820  -23.1030   87.8160 O.2   177  GLY177     -0.2863
     96  N         47.0270  -20.1690   93.0510 N.3   181  GLU181     -0.1245
     97  CA        48.2600  -19.8280   92.3580 C.3   181  GLU181      0.1567
     98  C         48.3320  -18.3120   92.0510 C.2   181  GLU181      0.2260
     99  O         49.3580  -17.6620   92.2780 O.2   181  GLU181     -0.2867
    100  CB        48.4450  -20.6920   91.1060 C.3   181  GLU181      0.0388
    101  CG        49.9220  -20.9890   90.7870 C.3   181  GLU181      0.1160
    102  CD        50.7020  -21.5960   91.9790 C.2   181  GLU181      0.3649
    103  OE1       50.0760  -21.9530   93.0100 O.co2 181  GLU181     -0.2457
    104  OE2       51.9470  -21.7190   91.8810 O.co2 181  GLU181     -0.2457
    105  N         49.8030  -16.9060   95.3610 N.3   184  LYS184     -0.1231
    106  CA        51.2320  -17.0800   95.5850 C.3   184  LYS184      0.1693
    107  C         52.0260  -16.0820   94.6970 C.2   184  LYS184      0.2591
    108  O         53.1110  -15.6100   95.0680 O.2   184  LYS184     -0.2718
    109  CB        51.5880  -18.5450   95.3040 C.3   184  LYS184      0.0285
    110  CG        53.0520  -18.9120   95.2850 C.3   184  LYS184      0.0035
    111  CD        53.2280  -20.1790   94.4700 C.3   184  LYS184      0.0206
    112  CE        54.6730  -20.6200   94.4200 C.3   184  LYS184      0.1093
    113  NZ        55.1970  -20.9780   95.7660 N.3   184  LYS184     -0.1314
    114  N         51.4440  -15.7450   93.5440 N.am  185  LEU185     -0.1980
    115  CA        52.0900  -14.8720   92.5740 C.3   185  LEU185      0.1596
    116  C         51.8770  -13.3950   92.8720 C.2   185  LEU185      0.2287
    117  O         52.8260  -12.6880   93.1530 O.2   185  LEU185     -0.2864
    118  CB        51.6590  -15.2030   91.1260 C.3   185  LEU185      0.0297
    119  CG        52.0440  -16.5730   90.5300 C.3   185  LEU185      0.0022
    120  CD1       51.6170  -16.6420   89.0890 C.3   185  LEU185      0.0001
    121  CD2       53.5190  -16.9530   90.6390 C.3   185  LEU185      0.0001
    122  N         52.2520  -26.7750   81.1480 N.3   217  GLN217     -0.1245
    123  CA        51.6410  -25.6340   81.8380 C.3   217  GLN217      0.1566
    124  C         50.1140  -25.5290   81.7820 C.2   217  GLN217      0.2260
    125  O         49.5360  -25.5750   80.7010 O.2   217  GLN217     -0.2867
    126  CB        52.2780  -24.3380   81.3700 C.3   217  GLN217      0.0367
    127  CG        52.7390  -23.5710   82.5860 C.3   217  GLN217      0.0905
    128  CD        54.1490  -23.9570   83.0020 C.2   217  GLN217      0.2608
    129  OE1       54.8600  -24.6860   82.2980 O.2   217  GLN217     -0.2717
    130  NE2       54.5750  -23.4300   84.1190 N.am  217  GLN217     -0.0878
    131  N         48.5820  -22.8710   83.0130 N.3   219  GLY219     -0.1225
    132  CA        48.3130  -21.4460   82.9680 C.3   219  GLY219      0.1811
    133  C         48.3860  -20.9660   81.5430 C.2   219  GLY219      0.2280
    134  O         48.7540  -21.7320   80.6390 O.2   219  GLY219     -0.2866
@<TRIPOS>BOND
     1     4     3    2
     2     1     2    1
     3     3     2    1
     4     2     5    1
     5     5     6    1
     6    45    44    2
     7     6     8   ar
     8     6     7   ar
     9     8    10   ar
    10   134   133    2
    11   125   124    2
    12    44    43    1
    13     7     9   ar
    14   122   123    1
    15    10    11   ar
    16   126   123    1
    17   126   127    1
    18   133   132    1
    19    41    39    1
    20   124   123    1
    21    38    37    2
    22    43    46    1
    23    43    42    1
    24     9    11   ar
    25    11    12    1
    26   129   128    2
    27    40    39    1
    28   127   128    1
    29    76    77    1
    30    50    49    1
    31    50    51    2
    32    37    42   am
    33    37    36    1
    34    39    36    1
    35   132   131    1
    36    46    47    1
    37   128   130   am
    38    49    48    1
    39    49    52    1
    40    77    78    1
    41    77    80    1
    42    54    55    1
    43    36    35    1
    44    35    30   am
    45    78    79    2
    46    83    81   ar
    47    83    85   ar
    48    80    81    1
    49    66    64   ar
    50    66    67   ar
    51    64    61   ar
    52    55    58    1
    53    55    56    1
    54    52    53    1
    55    58    59    1
    56    34    32    1
    57    32    29    1
    58    32    33    1
    59    81    82   ar
    60    27    26    2
    61    30    29    1
    62    30    31    2
    63    29    28    1
    64    67    65   ar
    65    61    59   ar
    66    61    63   ar
    67    85    84   ar
    68    59    60   ar
    69    65    63   ar
    70    63    62   ar
    71    60    62   ar
    72    26    28   am
    73    26    25    1
    74    56    57    2
    75    82    84   ar
    76    86    87    1
    77    87    88    1
    78    87    90    1
    79    89    88    2
    80    88    92   am
    81    92    93    1
    82    93    94    1
    83    25    24    1
    84    95    94    2
    85    91    90    1
    86   120   119    1
    87    68    69    1
    88    16    15    2
    89    75    73    1
    90    73    74    1
    91    73    72    1
    92    15    14    1
    93    69    72    1
    94    69    70    1
    95   119   121    1
    96   119   118    1
    97   101   100    1
    98   101   102    1
    99   100    97    1
   100   118   115    1
   101    14    17    1
   102    14    13    1
   103    71    70    2
   104    17    18    1
   105   104   102   ar
   106   102   103   ar
   107    98    99    2
   108    98    97    1
   109    97    96    1
   110   115   116    1
   111   115   114    1
   112   116   117    2
   113    19    18    1
   114    19    20    1
   115    20    21    2
   116   114   107   am
   117    21    22    1
   118    21    23    1
   119   112   111    1
   120   112   113    1
   121   111   110    1
   122   107   108    2
   123   107   106    1
   124   110   109    1
   125   109   106    1
   126   105   106    1
