@<TRIPOS>MOLECULE
tmp/4djeA00.pdb
 190 175 0 0 0
SMALL
GASTEIGER

@<TRIPOS>ATOM
      1  N         -1.8200   57.0090  -51.7600 N.3     6  GLU6       -0.1231
      2  CA        -1.7320   55.5530  -51.7280 C.3     6  GLU6        0.1699
      3  C         -2.7470   54.8700  -52.6420 C.2     6  GLU6        0.2592
      4  O         -3.0250   53.6810  -52.4900 O.2     6  GLU6       -0.2718
      5  CB        -1.8780   55.0390  -50.2920 C.3     6  GLU6        0.0402
      6  CG        -2.9910   55.7010  -49.4880 C.3     6  GLU6        0.1161
      7  CD        -4.3750   55.2070  -49.8660 C.2     6  GLU6        0.3649
      8  OE1       -4.9850   55.7840  -50.7900 O.co2   6  GLU6       -0.2457
      9  OE2       -4.8550   54.2420  -49.2330 O.co2   6  GLU6       -0.2457
     10  N         -3.2980   55.6240  -53.5880 N.am    7  ARG7       -0.1980
     11  CA        -4.2780   55.0720  -54.5170 C.3     7  ARG7        0.1597
     12  C         -3.5960   54.2900  -55.6350 C.2     7  ARG7        0.2287
     13  O         -4.1270   53.2900  -56.1180 O.2     7  ARG7       -0.2864
     14  CB        -5.1590   56.1800  -55.1000 C.3     7  ARG7        0.0334
     15  CG        -6.2900   55.6810  -55.9810 C.3     7  ARG7        0.0492
     16  CD        -7.1450   54.6560  -55.2560 C.3     7  ARG7        0.2205
     17  NE        -8.3340   54.2970  -56.0230 N.pl3   7  ARG7       -0.0865
     18  CZ        -8.3510   53.3950  -56.9990 C.cat   7  ARG7        0.5346
     19  NH1       -7.2370   52.7590  -57.3370 N.pl3   7  ARG7        0.1354
     20  NH2       -9.4800   53.1330  -57.6420 N.pl3   7  ARG7        0.1354
     21  N         -1.7520   51.7820  -56.2360 N.3     9  ASN9       -0.1240
     22  CA        -1.2440   50.5470  -55.6550 C.3     9  ASN9        0.1653
     23  C         -1.7820   49.3400  -56.4140 C.2     9  ASN9        0.2266
     24  O         -2.9390   49.3250  -56.8330 O.2     9  ASN9       -0.2867
     25  CB        -1.6250   50.4600  -54.1740 C.3     9  ASN9        0.1155
     26  CG        -0.8290   49.4080  -53.4210 C.2     9  ASN9        0.2627
     27  OD1       -0.5450   48.3290  -53.9430 O.2     9  ASN9       -0.2716
     28  ND2       -0.4610   49.7210  -52.1840 N.am    9  ASN9       -0.0877
     29  N         -2.6980   46.5730  -55.4330 N.3    11  MET11      -0.1230
     30  CA        -3.7890   45.8920  -54.7460 C.3    11  MET11       0.1702
     31  C         -5.1420   46.4100  -55.2250 C.2    11  MET11       0.2592
     32  O         -6.1620   45.7370  -55.0790 O.2    11  MET11      -0.2718
     33  CB        -3.6610   46.0460  -53.2290 C.3    11  MET11       0.0401
     34  CG        -3.7200   47.4800  -52.7350 C.3    11  MET11       0.0596
     35  SD        -3.5780   47.5840  -50.9420 S.3    11  MET11      -0.1393
     36  CE        -1.9610   46.8570  -50.6870 C.3    11  MET11       0.0692
     37  N         -5.1430   47.6110  -55.7940 N.am   12  PHE12      -0.1962
     38  CA        -6.3450   48.1630  -56.4060 C.3    12  PHE12       0.1771
     39  C         -6.5580   47.5480  -57.7830 C.2    12  PHE12       0.2620
     40  O         -5.6050   47.1200  -58.4350 O.2    12  PHE12      -0.2715
     41  CB        -6.2500   49.6850  -56.5160 C.3    12  PHE12       0.0574
     42  CG        -6.4150   50.4000  -55.2060 C.ar   12  PHE12      -0.0200
     43  CD1       -7.6750   50.7490  -54.7480 C.ar   12  PHE12      -0.0042
     44  CD2       -5.3130   50.7260  -54.4350 C.ar   12  PHE12      -0.0042
     45  CE1       -7.8330   51.4090  -53.5440 C.ar   12  PHE12      -0.0003
     46  CE2       -5.4640   51.3860  -53.2300 C.ar   12  PHE12      -0.0003
     47  CZ        -6.7260   51.7270  -52.7840 C.ar   12  PHE12      -0.0000
     48  N         -7.8120   47.5060  -58.2200 N.am   13  GLY13      -0.1954
     49  CA        -8.1550   46.9100  -59.4970 C.3    13  GLY13       0.1869
     50  C         -7.5910   47.6590  -60.6890 C.2    13  GLY13       0.2309
     51  O         -6.6980   47.1620  -61.3740 O.2    13  GLY13      -0.2863
     52  N          2.8060   57.5190  -53.6630 N.3    43  ASP43      -0.1239
     53  CA         3.3470   56.1900  -53.4100 C.3    43  ASP43       0.1674
     54  C          3.0120   55.2430  -54.5590 C.2    43  ASP43       0.2266
     55  O          1.8490   55.1000  -54.9370 O.2    43  ASP43      -0.2867
     56  CB         2.8070   55.6360  -52.0900 C.3    43  ASP43       0.1410
     57  CG         3.3850   54.2790  -51.7460 C.2    43  ASP43       0.3668
     58  OD1        4.4500   54.2340  -51.0940 O.co2  43  ASP43      -0.2456
     59  OD2        2.7730   53.2580  -52.1230 O.co2  43  ASP43      -0.2456
     60  N          3.0940   51.4090  -56.0880 N.3    45  ASN45      -0.1240
     61  CA         3.2220   49.9800  -55.8370 C.3    45  ASN45       0.1653
     62  C          2.7630   49.1760  -57.0490 C.2    45  ASN45       0.2266
     63  O          1.6910   49.4270  -57.6010 O.2    45  ASN45      -0.2867
     64  CB         2.4250   49.5780  -54.5940 C.3    45  ASN45       0.1155
     65  CG         2.8260   48.2160  -54.0530 C.2    45  ASN45       0.2627
     66  OD1        3.2940   47.3500  -54.7930 O.2    45  ASN45      -0.2716
     67  ND2        2.6420   48.0210  -52.7530 N.am   45  ASN45      -0.0877
     68  N          7.3900   51.9920  -53.4230 N.3    75  ASP75      -0.1239
     69  CA         6.8580   51.0400  -52.4550 C.3    75  ASP75       0.1674
     70  C          7.0330   49.5980  -52.9240 C.2    75  ASP75       0.2266
     71  O          6.1930   49.0660  -53.6510 O.2    75  ASP75      -0.2867
     72  CB         5.3810   51.3300  -52.1830 C.3    75  ASP75       0.1410
     73  CG         4.7970   50.4300  -51.1120 C.2    75  ASP75       0.3668
     74  OD1        5.5510   50.0070  -50.2110 O.co2  75  ASP75      -0.2456
     75  OD2        3.5810   50.1490  -51.1690 O.co2  75  ASP75      -0.2456
     76  N         10.6190   53.2020  -49.7290 N.3    96  ASN96      -0.1225
     77  CA         9.7350   52.5380  -48.7790 C.3    96  ASN96       0.1785
     78  C          9.6250   51.0370  -49.0410 C.2    96  ASN96       0.2597
     79  O          9.0900   50.6200  -50.0680 O.2    96  ASN96      -0.2718
     80  CB         8.3460   53.1840  -48.7990 C.3    96  ASN96       0.1169
     81  CG         7.4020   52.5680  -47.7850 C.2    96  ASN96       0.2627
     82  OD1        7.3780   52.9650  -46.6200 O.2    96  ASN96      -0.2716
     83  ND2        6.6130   51.5950  -48.2250 N.am   96  ASN96      -0.0877
     84  N         10.1290   50.2230  -48.1150 N.am   97  SER97      -0.1952
     85  CA        10.7630   50.7070  -46.8920 C.3    97  SER97       0.1924
     86  C         11.9140   49.7940  -46.4820 C.2    97  SER97       0.2314
     87  O         12.2590   48.8530  -47.1970 O.2    97  SER97      -0.2863
     88  CB         9.7400   50.7920  -45.7560 C.3    97  SER97       0.2116
     89  OG         8.9670   49.6080  -45.6830 O.3    97  SER97      -0.2180
     90  N         12.4750   55.5430  -45.7240 N.3   120  ILE120     -0.1245
     91  CA        11.5100   55.1770  -44.6950 C.3   120  ILE120      0.1561
     92  C         11.9440   53.9070  -43.9720 C.2   120  ILE120      0.2260
     93  O         12.1120   52.8560  -44.5900 O.2   120  ILE120     -0.2867
     94  CB        10.1020   54.9680  -45.2830 C.3   120  ILE120      0.0252
     95  CG1        9.5700   56.2760  -45.8720 C.3   120  ILE120      0.0019
     96  CG2        9.1530   54.4410  -44.2180 C.3   120  ILE120      0.0019
     97  CD1        8.1620   56.1720  -46.4170 C.3   120  ILE120      0.0001
     98  N         11.3330   50.9620  -41.0490 N.3   122  LEU122     -0.1245
     99  CA        10.3340   50.2640  -40.2490 C.3   122  LEU122      0.1561
    100  C         10.9380   49.7770  -38.9380 C.2   122  LEU122      0.2260
    101  O         12.1010   49.3770  -38.8910 O.2   122  LEU122     -0.2867
    102  CB         9.7550   49.0770  -41.0210 C.3   122  LEU122      0.0270
    103  CG         9.1470   49.3490  -42.3970 C.3   122  LEU122      0.0019
    104  CD1        8.4430   48.1040  -42.9170 C.3   122  LEU122      0.0001
    105  CD2        8.1920   50.5290  -42.3480 C.3   122  LEU122      0.0001
    106  N          8.5930   54.4710  -39.2710 N.3   160  ASP160     -0.1239
    107  CA         7.2200   53.9830  -39.3130 C.3   160  ASP160      0.1674
    108  C          7.0060   52.8390  -38.3230 C.2   160  ASP160      0.2266
    109  O          7.4880   51.7280  -38.5390 O.2   160  ASP160     -0.2867
    110  CB         6.8580   53.5330  -40.7310 C.3   160  ASP160      0.1410
    111  CG         5.4390   53.0080  -40.8350 C.2   160  ASP160      0.3668
    112  OD1        4.5810   53.4360  -40.0350 O.co2 160  ASP160     -0.2456
    113  OD2        5.1810   52.1680  -41.7220 O.co2 160  ASP160     -0.2456
    114  N          4.5350   51.1260  -37.8910 N.3   162  LEU162     -0.1231
    115  CA         3.6620   50.1130  -38.4880 C.3   162  LEU162      0.1693
    116  C          2.3560   49.9320  -37.7180 C.2   162  LEU162      0.2591
    117  O          2.2770   49.1300  -36.7880 O.2   162  LEU162     -0.2718
    118  CB         4.3930   48.7740  -38.6180 C.3   162  LEU162      0.0284
    119  CG         5.6290   48.7720  -39.5170 C.3   162  LEU162      0.0019
    120  CD1        6.4710   47.5380  -39.2530 C.3   162  LEU162      0.0001
    121  CD2        5.2210   48.8410  -40.9790 C.3   162  LEU162      0.0001
    122  N          1.3310   50.6770  -38.1210 N.am  163  ILE163     -0.1980
    123  CA         0.0290   50.6080  -37.4680 C.3   163  ILE163      0.1595
    124  C         -0.7920   49.4250  -37.9840 C.2   163  ILE163      0.2287
    125  O         -0.7580   49.0990  -39.1710 O.2   163  ILE163     -0.2864
    126  CB        -0.7590   51.9310  -37.6390 C.3   163  ILE163      0.0276
    127  CG1       -2.0780   51.8890  -36.8630 C.3   163  ILE163      0.0022
    128  CG2       -1.0020   52.2310  -39.1100 C.3   163  ILE163      0.0022
    129  CD1       -1.9060   51.7090  -35.3710 C.3   163  ILE163      0.0001
    130  N          6.4190   58.5990  -40.2450 N.3   194  VAL194     -0.1231
    131  CA         5.3950   58.3660  -41.2560 C.3   194  VAL194      0.1692
    132  C          4.5460   57.1470  -40.8850 C.2   194  VAL194      0.2592
    133  O          5.0290   56.2200  -40.2370 O.2   194  VAL194     -0.2718
    134  CB         6.0250   58.1880  -42.6600 C.3   194  VAL194      0.0266
    135  CG1        6.8380   56.9040  -42.7280 C.3   194  VAL194      0.0020
    136  CG2        4.9580   58.2150  -43.7480 C.3   194  VAL194      0.0020
    137  N          3.2760   57.1630  -41.2800 N.am  195  LEU195     -0.1966
    138  CA         2.3630   56.0650  -40.9800 C.3   195  LEU195      0.1728
    139  C          1.4710   55.7200  -42.1670 C.2   195  LEU195      0.2616
    140  O          1.0950   56.5920  -42.9490 O.2   195  LEU195     -0.2715
    141  CB         1.4860   56.4130  -39.7740 C.3   195  LEU195      0.0311
    142  CG         2.1060   56.3050  -38.3810 C.3   195  LEU195      0.0022
    143  CD1        1.1640   56.8850  -37.3400 C.3   195  LEU195      0.0001
    144  CD2        2.4290   54.8580  -38.0560 C.3   195  LEU195      0.0001
    145  N          1.1390   54.4390  -42.2960 N.am  196  GLY196     -0.1955
    146  CA         0.1540   54.0010  -43.2680 C.3   196  GLY196      0.1869
    147  C         -1.2260   54.1160  -42.6510 C.2   196  GLY196      0.2309
    148  O         -1.7610   53.1460  -42.1170 O.2   196  GLY196     -0.2863
    149  N         -4.3740   54.3510  -43.5400 N.3   198  SER198     -0.1202
    150  CA        -5.5400   53.5700  -43.9450 C.3   198  SER198      0.2020
    151  C         -5.6120   52.2010  -43.2670 C.2   198  SER198      0.2618
    152  O         -6.6750   51.5810  -43.2170 O.2   198  SER198     -0.2717
    153  CB        -5.5770   53.4090  -45.4670 C.3   198  SER198      0.2103
    154  OG        -5.6870   54.6650  -46.1120 O.3   198  SER198     -0.2182
    155  N         -4.4830   51.7370  -42.7420 N.am  199  ASN199     -0.1974
    156  CA        -4.4200   50.4340  -42.0890 C.3   199  ASN199      0.1688
    157  C         -5.1320   50.3960  -40.7390 C.2   199  ASN199      0.2292
    158  O         -5.5310   49.3290  -40.2730 O.2   199  ASN199     -0.2864
    159  CB        -2.9650   49.9890  -41.9220 C.3   199  ASN199      0.1181
    160  CG        -2.2640   49.7830  -43.2490 C.2   199  ASN199      0.2629
    161  OD1       -2.8660   49.3170  -44.2170 O.2   199  ASN199     -0.2716
    162  ND2       -0.9840   50.1310  -43.3010 N.am  199  ASN199     -0.0877
    163  N         -8.7700   49.2870  -41.1820 N.3   202  GLN202     -0.1245
    164  CA        -8.9060   48.1040  -42.0210 C.3   202  GLN202      0.1566
    165  C        -10.0490   47.2150  -41.5350 C.2   202  GLN202      0.2260
    166  O        -10.0090   46.6900  -40.4210 O.2   202  GLN202     -0.2867
    167  CB        -7.5920   47.3200  -42.0490 C.3   202  GLN202      0.0367
    168  CG        -7.4920   46.2980  -43.1700 C.3   202  GLN202      0.0905
    169  CD        -7.4530   46.9370  -44.5450 C.2   202  GLN202      0.2608
    170  OE1       -6.3920   47.3330  -45.0270 O.2   202  GLN202     -0.2717
    171  NE2       -8.6130   47.0380  -45.1840 N.am  202  GLN202     -0.0878
    172  N        -14.6810   53.7950  -42.0230 N.3   207  ARG207     -0.1245
    173  CA       -13.2330   53.9830  -42.1150 C.3   207  ARG207      0.1563
    174  C        -12.7380   55.4380  -42.0400 C.2   207  ARG207      0.2260
    175  O        -11.7750   55.7110  -41.3230 O.2   207  ARG207     -0.2867
    176  CB       -12.6710   53.2860  -43.3620 C.3   207  ARG207      0.0307
    177  CG       -12.9480   51.7950  -43.4150 C.3   207  ARG207      0.0489
    178  CD       -12.2670   51.1530  -44.6110 C.3   207  ARG207      0.2205
    179  NE       -10.8190   51.3360  -44.5760 N.pl3 207  ARG207     -0.0865
    180  CZ        -9.9840   50.8560  -45.4910 C.cat 207  ARG207      0.5346
    181  NH1      -10.4530   50.1590  -46.5160 N.pl3 207  ARG207      0.1354
    182  NH2       -8.6800   51.0710  -45.3810 N.pl3 207  ARG207      0.1354
    183  N          0.8280   58.3040  -45.1440 N.3   227  ILE227     -0.1245
    184  CA         0.3910   57.7530  -46.4180 C.3   227  ILE227      0.1561
    185  C         -1.0860   57.3950  -46.3280 C.2   227  ILE227      0.2260
    186  O         -1.4380   56.2950  -45.9040 O.2   227  ILE227     -0.2867
    187  CB         1.1880   56.4870  -46.7790 C.3   227  ILE227      0.0252
    188  CG1        2.6810   56.7130  -46.5490 C.3   227  ILE227      0.0019
    189  CG2        0.9200   56.0750  -48.2170 C.3   227  ILE227      0.0019
    190  CD1        3.5380   55.5160  -46.8930 C.3   227  ILE227      0.0001
@<TRIPOS>BOND
     1    51    50    2
     2    50    49    1
     3    49    48    1
     4    40    39    2
     5    48    39   am
     6    39    38    1
     7    20    18    1
     8    63    62    2
     9    19    18    1
    10    62    61    1
    11    18    17    2
    12    24    23    2
    13    41    38    1
    14    41    42    1
    15    23    22    1
    16    38    37    1
    17    21    22    1
    18    13    12    2
    19    60    61    1
    20    17    16    1
    21    15    16    1
    22    15    14    1
    23    61    64    1
    24    37    31   am
    25    22    25    1
    26    12    11    1
    27    29    30    1
    28    31    32    2
    29    31    30    1
    30    42    43   ar
    31    42    44   ar
    32    14    11    1
    33    55    54    2
    34    66    65    2
    35    43    45   ar
    36    30    33    1
    37    64    65    1
    38    54    53    1
    39    11    10    1
    40    44    46   ar
    41    25    26    1
    42    65    67   am
    43    27    26    2
    44    52    53    1
    45    71    70    2
    46    10     3   am
    47    45    47   ar
    48    68    69    1
    49    26    28   am
    50    53    56    1
    51    46    47   ar
    52    33    34    1
    53    70    69    1
    54    34    35    1
    55     3     4    2
    56     3     2    1
    57    69    72    1
    58    72    73    1
    59    59    57   ar
    60    56    57    1
    61     1     2    1
    62    57    58   ar
    63     2     5    1
    64    75    73   ar
    65    73    74   ar
    66    35    36    1
    67     8     7   ar
    68     5     6    1
    69    79    78    2
    70     7     6    1
    71     7     9   ar
    72    76    77    1
    73    78    77    1
    74    78    84   am
    75    80    77    1
    76    80    81    1
    77    83    81   am
    78   189   187    1
    79    84    85    1
    80    81    82    2
    81    87    86    2
    82   190   188    1
    83    85    86    1
    84    85    88    1
    85   187   188    1
    86   187   184    1
    87   181   180    1
    88   184   185    1
    89   184   183    1
    90    97    95    1
    91   185   186    2
    92   154   153    1
    93    95    94    1
    94    88    89    1
    95    90    91    1
    96   180   182    1
    97   180   179    2
    98   153   150    1
    99    94    91    1
   100    94    96    1
   101   171   169   am
   102   170   169    2
   103    91    92    1
   104   178   179    1
   105   178   177    1
   106    93    92    2
   107   169   168    1
   108   161   160    2
   109   150   149    1
   110   150   151    1
   111   136   134    1
   112   177   176    1
   113   176   173    1
   114   162   160   am
   115   146   147    1
   116   146   145    1
   117   151   152    2
   118   151   155   am
   119   160   159    1
   120   168   167    1
   121   140   139    2
   122   104   103    1
   123   155   156    1
   124   135   134    1
   125   134   131    1
   126   147   148    2
   127   103   105    1
   128   103   102    1
   129   145   139   am
   130   139   138    1
   131   173   174    1
   132   173   172    1
   133   156   159    1
   134   156   157    1
   135   167   164    1
   136   174   175    2
   137   164   165    1
   138   164   163    1
   139   113   111   ar
   140   165   166    2
   141   137   138    1
   142   137   132   am
   143   131   132    1
   144   131   130    1
   145    98    99    1
   146   102    99    1
   147   138   141    1
   148   121   119    1
   149   132   133    2
   150   111   110    1
   151   111   112   ar
   152   157   158    2
   153   110   107    1
   154    99   100    1
   155   141   142    1
   156   119   120    1
   157   119   118    1
   158   107   106    1
   159   107   108    1
   160   125   124    2
   161   128   126    1
   162   100   101    2
   163   118   115    1
   164   109   108    2
   165   115   114    1
   166   115   116    1
   167   142   144    1
   168   142   143    1
   169   122   116   am
   170   122   123    1
   171   124   123    1
   172   116   117    2
   173   126   123    1
   174   126   127    1
   175   127   129    1
