@<TRIPOS>MOLECULE
tmp/4djfE00.pdb
 209 204 0 0 0
SMALL
GASTEIGER

@<TRIPOS>ATOM
      1  N          3.1780   33.7890  -31.5390 N.3   317  PRO317     -0.2116
      2  CA         2.2650   32.6730  -31.8150 C.3   317  PRO317      0.1372
      3  C          2.9240   31.2960  -31.7660 C.2   317  PRO317      0.2244
      4  O          4.0800   31.1370  -32.1570 O.2   317  PRO317     -0.2868
      5  CB         1.7820   32.9690  -33.2370 C.3   317  PRO317      0.0268
      6  CG         1.8800   34.4480  -33.3610 C.3   317  PRO317      0.0207
      7  CD         3.0840   34.8480  -32.5580 C.3   317  PRO317      0.0892
      8  N         -4.5800   17.0020  -46.9410 N.3   337  TYR337     -0.1227
      9  CA        -5.1170   18.3180  -46.6110 C.3   337  TYR337      0.1736
     10  C         -4.0210   19.4140  -46.4880 C.2   337  TYR337      0.2595
     11  O         -3.0850   19.2790  -45.6810 O.2   337  TYR337     -0.2718
     12  CB        -5.9180   18.2440  -45.3110 C.3   337  TYR337      0.0548
     13  CG        -7.1860   17.3760  -45.3770 C.ar  337  TYR337     -0.0200
     14  CD1       -8.0950   17.4920  -46.4230 C.ar  337  TYR337     -0.0009
     15  CD2       -7.3930   16.4600  -44.3660 C.ar  337  TYR337     -0.0009
     16  CE1       -9.2180   16.6760  -46.4490 C.ar  337  TYR337      0.0417
     17  CE2       -8.5040   15.6400  -44.3750 C.ar  337  TYR337      0.0417
     18  CZ        -9.4200   15.7400  -45.4080 C.ar  337  TYR337      0.1957
     19  OH       -10.5610   14.9580  -45.3510 O.3   337  TYR337     -0.2866
     20  N         -4.1450   20.5090  -47.2360 N.am  338  VAL338     -0.1966
     21  CA        -3.1510   21.5630  -47.1110 C.3   338  VAL338      0.1727
     22  C         -3.6420   22.5880  -46.0600 C.2   338  VAL338      0.2616
     23  O         -4.8030   22.9660  -46.0580 O.2   338  VAL338     -0.2715
     24  CB        -2.8890   22.2750  -48.4500 C.3   338  VAL338      0.0290
     25  CG1       -1.8530   23.3850  -48.3090 C.3   338  VAL338      0.0023
     26  CG2       -2.3570   21.2480  -49.4530 C.3   338  VAL338      0.0023
     27  N         -2.7480   23.0140  -45.1680 N.am  339  THR339     -0.1951
     28  CA        -3.0990   23.9990  -44.1520 C.3   339  THR339      0.1897
     29  C         -1.8250   24.7230  -43.7100 C.2   339  THR339      0.2313
     30  O         -0.7720   24.5720  -44.3600 O.2   339  THR339     -0.2863
     31  CB        -3.7980   23.3370  -42.9520 C.3   339  THR339      0.1794
     32  OG1       -4.2000   24.3420  -42.0160 O.3   339  THR339     -0.2208
     33  CG2       -2.8100   22.4930  -42.1600 C.3   339  THR339      0.0378
     34  N          0.2640   27.2090  -38.1730 N.3   342  PHE342     -0.1241
     35  CA        -0.1960   27.8550  -36.9670 C.3   342  PHE342      0.1605
     36  C         -0.8620   26.6830  -36.1670 C.2   342  PHE342      0.2264
     37  O         -1.7910   26.0310  -36.6330 O.2   342  PHE342     -0.2867
     38  CB        -1.1770   28.9930  -37.2490 C.3   342  PHE342      0.0534
     39  CG        -1.6640   29.6980  -36.0130 C.ar  342  PHE342     -0.0203
     40  CD1       -2.8340   30.4360  -36.0360 C.ar  342  PHE342     -0.0042
     41  CD2       -0.9500   29.6180  -34.8290 C.ar  342  PHE342     -0.0042
     42  CE1       -3.2840   31.0840  -34.9020 C.ar  342  PHE342     -0.0003
     43  CE2       -1.3930   30.2650  -33.6930 C.ar  342  PHE342     -0.0003
     44  CZ        -2.5630   30.9990  -33.7280 C.ar  342  PHE342     -0.0000
     45  N         -2.9890   26.4890  -33.8120 N.3   344  LEU344     -0.1231
     46  CA        -4.4430   26.5750  -33.6750 C.3   344  LEU344      0.1693
     47  C         -5.1500   26.0940  -34.9440 C.2   344  LEU344      0.2592
     48  O         -6.1410   25.3310  -34.8850 O.2   344  LEU344     -0.2718
     49  CB        -4.8650   28.0110  -33.3500 C.3   344  LEU344      0.0284
     50  CG        -6.3200   28.2070  -32.9250 C.3   344  LEU344      0.0019
     51  CD1       -6.6320   27.3850  -31.6830 C.3   344  LEU344      0.0001
     52  CD2       -6.6190   29.6800  -32.6850 C.3   344  LEU344      0.0001
     53  N         -4.5990   26.4950  -36.0900 N.am  345  THR345     -0.1953
     54  CA        -5.1770   26.1470  -37.3680 C.3   345  THR345      0.1897
     55  C         -4.9950   24.6500  -37.6390 C.2   345  THR345      0.2313
     56  O         -5.9420   23.9460  -37.9740 O.2   345  THR345     -0.2863
     57  CB        -4.5400   26.9760  -38.5000 C.3   345  THR345      0.1794
     58  OG1       -4.7330   28.3720  -38.2370 O.3   345  THR345     -0.2208
     59  CG2       -5.2860   26.7580  -39.8050 C.3   345  THR345      0.0378
     60  N         -7.1750   22.5780  -35.4110 N.3   348  SER348     -0.1202
     61  CA        -8.5650   22.6910  -35.8270 C.3   348  SER348      0.2020
     62  C         -8.7430   21.6170  -36.8740 C.2   348  SER348      0.2618
     63  O         -9.6510   20.8210  -36.8100 O.2   348  SER348     -0.2717
     64  CB        -8.8950   24.0810  -36.3780 C.3   348  SER348      0.2103
     65  OG       -10.1540   24.2130  -36.8140 O.3   348  SER348     -0.2182
     66  N         -7.8330   21.5790  -37.8410 N.am  349  VAL349     -0.1979
     67  CA        -7.9430   20.5810  -38.9110 C.3   349  VAL349      0.1595
     68  C         -7.7080   19.1420  -38.3720 C.2   349  VAL349      0.2287
     69  O         -8.5100   18.2260  -38.6370 O.2   349  VAL349     -0.2864
     70  CB        -6.9430   20.8600  -40.0480 C.3   349  VAL349      0.0276
     71  CG1       -6.9910   19.7490  -41.0850 C.3   349  VAL349      0.0022
     72  CG2       -7.2270   22.2110  -40.6880 C.3   349  VAL349      0.0022
     73  N          3.8680   30.1490  -38.3500 N.3   369  GLY369     -0.1210
     74  CA         2.8340   30.0110  -37.3400 C.3   369  GLY369      0.1956
     75  C          1.6700   30.9560  -37.4900 C.2   369  GLY369      0.2612
     76  O          1.0910   31.3750  -36.4890 O.2   369  GLY369     -0.2717
     77  N          1.3290   31.3070  -38.7280 N.am  370  LEU370     -0.1965
     78  CA         0.1930   32.1690  -38.9570 C.3   370  LEU370      0.1728
     79  C         -1.0160   31.4130  -39.5910 C.2   370  LEU370      0.2617
     80  O         -0.8530   30.4930  -40.4300 O.2   370  LEU370     -0.2715
     81  CB         0.5970   33.3440  -39.8520 C.3   370  LEU370      0.0311
     82  CG         1.6280   34.3140  -39.2720 C.3   370  LEU370      0.0022
     83  CD1        2.0430   35.3410  -40.3140 C.3   370  LEU370      0.0001
     84  CD2        1.0850   34.9980  -38.0260 C.3   370  LEU370      0.0001
     85  N         -2.2080   31.8770  -39.2130 N.am  371  SER371     -0.1936
     86  CA        -3.4920   31.3360  -39.6620 C.3   371  SER371      0.2055
     87  C         -3.7120   31.5960  -41.1450 C.2   371  SER371      0.2643
     88  O         -3.1540   32.5350  -41.7120 O.2   371  SER371     -0.2714
     89  CB        -4.6390   31.9360  -38.8460 C.3   371  SER371      0.2130
     90  OG        -5.1670   33.0870  -39.4810 O.3   371  SER371     -0.2179
     91  N         -4.5310   30.7560  -41.7670 N.am  372  VAL372     -0.1963
     92  CA        -4.5280   30.5960  -43.2110 C.3   372  VAL372      0.1727
     93  C         -4.8360   31.8970  -43.9270 C.2   372  VAL372      0.2616
     94  O         -4.2350   32.2000  -44.9610 O.2   372  VAL372     -0.2715
     95  CB        -5.5420   29.5260  -43.6590 C.3   372  VAL372      0.0290
     96  CG1       -5.5550   29.3560  -45.1740 C.3   372  VAL372      0.0023
     97  CG2       -5.1490   28.1870  -43.0300 C.3   372  VAL372      0.0023
     98  N         -5.8040   32.6440  -43.4020 N.am  373  LEU373     -0.1963
     99  CA        -6.1880   33.9420  -43.9550 C.3   373  LEU373      0.1728
    100  C         -5.0870   35.0010  -43.8680 C.2   373  LEU373      0.2616
    101  O         -4.8630   35.7550  -44.8140 O.2   373  LEU373     -0.2715
    102  CB        -7.4600   34.4570  -43.2740 C.3   373  LEU373      0.0311
    103  CG        -8.7560   33.7190  -43.6080 C.3   373  LEU373      0.0022
    104  CD1       -9.8630   34.2700  -42.7400 C.3   373  LEU373      0.0001
    105  CD2       -9.1390   33.8760  -45.0570 C.3   373  LEU373      0.0001
    106  N         -4.4000   35.0460  -42.7290 N.am  374  THR374     -0.1951
    107  CA        -3.3160   35.9860  -42.5240 C.3   374  THR374      0.1897
    108  C         -2.1190   35.6210  -43.3970 C.2   374  THR374      0.2313
    109  O         -1.4710   36.4770  -43.9870 O.2   374  THR374     -0.2863
    110  CB        -2.9320   36.0460  -41.0450 C.3   374  THR374      0.1794
    111  OG1       -4.0140   36.6260  -40.3200 O.3   374  THR374     -0.2208
    112  CG2       -1.7000   36.9180  -40.8580 C.3   374  THR374      0.0378
    113  N         -2.1620   34.1980  -46.0630 N.3   376  TYR376     -0.1227
    114  CA        -2.5600   34.6470  -47.3780 C.3   376  TYR376      0.1736
    115  C         -2.4170   36.1490  -47.5250 C.2   376  TYR376      0.2595
    116  O         -1.9940   36.6320  -48.5670 O.2   376  TYR376     -0.2718
    117  CB        -3.9920   34.2170  -47.6950 C.3   376  TYR376      0.0548
    118  CG        -4.2960   34.2180  -49.1760 C.ar  376  TYR376     -0.0200
    119  CD1       -3.7600   33.2510  -50.0160 C.ar  376  TYR376     -0.0009
    120  CD2       -5.1050   35.1930  -49.7370 C.ar  376  TYR376     -0.0009
    121  CE1       -4.0280   33.2560  -51.3700 C.ar  376  TYR376      0.0417
    122  CE2       -5.3750   35.2040  -51.0910 C.ar  376  TYR376      0.0417
    123  CZ        -4.8350   34.2330  -51.9010 C.ar  376  TYR376      0.1957
    124  OH        -5.1050   34.2440  -53.2460 O.3   376  TYR376     -0.2866
    125  N         -2.7720   36.9040  -46.4980 N.am  377  ALA377     -0.1966
    126  CA        -2.7080   38.3390  -46.6590 C.3   377  ALA377      0.1728
    127  C         -1.2670   38.8120  -46.5370 C.2   377  ALA377      0.2616
    128  O         -0.8820   39.8230  -47.1300 O.2   377  ALA377     -0.2715
    129  CB        -3.6130   39.0490  -45.6330 C.3   377  ALA377      0.0334
    130  N         -0.4470   38.0660  -45.8130 N.am  378  ASP378     -0.1971
    131  CA         0.9280   38.5050  -45.6560 C.3   378  ASP378      0.1709
    132  C          1.8230   37.9300  -46.7180 C.2   378  ASP378      0.2293
    133  O          3.0360   37.8800  -46.5320 O.2   378  ASP378     -0.2864
    134  CB         1.4510   38.1250  -44.2690 C.3   378  ASP378      0.1436
    135  CG         1.1230   39.0830  -43.1780 C.2   378  ASP378      0.3671
    136  OD1        0.5690   40.1350  -43.4190 O.co2 378  ASP378     -0.2456
    137  OD2        1.5250   38.7280  -41.9970 O.co2 378  ASP378     -0.2456
    138  N         -6.1550   18.8370  -50.8790 N.3   405  ILE405     -0.1231
    139  CA        -7.3050   19.6700  -50.5040 C.3   405  ILE405      0.1692
    140  C         -6.8720   20.9990  -49.9030 C.2   405  ILE405      0.2592
    141  O         -6.1360   21.0520  -48.9190 O.2   405  ILE405     -0.2718
    142  CB        -8.2090   18.9150  -49.5070 C.3   405  ILE405      0.0266
    143  CG1       -8.6470   17.5280  -49.9980 C.3   405  ILE405      0.0019
    144  CG2       -9.4330   19.8180  -49.1740 C.3   405  ILE405      0.0020
    145  CD1       -9.4210   17.5100  -51.2830 C.3   405  ILE405      0.0001
    146  N         -7.3680   22.0740  -50.4950 N.am  406  ILE406     -0.1966
    147  CA        -7.0330   23.4370  -50.0580 C.3   406  ILE406      0.1712
    148  C         -8.1310   23.9890  -49.1260 C.2   406  ILE406      0.2458
    149  O         -9.3020   23.6250  -49.2950 O.2   406  ILE406     -0.2730
    150  CB        -6.8420   24.3680  -51.2690 C.3   406  ILE406      0.0289
    151  CG1       -5.6900   23.8710  -52.1660 C.3   406  ILE406      0.0022
    152  CG2       -6.6530   25.8170  -50.8570 C.3   406  ILE406      0.0023
    153  CD1       -4.3220   24.0610  -51.5300 C.3   406  ILE406      0.0001
    154  N         -7.7660   24.8230  -48.1600 N.am  407  PRO407     -0.2727
    155  CA        -8.7780   25.3950  -47.2690 C.3   407  PRO407      0.1402
    156  C         -9.7070   26.2290  -48.1290 C.2   407  PRO407      0.2269
    157  O         -9.2230   26.9300  -49.0150 O.2   407  PRO407     -0.2865
    158  CB        -7.9580   26.2910  -46.3440 C.3   407  PRO407      0.0296
    159  CG        -6.6200   25.6430  -46.2960 C.3   407  PRO407      0.0237
    160  CD        -6.3980   25.0500  -47.6590 C.3   407  PRO407      0.0939
    161  N        -11.1740   28.8520  -47.8310 N.3   409  ALA409     -0.1245
    162  CA       -10.9780   30.2850  -47.7370 C.3   409  ALA409      0.1562
    163  C        -10.0140   30.8790  -48.7360 C.2   409  ALA409      0.2260
    164  O        -10.0520   32.0900  -48.9530 O.2   409  ALA409     -0.2867
    165  CB       -10.5230   30.6350  -46.3290 C.3   409  ALA409      0.0290
    166  N        -11.5910   22.6920  -50.5410 N.3   428  GLY428     -0.1210
    167  CA       -12.4420   22.1490  -49.4930 C.3   428  GLY428      0.1940
    168  C        -13.3860   23.1860  -48.8990 C.2   428  GLY428      0.2454
    169  O        -13.4790   24.3240  -49.4040 O.2   428  GLY428     -0.2732
    170  N        -14.1060   22.8150  -47.8400 N.am  429  PRO429     -0.2717
    171  CA       -15.0470   23.7300  -47.1680 C.3   429  PRO429      0.1535
    172  C        -14.3120   24.8560  -46.4410 C.2   429  PRO429      0.2598
    173  O        -13.1830   24.6280  -46.0100 O.2   429  PRO429     -0.2715
    174  CB       -15.7490   22.8200  -46.1580 C.3   429  PRO429      0.0310
    175  CG       -14.7560   21.7510  -45.8670 C.3   429  PRO429      0.0237
    176  CD       -14.0110   21.5150  -47.1520 C.3   429  PRO429      0.0939
    177  N        -14.9060   26.0430  -46.3150 N.am  430  ARG430     -0.1964
    178  CA       -14.1500   27.1360  -45.7600 C.3   430  ARG430      0.1729
    179  C        -13.8020   26.8090  -44.3200 C.2   430  ARG430      0.2616
    180  O        -12.7970   27.3060  -43.8100 O.2   430  ARG430     -0.2715
    181  CB       -14.9340   28.4460  -45.8440 C.3   430  ARG430      0.0348
    182  CG       -15.1380   28.8650  -47.3120 C.3   430  ARG430      0.0492
    183  CD       -16.0980   30.0080  -47.4680 C.3   430  ARG430      0.2205
    184  NE       -15.4740   31.2110  -46.8900 N.pl3 430  ARG430     -0.0865
    185  CZ       -14.7830   32.0900  -47.6520 C.cat 430  ARG430      0.5346
    186  NH1      -14.6330   31.9290  -49.0130 N.pl3 430  ARG430      0.1354
    187  NH2      -14.2310   33.2090  -47.0710 N.pl3 430  ARG430      0.1354
    188  N        -14.6160   25.9760  -43.6680 N.am  431  GLU431     -0.1963
    189  CA       -14.3300   25.6390  -42.2980 C.3   431  GLU431      0.1733
    190  C        -13.9590   24.1660  -42.2090 C.2   431  GLU431      0.2616
    191  O        -14.5920   23.3240  -42.8210 O.2   431  GLU431     -0.2715
    192  CB       -15.5300   25.9470  -41.3950 C.3   431  GLU431      0.0429
    193  CG       -16.8060   25.3090  -41.7180 C.3   431  GLU431      0.1163
    194  CD       -17.6590   25.9130  -42.8010 C.2   431  GLU431      0.3649
    195  OE1      -17.2240   26.7080  -43.6360 O.co2 431  GLU431     -0.2457
    196  OE2      -18.8960   25.5540  -42.7580 O.co2 431  GLU431     -0.2457
    197  N        -12.9140   23.8560  -41.4440 N.am  432  ALA432     -0.1977
    198  CA       -12.4840   22.4840  -41.3220 C.3   432  ALA432      0.1597
    199  C        -13.6200   21.6020  -40.8180 C.2   432  ALA432      0.2287
    200  O        -13.5940   20.3810  -40.9920 O.2   432  ALA432     -0.2864
    201  CB       -11.2550   22.3730  -40.3810 C.3   432  ALA432      0.0319
    202  N        -15.2150   19.1160  -43.2770 N.3   435  ILE435     -0.1245
    203  CA       -14.3270   18.1390  -43.9120 C.3   435  ILE435      0.1561
    204  C        -14.9490   16.7220  -43.9780 C.2   435  ILE435      0.2260
    205  O        -14.8330   16.0560  -44.9910 O.2   435  ILE435     -0.2867
    206  CB       -12.9820   18.0810  -43.1660 C.3   435  ILE435      0.0252
    207  CG1      -11.8830   17.5520  -44.0960 C.3   435  ILE435      0.0019
    208  CG2      -13.1090   17.2940  -41.8350 C.3   435  ILE435      0.0019
    209  CD1      -11.5650   18.4340  -45.3390 C.3   435  ILE435      0.0001
@<TRIPOS>BOND
     1   124   123    1
     2   151   153    1
     3   151   150    1
     4   123   121   ar
     5   123   122   ar
     6   121   119   ar
     7   145   143    1
     8   150   152    1
     9   150   147    1
    10   122   120   ar
    11   138   139    1
    12   166   167    1
    13   139   140    1
    14   139   142    1
    15   146   147    1
    16   146   140   am
    17   147   148    1
    18   119   118   ar
    19   143   142    1
    20   140   141    2
    21   120   118   ar
    22   142   144    1
    23   167   168    1
    24    26    24    1
    25   169   168    2
    26   149   148    2
    27   118   117    1
    28   148   154   am
    29   157   156    2
    30   186   185    1
    31   164   163    2
    32   168   170   am
    33   163   162    1
    34   116   115    2
    35    24    25    1
    36    24    21    1
    37   154   160    1
    38   154   155    1
    39   156   155    1
    40   170   171    1
    41   170   176    1
    42   161   162    1
    43   162   165    1
    44   117   114    1
    45   160   159    1
    46   185   187    1
    47   185   184    2
    48   115   114    1
    49   115   125   am
    50   183   182    1
    51   183   184    1
    52   114   113    1
    53   182   181    1
    54   155   158    1
    55    20    21    1
    56    20    10   am
    57   171   172    1
    58   171   174    1
    59   176   175    1
    60   128   127    2
    61    21    22    1
    62     8     9    1
    63   132   133    2
    64   132   131    1
    65   126   127    1
    66   126   125    1
    67   126   129    1
    68     9    10    1
    69     9    12    1
    70   127   130   am
    71    10    11    2
    72    16    14   ar
    73    16    18   ar
    74   172   177   am
    75   172   173    2
    76    14    13   ar
    77   158   159    1
    78   177   178    1
    79   174   175    1
    80    22    23    2
    81    22    27   am
    82   181   178    1
    83   130   131    1
    84   178   179    1
    85   131   134    1
    86    18    19    1
    87    18    17   ar
    88    13    12    1
    89    13    15   ar
    90   209   207    1
    91    96    95    1
    92    27    28    1
    93   105   103    1
    94   205   204    2
    95    94    93    2
    96   101   100    2
    97    17    15   ar
    98    30    29    2
    99   179   180    2
   100   179   188   am
   101   134   135    1
   102    28    29    1
   103    28    31    1
   104   207   206    1
   105   109   108    2
   106   204   203    1
   107    99   100    1
   108    99    98    1
   109    99   102    1
   110    93    98   am
   111    93    92    1
   112   203   202    1
   113   203   206    1
   114   100   106   am
   115   188   189    1
   116    95    92    1
   117    95    97    1
   118   195   194   ar
   119   103   102    1
   120   103   104    1
   121   136   135   ar
   122   108   107    1
   123    92    91    1
   124   135   137   ar
   125   206   208    1
   126    31    33    1
   127    31    32    1
   128   191   190    2
   129   194   196   ar
   130   194   193    1
   131   106   107    1
   132   107   110    1
   133   189   190    1
   134   189   192    1
   135   190   197   am
   136    91    87   am
   137   193   192    1
   138    88    87    2
   139   197   198    1
   140   198   199    1
   141   198   201    1
   142    87    86    1
   143    71    70    1
   144   110   112    1
   145   110   111    1
   146   200   199    2
   147    72    70    1
   148    80    79    2
   149    83    82    1
   150    70    67    1
   151    81    82    1
   152    81    78    1
   153    59    57    1
   154    86    85    1
   155    86    89    1
   156    79    85   am
   157    79    78    1
   158    90    89    1
   159    82    84    1
   160    78    77    1
   161    67    68    1
   162    67    66    1
   163    77    75   am
   164    69    68    2
   165    57    58    1
   166    57    54    1
   167    73    74    1
   168    34    35    1
   169    56    55    2
   170    66    62   am
   171    55    54    1
   172    75    74    1
   173    75    76    2
   174    54    53    1
   175    38    35    1
   176    38    39    1
   177    35    36    1
   178    62    63    2
   179    62    61    1
   180    65    64    1
   181    37    36    2
   182    64    61    1
   183    53    47   am
   184    40    39   ar
   185    40    42   ar
   186    39    41   ar
   187    61    60    1
   188    47    48    2
   189    47    46    1
   190    42    44   ar
   191    41    43   ar
   192    45    46    1
   193    44    43   ar
   194    46    49    1
   195     6     5    1
   196     6     7    1
   197    49    50    1
   198     5     2    1
   199    50    52    1
   200    50    51    1
   201     7     1    1
   202     4     3    2
   203     2     3    1
   204     2     1    1
