@<TRIPOS>MOLECULE
tmp/4djhB00.pdb
 215 208 0 0 0
SMALL
GASTEIGER

@<TRIPOS>ATOM
      1  N         -1.0790  -57.2040   51.8150 N.3    54  VAL54      -0.1245
      2  CA        -0.1180  -57.0590   52.8930 C.3    54  VAL54       0.1561
      3  C          0.2150  -55.5920   53.0820 C.2    54  VAL54       0.2260
      4  O          0.5190  -55.1570   54.1870 O.2    54  VAL54      -0.2867
      5  CB         1.1670  -57.8430   52.6160 C.3    54  VAL54       0.0252
      6  CG1        1.9540  -57.1800   51.5010 C.3    54  VAL54       0.0019
      7  CG2        2.0060  -57.9490   53.8790 C.3    54  VAL54       0.0019
      8  N         -1.6440  -53.5510   55.5820 N.3    57  THR57      -0.1218
      9  CA        -1.3150  -53.7810   56.9830 C.3    57  THR57       0.1862
     10  C         -0.2050  -52.8440   57.4700 C.2    57  THR57       0.2287
     11  O          0.0160  -52.7150   58.6700 O.2    57  THR57      -0.2866
     12  CB        -0.9220  -55.2550   57.2440 C.3    57  THR57       0.1770
     13  OG1        0.3990  -55.5060   56.7440 O.3    57  THR57      -0.2211
     14  CG2       -1.9310  -56.2130   56.5900 C.3    57  THR57       0.0375
     15  N         -1.2590  -50.3420   60.0370 N.3    60  PHE60      -0.1227
     16  CA        -1.5160  -51.0090   61.3070 C.3    60  PHE60       0.1736
     17  C         -0.2030  -51.2390   62.0350 C.2    60  PHE60       0.2595
     18  O         -0.1160  -51.0490   63.2440 O.2    60  PHE60      -0.2718
     19  CB        -2.2130  -52.3540   61.0890 C.3    60  PHE60       0.0547
     20  CG        -3.6020  -52.2340   60.5330 C.ar   60  PHE60      -0.0202
     21  CD1       -4.7030  -52.2940   61.3690 C.ar   60  PHE60      -0.0042
     22  CD2       -3.8070  -52.0610   59.1730 C.ar   60  PHE60      -0.0042
     23  CE1       -5.9810  -52.1850   60.8580 C.ar   60  PHE60      -0.0003
     24  CE2       -5.0840  -51.9510   58.6580 C.ar   60  PHE60      -0.0003
     25  CZ        -6.1710  -52.0140   59.5000 C.ar   60  PHE60      -0.0000
     26  N          0.8180  -51.6480   61.2900 N.am   61  GLN61      -0.1979
     27  CA         2.1220  -51.9350   61.8760 C.3    61  GLN61       0.1601
     28  C          2.7890  -50.6940   62.4380 C.2    61  GLN61       0.2287
     29  O          3.3580  -50.7320   63.5240 O.2    61  GLN61      -0.2864
     30  CB         3.0420  -52.5770   60.8390 C.3    61  GLN61       0.0394
     31  CG         4.5190  -52.5670   61.2110 C.3    61  GLN61       0.0908
     32  CD         4.9500  -53.7830   62.0210 C.2    61  GLN61       0.2608
     33  OE1        6.0690  -54.2610   61.8710 O.2    61  GLN61      -0.2717
     34  NE2        4.0720  -54.2850   62.8790 N.am   61  GLN61      -0.0878
     35  N          0.8540  -49.8940   65.7830 N.3    64  VAL64      -0.1245
     36  CA         1.2210  -50.8040   66.8650 C.3    64  VAL64       0.1561
     37  C          2.6620  -50.5770   67.3100 C.2    64  VAL64       0.2260
     38  O          3.0030  -50.8030   68.4740 O.2    64  VAL64      -0.2867
     39  CB         1.0610  -52.2800   66.4350 C.3    64  VAL64       0.0252
     40  CG1        1.5880  -53.2250   67.5130 C.3    64  VAL64       0.0019
     41  CG2       -0.3870  -52.5860   66.1310 C.3    64  VAL64       0.0019
     42  N         -1.5670  -53.3370   70.6870 N.3    70  TRP70      -0.1241
     43  CA        -2.5790  -53.5870   69.6670 C.3    70  TRP70       0.1605
     44  C         -3.9420  -53.0000   70.0620 C.2    70  TRP70       0.2264
     45  O         -4.6480  -53.5780   70.8890 O.2    70  TRP70      -0.2867
     46  CB        -2.7190  -55.0930   69.4360 C.3    70  TRP70       0.0550
     47  CG        -3.6890  -55.4100   68.3630 C.ar   70  TRP70       0.0003
     48  CD1       -5.0210  -55.6570   68.5080 C.ar   70  TRP70       0.0946
     49  CD2       -3.4120  -55.4980   66.9650 C.ar   70  TRP70       0.0152
     50  NE1       -5.5910  -55.8980   67.2830 N.ar   70  TRP70      -0.2442
     51  CE2       -4.6240  -55.8090   66.3190 C.ar   70  TRP70       0.0810
     52  CE3       -2.2560  -55.3490   66.1940 C.ar   70  TRP70       0.0012
     53  CZ2       -4.7130  -55.9690   64.9410 C.ar   70  TRP70       0.0191
     54  CZ3       -2.3450  -55.5140   64.8280 C.ar   70  TRP70       0.0001
     55  CH2       -3.5660  -55.8160   64.2150 C.ar   70  TRP70       0.0015
     56  N         -5.7700  -59.2310   60.4240 N.3    80  VAL80      -0.1231
     57  CA        -4.4450  -58.7430   60.0470 C.3    80  VAL80       0.1692
     58  C         -3.4100  -59.8710   60.0310 C.2    80  VAL80       0.2591
     59  O         -2.4240  -59.8110   59.2930 O.2    80  VAL80      -0.2718
     60  CB        -3.9450  -57.6830   61.0300 C.3    80  VAL80       0.0266
     61  CG1       -3.6660  -58.3370   62.3670 C.3    80  VAL80       0.0020
     62  CG2       -2.6910  -57.0250   60.5020 C.3    80  VAL80       0.0020
     63  N         -3.6230  -60.8820   60.8710 N.am   81  LEU81      -0.1980
     64  CA        -2.7240  -62.0280   60.9400 C.3    81  LEU81       0.1596
     65  C         -2.9230  -62.9800   59.7710 C.2    81  LEU81       0.2287
     66  O         -1.9480  -63.4520   59.1870 O.2    81  LEU81      -0.2864
     67  CB        -2.9100  -62.7890   62.2520 C.3    81  LEU81       0.0297
     68  CG        -2.0620  -62.3310   63.4420 C.3    81  LEU81       0.0022
     69  CD1       -2.3920  -63.1670   64.6640 C.3    81  LEU81       0.0001
     70  CD2       -0.5620  -62.3980   63.1380 C.3    81  LEU81       0.0001
     71  N         -1.2270  -61.7000   57.0280 N.3    84  ASP84      -0.1225
     72  CA         0.2210  -61.8490   57.1900 C.3    84  ASP84       0.1805
     73  C          0.7020  -63.1880   56.5980 C.2    84  ASP84       0.2597
     74  O          1.6620  -63.2700   55.8200 O.2    84  ASP84      -0.2718
     75  CB         0.6140  -61.7770   58.6700 C.3    84  ASP84       0.1424
     76  CG         2.1140  -61.6270   58.8750 C.2    84  ASP84       0.3668
     77  OD1        2.6350  -62.3130   59.7690 O.co2  84  ASP84      -0.2456
     78  OD2        2.7540  -60.8080   58.1730 O.co2  84  ASP84      -0.2456
     79  N         -0.0370  -64.2250   56.9700 N.am   85  TYR85      -0.1976
     80  CA         0.2460  -65.5870   56.5270 C.3    85  TYR85       0.1639
     81  C         -0.1710  -65.8650   55.0820 C.2    85  TYR85       0.2290
     82  O          0.6340  -66.3330   54.2660 O.2    85  TYR85      -0.2864
     83  CB        -0.4090  -66.6040   57.4680 C.3    85  TYR85       0.0560
     84  CG         0.3730  -66.7770   58.7360 C.ar   85  TYR85      -0.0198
     85  CD1        0.0250  -66.0890   59.8820 C.ar   85  TYR85      -0.0009
     86  CD2        1.4860  -67.5960   58.7710 C.ar   85  TYR85      -0.0009
     87  CE1        0.7560  -66.2300   61.0520 C.ar   85  TYR85       0.0417
     88  CE2        2.2260  -67.7460   59.9240 C.ar   85  TYR85       0.0417
     89  CZ         1.8570  -67.0610   61.0610 C.ar   85  TYR85       0.1957
     90  OH         2.5950  -67.2250   62.2000 O.3    85  TYR85      -0.2866
     91  N          2.2150  -64.3940   52.8600 N.3    88  MET88      -0.1245
     92  CA         3.4700  -65.1260   52.8780 C.3    88  MET88       0.1570
     93  C          3.4040  -66.3740   51.9910 C.2    88  MET88       0.2261
     94  O          4.1960  -66.5260   51.0560 O.2    88  MET88      -0.2867
     95  CB         3.8470  -65.5060   54.3110 C.3    88  MET88       0.0387
     96  CG         5.0530  -66.4240   54.3920 C.3    88  MET88       0.0595
     97  SD         5.8480  -66.4520   56.0070 S.3    88  MET88      -0.1393
     98  CE         4.4380  -66.7640   57.0630 C.3    88  MET88       0.0692
     99  N         -1.2120  -58.6730   70.0640 N.3   156  CYS156     -0.1235
    100  CA        -1.8850  -59.3800   68.9930 C.3   156  CYS156      0.1677
    101  C         -0.9540  -60.4680   68.4900 C.2   156  CYS156      0.2270
    102  O          0.1270  -60.1830   67.9720 O.2   156  CYS156     -0.2867
    103  CB        -2.2450  -58.4180   67.8610 C.3   156  CYS156      0.0956
    104  SG        -2.8250  -59.2240   66.3510 S.3   156  CYS156     -0.0801
    105  N          5.4570  -74.7060   64.4120 N.3   172  MET172     -0.1230
    106  CA         4.8810  -74.0500   63.2520 C.3   172  MET172      0.1702
    107  C          5.9440  -73.2630   62.4890 C.2   172  MET172      0.2592
    108  O          5.9890  -73.3090   61.2590 O.2   172  MET172     -0.2718
    109  CB         3.7330  -73.1310   63.6660 C.3   172  MET172      0.0401
    110  CG         3.1330  -72.3550   62.5070 C.3   172  MET172      0.0596
    111  SD         1.6830  -71.3930   62.9710 S.3   172  MET172     -0.1393
    112  CE         0.5050  -72.6880   63.3470 C.3   172  MET172      0.0692
    113  N          6.8070  -72.5550   63.2100 N.am  173  LYS173     -0.1980
    114  CA         7.8130  -71.7260   62.5550 C.3   173  LYS173      0.1596
    115  C          8.7360  -72.5750   61.6840 C.2   173  LYS173      0.2287
    116  O          9.0460  -72.2060   60.5510 O.2   173  LYS173     -0.2864
    117  CB         8.6000  -70.8980   63.5800 C.3   173  LYS173      0.0298
    118  CG         7.8290  -69.6720   64.0850 C.3   173  LYS173      0.0038
    119  CD         8.6910  -68.7920   64.9750 C.3   173  LYS173      0.0206
    120  CE         7.9630  -67.5340   65.4430 C.3   173  LYS173      0.1093
    121  NZ         8.8320  -66.6880   66.3190 N.3   173  LYS173     -0.1314
    122  N          6.6960  -73.6160   58.6680 N.3   176  VAL176     -0.1231
    123  CA         6.5460  -72.4490   57.8050 C.3   176  VAL176      0.1692
    124  C          7.8450  -72.2220   57.0510 C.2   176  VAL176      0.2592
    125  O          7.8400  -71.8720   55.8740 O.2   176  VAL176     -0.2718
    126  CB         6.2010  -71.1680   58.5990 C.3   176  VAL176      0.0266
    127  CG1        6.3440  -69.9210   57.7150 C.3   176  VAL176      0.0020
    128  CG2        4.7980  -71.2480   59.1810 C.3   176  VAL176      0.0020
    129  N          8.9670  -72.4390   57.7220 N.am  177  PHE177     -0.1976
    130  CA        10.2550  -72.2200   57.0870 C.3   177  PHE177      0.1639
    131  C         10.4840  -73.2080   55.9410 C.2   177  PHE177      0.2290
    132  O         10.9030  -72.8150   54.8540 O.2   177  PHE177     -0.2864
    133  CB        11.3780  -72.3240   58.1130 C.3   177  PHE177      0.0560
    134  CG        12.7400  -72.2180   57.5160 C.ar  177  PHE177     -0.0200
    135  CD1       13.2070  -71.0050   57.0590 C.ar  177  PHE177     -0.0042
    136  CD2       13.5520  -73.3320   57.3990 C.ar  177  PHE177     -0.0042
    137  CE1       14.4610  -70.9000   56.5020 C.ar  177  PHE177     -0.0003
    138  CE2       14.8120  -73.2330   56.8440 C.ar  177  PHE177     -0.0003
    139  CZ        15.2670  -72.0160   56.3950 C.ar  177  PHE177     -0.0000
    140  N         12.9420  -61.6690   51.2780 N.3   392  TRP392     -0.1241
    141  CA        12.2640  -62.5210   52.2480 C.3   392  TRP392      0.1605
    142  C         13.2180  -63.4590   52.9810 C.2   392  TRP392      0.2264
    143  O         12.8190  -64.1390   53.9240 O.2   392  TRP392     -0.2867
    144  CB        11.1610  -63.3270   51.5550 C.3   392  TRP392      0.0550
    145  CG         9.8660  -62.5810   51.4690 C.ar  392  TRP392      0.0003
    146  CD1        9.5050  -61.6630   50.5220 C.ar  392  TRP392      0.0946
    147  CD2        8.7610  -62.6750   52.3750 C.ar  392  TRP392      0.0152
    148  NE1        8.2440  -61.1830   50.7830 N.ar  392  TRP392     -0.2442
    149  CE2        7.7640  -61.7880   51.9140 C.ar  392  TRP392      0.0810
    150  CE3        8.5150  -63.4250   53.5300 C.ar  392  TRP392      0.0012
    151  CZ2        6.5430  -61.6300   52.5670 C.ar  392  TRP392      0.0191
    152  CZ3        7.3010  -63.2680   54.1760 C.ar  392  TRP392      0.0001
    153  CH2        6.3300  -62.3770   53.6920 C.ar  392  TRP392      0.0015
    154  N         13.9960  -62.0260   56.8780 N.3   395  ILE395     -0.1231
    155  CA        12.9190  -62.2400   57.8390 C.3   395  ILE395      0.1692
    156  C         12.7540  -63.7200   58.1760 C.2   395  ILE395      0.2592
    157  O         12.5270  -64.0730   59.3320 O.2   395  ILE395     -0.2718
    158  CB        11.5740  -61.6820   57.3340 C.3   395  ILE395      0.0266
    159  CG1       10.4920  -61.8270   58.4090 C.3   395  ILE395      0.0019
    160  CG2       11.1260  -62.3950   56.0580 C.3   395  ILE395      0.0020
    161  CD1       10.7500  -61.0340   59.6670 C.3   395  ILE395      0.0001
    162  N         12.8750  -64.5830   57.1720 N.am  396  HIS396     -0.1976
    163  CA        12.6930  -66.0170   57.3820 C.3   396  HIS396      0.1656
    164  C         13.7450  -66.5850   58.3170 C.2   396  HIS396      0.2291
    165  O         13.4100  -67.2400   59.3000 O.2   396  HIS396     -0.2864
    166  CB        12.7090  -66.7800   56.0570 C.3   396  HIS396      0.0771
    167  CG        11.3640  -66.9040   55.4260 C.ar  396  HIS396      0.0820
    168  ND1       10.3200  -67.5770   56.0330 N.ar  396  HIS396     -0.2267
    169  CD2       10.8730  -66.4390   54.2560 C.ar  396  HIS396      0.1154
    170  CE1        9.2560  -67.5210   55.2620 C.ar  396  HIS396      0.1986
    171  NE2        9.5610  -66.8330   54.1700 N.ar  396  HIS396     -0.2212
    172  N         13.2660  -65.0360   61.9970 N.3   399  ILE399     -0.1245
    173  CA        12.1840  -65.6560   62.7550 C.3   399  ILE399      0.1561
    174  C         12.5980  -67.0320   63.2440 C.2   399  ILE399      0.2260
    175  O         12.2920  -67.4240   64.3730 O.2   399  ILE399     -0.2867
    176  CB        10.9070  -65.7950   61.8950 C.3   399  ILE399      0.0252
    177  CG1       10.2890  -64.4190   61.6220 C.3   399  ILE399      0.0019
    178  CG2        9.8900  -66.7040   62.5700 C.3   399  ILE399      0.0019
    179  CD1        9.7740  -63.7070   62.8590 C.3   399  ILE399      0.0001
    180  N         14.5280  -57.1280   63.4340 N.3   413  TYR413     -0.1241
    181  CA        13.1910  -57.5930   63.0640 C.3   413  TYR413      0.1605
    182  C         12.4790  -56.5600   62.2210 C.2   413  TYR413      0.2264
    183  O         11.8080  -56.8920   61.2470 O.2   413  TYR413     -0.2867
    184  CB        12.3600  -57.8690   64.3190 C.3   413  TYR413      0.0534
    185  CG        10.8680  -58.0080   64.0740 C.ar  413  TYR413     -0.0201
    186  CD1       10.3090  -59.2330   63.7230 C.ar  413  TYR413     -0.0009
    187  CD2       10.0170  -56.9160   64.2120 C.ar  413  TYR413     -0.0009
    188  CE1        8.9450  -59.3640   63.5060 C.ar  413  TYR413      0.0417
    189  CE2        8.6560  -57.0380   63.9980 C.ar  413  TYR413      0.0417
    190  CZ         8.1270  -58.2610   63.6460 C.ar  413  TYR413      0.1957
    191  OH         6.7730  -58.3700   63.4330 O.3   413  TYR413     -0.2866
    192  N         11.3970  -56.9570   58.1880 N.3   417  ILE417     -0.1245
    193  CA        10.0390  -56.8550   57.6730 C.3   417  ILE417      0.1561
    194  C          9.9190  -55.6550   56.7380 C.2   417  ILE417      0.2260
    195  O          8.9590  -55.5460   55.9740 O.2   417  ILE417     -0.2867
    196  CB         8.9910  -56.7400   58.7920 C.3   417  ILE417      0.0252
    197  CG1        9.1540  -55.4240   59.5380 C.3   417  ILE417      0.0019
    198  CG2        9.0950  -57.9090   59.7510 C.3   417  ILE417      0.0019
    199  CD1        8.0720  -55.1800   60.5400 C.3   417  ILE417      0.0001
    200  N         10.4240  -57.1040   53.3870 N.3   420  GLY420     -0.1210
    201  CA         9.2260  -57.7810   52.9370 C.3   420  GLY420      0.1956
    202  C          8.2190  -56.7890   52.4060 C.2   420  GLY420      0.2611
    203  O          7.6930  -56.9530   51.3040 O.2   420  GLY420     -0.2717
    204  N          7.9560  -55.7480   53.1850 N.am  421  TYR421     -0.1976
    205  CA         7.0510  -54.7090   52.7350 C.3   421  TYR421      0.1639
    206  C          7.5750  -54.0950   51.4430 C.2   421  TYR421      0.2290
    207  O          6.8180  -53.8920   50.4930 O.2   421  TYR421     -0.2864
    208  CB         6.8780  -53.6400   53.8070 C.3   421  TYR421      0.0560
    209  CG         5.8180  -53.9900   54.8220 C.ar  421  TYR421     -0.0198
    210  CD1        4.5120  -54.2320   54.4270 C.ar  421  TYR421     -0.0009
    211  CD2        6.1220  -54.0800   56.1730 C.ar  421  TYR421     -0.0009
    212  CE1        3.5410  -54.5540   55.3470 C.ar  421  TYR421      0.0417
    213  CE2        5.1560  -54.4000   57.1010 C.ar  421  TYR421      0.0417
    214  CZ         3.8650  -54.6350   56.6840 C.ar  421  TYR421      0.1957
    215  OH         2.8940  -54.9530   57.6080 O.3   421  TYR421     -0.2866
@<TRIPOS>BOND
     1   207   206    2
     2   146   148   ar
     3   146   145   ar
     4   148   149   ar
     5    94    93    2
     6   140   141    1
     7   203   202    2
     8   206   205    1
     9   145   144    1
    10   145   147   ar
    11     6     5    1
    12   144   141    1
    13     1     2    1
    14   149   147   ar
    15   149   151   ar
    16    93    92    1
    17   141   142    1
    18   147   150   ar
    19   202   201    1
    20   202   204   am
    21   151   153   ar
    22     5     2    1
    23     5     7    1
    24   205   204    1
    25   205   208    1
    26    91    92    1
    27    92    95    1
    28     2     3    1
    29   201   200    1
    30   142   143    2
    31     3     4    2
    32   150   152   ar
    33   153   152   ar
    34   208   209    1
    35   171   169   ar
    36   171   170   ar
    37   169   167   ar
    38    82    81    2
    39    95    96    1
    40    96    97    1
    41   210   209   ar
    42   210   212   ar
    43   209   211   ar
    44   132   131    2
    45    81    80    1
    46   170   168   ar
    47   212   214   ar
    48   167   168   ar
    49   167   166    1
    50     8     9    1
    51    74    73    2
    52   125   124    2
    53   131   130    1
    54   195   194    2
    55    97    98    1
    56   166   163    1
    57   160   158    1
    58   211   213   ar
    59   139   137   ar
    60   139   138   ar
    61   137   135   ar
    62    80    79    1
    63    80    83    1
    64    14    12    1
    65    73    79   am
    66    73    72    1
    67   214   213   ar
    68   214   215    1
    69   194   193    1
    70    13    12    1
    71   138   136   ar
    72   154   155    1
    73     9    12    1
    74     9    10    1
    75    71    72    1
    76   124   129   am
    77   124   123    1
    78   135   134   ar
    79   130   129    1
    80   130   133    1
    81   162   163    1
    82   162   156   am
    83    72    75    1
    84   158   155    1
    85   158   159    1
    86   163   164    1
    87   136   134   ar
    88    83    84    1
    89    10    11    2
    90   134   133    1
    91   193   192    1
    92   193   196    1
    93   127   126    1
    94   123   126    1
    95   123   122    1
    96   155   156    1
    97    78    76   ar
    98   156   157    2
    99   164   165    2
   100   159   161    1
   101   126   128    1
   102    24    22   ar
   103    24    25   ar
   104    75    76    1
   105    84    86   ar
   106    84    85   ar
   107    86    88   ar
   108   196   197    1
   109   196   198    1
   110    76    77   ar
   111    22    20   ar
   112    66    65    2
   113    59    58    2
   114    25    23   ar
   115   197   199    1
   116    65    64    1
   117    85    87   ar
   118    88    89   ar
   119    58    57    1
   120    58    63   am
   121    15    16    1
   122    57    56    1
   123    57    60    1
   124    62    60    1
   125    20    19    1
   126    20    21   ar
   127   116   115    2
   128    30    31    1
   129    30    27    1
   130    23    21   ar
   131    63    64    1
   132    64    67    1
   133    60    61    1
   134    87    89   ar
   135    89    90    1
   136    19    16    1
   137    31    32    1
   138   183   182    2
   139   108   107    2
   140    26    27    1
   141    26    17   am
   142    16    17    1
   143   177   176    1
   144   177   179    1
   145   115   114    1
   146    33    32    2
   147    27    28    1
   148   176   178    1
   149   176   173    1
   150   172   173    1
   151    32    34   am
   152    17    18    2
   153   182   181    1
   154    67    68    1
   155    28    29    2
   156   107   113   am
   157   107   106    1
   158   110   111    1
   159   110   109    1
   160   114   113    1
   161   114   117    1
   162   173   174    1
   163   111   112    1
   164   181   180    1
   165   181   184    1
   166    70    68    1
   167   174   175    2
   168   106   109    1
   169   106   105    1
   170   191   190    1
   171    68    69    1
   172   188   190   ar
   173   188   186   ar
   174   117   118    1
   175   190   189   ar
   176   186   185   ar
   177   189   187   ar
   178   185   187   ar
   179   185   184    1
   180   118   119    1
   181    55    54   ar
   182    55    53   ar
   183    54    52   ar
   184    53    51   ar
   185   119   120    1
   186   120   121    1
   187    35    36    1
   188    41    39    1
   189    52    49   ar
   190    51    49   ar
   191    51    50   ar
   192   104   103    1
   193    39    36    1
   194    39    40    1
   195    36    37    1
   196    49    47   ar
   197    50    48   ar
   198    37    38    2
   199   103   100    1
   200   102   101    2
   201    47    48   ar
   202    47    46    1
   203   101   100    1
   204   100    99    1
   205    46    43    1
   206    43    44    1
   207    43    42    1
   208    44    45    2
