@<TRIPOS>MOLECULE
tmp/4djhB01.pdb
 132 124 0 0 0
SMALL
GASTEIGER

@<TRIPOS>ATOM
      1  N         -0.9260  -66.7570   30.8980 N.3    39  ALA39      -0.1245
      2  CA        -0.5470  -67.6020   32.0190 C.3    39  ALA39       0.1562
      3  C          0.2610  -66.7930   33.0340 C.2    39  ALA39       0.2260
      4  O         -0.1100  -66.6890   34.2110 O.2    39  ALA39      -0.2867
      5  CB         0.2520  -68.7970   31.5230 C.3    39  ALA39       0.0290
      6  N         -0.7490  -65.2350   37.0430 N.3    43  TYR43      -0.1241
      7  CA         0.0410  -65.3740   38.2670 C.3    43  TYR43       0.1605
      8  C          0.3540  -63.9970   38.8380 C.2    43  TYR43       0.2264
      9  O          0.1070  -63.7240   40.0170 O.2    43  TYR43      -0.2867
     10  CB         1.3460  -66.1330   38.0120 C.3    43  TYR43       0.0534
     11  CG         1.1430  -67.5870   37.6750 C.ar   43  TYR43      -0.0201
     12  CD1        0.5030  -68.4420   38.5620 C.ar   43  TYR43      -0.0009
     13  CD2        1.5880  -68.1070   36.4730 C.ar   43  TYR43      -0.0009
     14  CE1        0.3110  -69.7800   38.2550 C.ar   43  TYR43       0.0417
     15  CE2        1.4010  -69.4380   36.1570 C.ar   43  TYR43       0.0417
     16  CZ         0.7640  -70.2710   37.0500 C.ar   43  TYR43       0.1957
     17  OH         0.5820  -71.5980   36.7370 O.3    43  TYR43      -0.2866
     18  N          4.1710  -69.2880   46.7510 N.3    93  PHE93      -0.1241
     19  CA         3.6470  -70.3890   45.9510 C.3    93  PHE93       0.1605
     20  C          3.3450  -69.9380   44.5270 C.2    93  PHE93       0.2264
     21  O          3.4100  -70.7300   43.5800 O.2    93  PHE93      -0.2867
     22  CB         2.3720  -70.9550   46.5760 C.3    93  PHE93       0.0534
     23  CG         2.6080  -71.7650   47.8120 C.ar   93  PHE93      -0.0203
     24  CD1        1.5440  -72.1400   48.6120 C.ar   93  PHE93      -0.0042
     25  CD2        3.8870  -72.1490   48.1830 C.ar   93  PHE93      -0.0042
     26  CE1        1.7440  -72.8820   49.7570 C.ar   93  PHE93      -0.0003
     27  CE2        4.0910  -72.8880   49.3310 C.ar   93  PHE93      -0.0003
     28  CZ         3.0160  -73.2560   50.1170 C.ar   93  PHE93      -0.0000
     29  N          5.0670  -71.4110   41.0240 N.3    97  MET97      -0.1245
     30  CA         4.2810  -71.8230   39.8680 C.3    97  MET97       0.1570
     31  C          4.5950  -70.9630   38.6540 C.2    97  MET97       0.2261
     32  O          4.6320  -71.4540   37.5280 O.2    97  MET97      -0.2867
     33  CB         2.7940  -71.7710   40.1920 C.3    97  MET97       0.0387
     34  CG         2.3880  -72.8710   41.1590 C.3    97  MET97       0.0595
     35  SD         3.0490  -74.5050   40.7080 S.3    97  MET97      -0.1393
     36  CE         2.4470  -74.6420   39.0260 C.3    97  MET97       0.0692
     37  N          7.7020  -72.3980   37.4490 N.3   100  VAL100     -0.1231
     38  CA         7.3850  -73.6750   36.8420 C.3   100  VAL100      0.1692
     39  C          6.7380  -73.4470   35.4810 C.2   100  VAL100      0.2592
     40  O          7.1070  -74.0840   34.4930 O.2   100  VAL100     -0.2718
     41  CB         6.4490  -74.5000   37.7260 C.3   100  VAL100      0.0266
     42  CG1        5.9620  -75.7320   36.9760 C.3   100  VAL100      0.0020
     43  CG2        7.1600  -74.8900   39.0140 C.3   100  VAL100      0.0020
     44  N          5.7770  -72.5290   35.4430 N.am  101  ASP101     -0.1974
     45  CA         5.0550  -72.2060   34.2180 C.3   101  ASP101      0.1709
     46  C          6.0260  -71.8520   33.0860 C.2   101  ASP101      0.2293
     47  O          5.8310  -72.2520   31.9320 O.2   101  ASP101     -0.2864
     48  CB         4.0900  -71.0500   34.4810 C.3   101  ASP101      0.1436
     49  CG         3.5140  -70.4710   33.2110 C.2   101  ASP101      0.3671
     50  OD1        4.0150  -69.4180   32.7460 O.co2 101  ASP101     -0.2456
     51  OD2        2.5520  -71.0730   32.6830 O.co2 101  ASP101     -0.2456
     52  N          7.9780  -74.8490   31.7860 N.3   104  ILE104     -0.1245
     53  CA         7.2150  -75.5970   30.7940 C.3   104  ILE104      0.1561
     54  C          7.3450  -74.9220   29.4300 C.2   104  ILE104      0.2260
     55  O          7.5720  -75.5880   28.4220 O.2   104  ILE104     -0.2867
     56  CB         5.7300  -75.7340   31.1970 C.3   104  ILE104      0.0252
     57  CG1        5.6180  -76.6200   32.4460 C.3   104  ILE104      0.0019
     58  CG2        4.8980  -76.2870   30.0330 C.3   104  ILE104      0.0019
     59  CD1        4.2270  -76.7070   33.0360 C.3   104  ILE104      0.0001
     60  N         -1.0270  -76.4840   28.0710 N.3   115  PHE115     -0.1227
     61  CA        -0.9350  -76.1750   29.4920 C.3   115  PHE115      0.1736
     62  C         -1.0320  -74.6870   29.7930 C.2   115  PHE115      0.2595
     63  O         -1.8070  -74.2760   30.6470 O.2   115  PHE115     -0.2718
     64  CB         0.3850  -76.6850   30.0490 C.3   115  PHE115      0.0547
     65  CG         0.4670  -78.1710   30.1450 C.ar  115  PHE115     -0.0202
     66  CD1        1.6000  -78.7700   30.6570 C.ar  115  PHE115     -0.0042
     67  CD2       -0.5820  -78.9710   29.7290 C.ar  115  PHE115     -0.0042
     68  CE1        1.6910  -80.1370   30.7560 C.ar  115  PHE115     -0.0003
     69  CE2       -0.4950  -80.3430   29.8270 C.ar  115  PHE115     -0.0003
     70  CZ         0.6430  -80.9270   30.3430 C.ar  115  PHE115     -0.0000
     71  N         -0.2320  -73.8820   29.1030 N.am  116  ARG116     -0.1966
     72  CA        -0.1410  -72.4570   29.4050 C.3   116  ARG116      0.1729
     73  C         -1.3140  -71.6840   28.8250 C.2   116  ARG116      0.2616
     74  O         -1.2950  -71.2820   27.6650 O.2   116  ARG116     -0.2715
     75  CB         1.1620  -71.8800   28.8670 C.3   116  ARG116      0.0348
     76  CG         2.4000  -72.6280   29.3280 C.3   116  ARG116      0.0492
     77  CD         3.6760  -71.8430   29.0600 C.3   116  ARG116      0.2205
     78  NE         3.6500  -70.5730   29.7780 N.pl3 116  ARG116     -0.0865
     79  CZ         3.5080  -69.3740   29.2190 C.cat 116  ARG116      0.5346
     80  NH1        3.4080  -69.2310   27.9010 N.pl3 116  ARG116      0.1354
     81  NH2        3.4820  -68.3040   30.0010 N.pl3 116  ARG116      0.1354
     82  N         -2.3400  -71.4990   29.6450 N.am  117  THR117     -0.1951
     83  CA        -3.5100  -70.7170   29.2800 C.3   117  THR117      0.1897
     84  C         -4.0170  -70.0420   30.5360 C.2   117  THR117      0.2313
     85  O         -3.9610  -70.6260   31.6220 O.2   117  THR117     -0.2863
     86  CB        -4.6470  -71.5950   28.7540 C.3   117  THR117      0.1794
     87  OG1       -5.1000  -72.4570   29.8060 O.3   117  THR117     -0.2208
     88  CG2       -4.1860  -72.4300   27.5620 C.3   117  THR117      0.0378
     89  N         -6.0510  -72.3650   33.0160 N.3   120  LYS120     -0.1231
     90  CA        -5.3160  -73.2980   33.8500 C.3   120  LYS120      0.1693
     91  C         -4.5600  -72.5750   34.9630 C.2   120  LYS120      0.2591
     92  O         -4.4060  -73.1030   36.0620 O.2   120  LYS120     -0.2718
     93  CB        -4.3790  -74.1440   32.9900 C.3   120  LYS120      0.0285
     94  CG        -5.1450  -74.9660   31.9710 C.3   120  LYS120      0.0035
     95  CD        -4.3830  -76.1810   31.5290 C.3   120  LYS120      0.0206
     96  CE        -5.1650  -76.9740   30.5030 C.3   120  LYS120      0.1093
     97  NZ        -6.5130  -77.3780   31.0020 N.3   120  LYS120     -0.1314
     98  N         -4.1100  -71.3590   34.6820 N.am  121  ALA121     -0.1980
     99  CA        -3.3790  -70.5660   35.6620 C.3   121  ALA121      0.1597
    100  C         -4.3190  -70.0750   36.7640 C.2   121  ALA121      0.2287
    101  O         -3.9260  -69.9930   37.9290 O.2   121  ALA121     -0.2864
    102  CB        -2.7010  -69.3900   34.9760 C.3   121  ALA121      0.0319
    103  N         -4.9440  -72.9510   39.1000 N.3   124  ILE124     -0.1245
    104  CA        -3.7870  -73.1590   39.9570 C.3   124  ILE124      0.1561
    105  C         -3.7220  -72.0900   41.0510 C.2   124  ILE124      0.2260
    106  O         -3.5210  -72.4100   42.2250 O.2   124  ILE124     -0.2867
    107  CB        -2.4950  -73.1990   39.1330 C.3   124  ILE124      0.0252
    108  CG1       -2.4630  -74.4900   38.3160 C.3   124  ILE124      0.0019
    109  CG2       -1.2800  -73.1430   40.0390 C.3   124  ILE124      0.0019
    110  CD1       -1.2500  -74.6370   37.4470 C.3   124  ILE124      0.0001
    111  N         -6.0160  -72.8670   43.8710 N.3   127  CYS127     -0.1221
    112  CA        -5.4610  -73.9070   44.7270 C.3   127  CYS127      0.1808
    113  C         -4.5070  -73.3060   45.7500 C.2   127  CYS127      0.2601
    114  O         -4.5720  -73.6260   46.9370 O.2   127  CYS127     -0.2717
    115  CB        -4.7380  -74.9630   43.8880 C.3   127  CYS127      0.0970
    116  SG        -5.8330  -76.0140   42.9050 S.3   127  CYS127     -0.0800
    117  N         -3.6220  -72.4320   45.2830 N.am  128  ILE128     -0.1979
    118  CA        -2.6770  -71.7700   46.1620 C.3   128  ILE128      0.1595
    119  C         -3.4020  -71.1160   47.3390 C.2   128  ILE128      0.2287
    120  O         -2.9240  -71.1640   48.4750 O.2   128  ILE128     -0.2864
    121  CB        -1.8660  -70.7160   45.4000 C.3   128  ILE128      0.0276
    122  CG1       -0.9080  -71.4080   44.4290 C.3   128  ILE128      0.0022
    123  CG2       -1.1110  -69.8180   46.3770 C.3   128  ILE128      0.0022
    124  CD1       -0.0990  -70.4550   43.5850 C.3   128  ILE128      0.0001
    125  N         -4.7580  -73.9350   49.5050 N.3   131  LEU131     -0.1245
    126  CA        -3.6230  -74.4590   50.2460 C.3   131  LEU131      0.1561
    127  C         -3.2420  -73.5080   51.3790 C.2   131  LEU131      0.2260
    128  O         -3.1740  -73.9100   52.5380 O.2   131  LEU131     -0.2867
    129  CB        -2.4320  -74.6740   49.3180 C.3   131  LEU131      0.0270
    130  CG        -1.1370  -75.0880   50.0220 C.3   131  LEU131      0.0019
    131  CD1       -1.3670  -76.3040   50.8920 C.3   131  LEU131      0.0001
    132  CD2       -0.0200  -75.3650   49.0200 C.3   131  LEU131      0.0001
@<TRIPOS>BOND
     1    88    86    1
     2    74    73    2
     3    80    79    1
     4    60    61    1
     5    55    54    2
     6    86    83    1
     7    86    87    1
     8    73    72    1
     9    73    82   am
    10    75    76    1
    11    75    72    1
    12    77    76    1
    13    77    78    1
    14    71    72    1
    15    71    62   am
    16    79    78    2
    17    79    81    1
    18    83    82    1
    19    83    84    1
    20    54    53    1
    21    61    62    1
    22    61    64    1
    23    67    69   ar
    24    67    65   ar
    25    62    63    2
    26    69    70   ar
    27    58    56    1
    28    64    65    1
    29    65    66   ar
    30    70    68   ar
    31    96    97    1
    32    96    95    1
    33    84    85    2
    34    66    68   ar
    35    53    56    1
    36    53    52    1
    37     1     2    1
    38    56    57    1
    39     5     2    1
    40    95    94    1
    41    47    46    2
    42    94    93    1
    43     2     3    1
    44    57    59    1
    45    51    49   ar
    46    50    49   ar
    47    93    90    1
    48    89    90    1
    49     3     4    2
    50    46    45    1
    51    49    48    1
    52    90    91    1
    53    45    48    1
    54    45    44    1
    55    40    39    2
    56    98    91   am
    57    98    99    1
    58    91    92    2
    59   102    99    1
    60    44    39   am
    61    39    38    1
    62    99   100    1
    63    15    13   ar
    64    15    16   ar
    65    13    11   ar
    66    17    16    1
    67   100   101    2
    68    38    37    1
    69    38    41    1
    70    42    41    1
    71     6     7    1
    72    16    14   ar
    73   110   108    1
    74    32    31    2
    75    11    10    1
    76    11    12   ar
    77    41    43    1
    78    10     7    1
    79    14    12   ar
    80     7     8    1
    81   108   107    1
    82    31    30    1
    83     8     9    2
    84    36    35    1
    85   103   104    1
    86   107   104    1
    87   107   109    1
    88    30    33    1
    89    30    29    1
    90   104   105    1
    91    33    34    1
    92    35    34    1
    93   105   106    2
    94   116   115    1
    95    21    20    2
    96   124   122    1
    97   111   112    1
    98   115   112    1
    99   122   121    1
   100    20    19    1
   101   112   113    1
   102   117   113   am
   103   117   118    1
   104   121   118    1
   105   121   123    1
   106   113   114    2
   107    19    22    1
   108    19    18    1
   109   118   119    1
   110    22    23    1
   111   119   120    2
   112    23    25   ar
   113    23    24   ar
   114    25    27   ar
   115    24    26   ar
   116   132   130    1
   117   129   130    1
   118   129   126    1
   119    27    28   ar
   120   125   126    1
   121    26    28   ar
   122   130   131    1
   123   126   127    1
   124   127   128    2
