@<TRIPOS>MOLECULE
tmp/4djhB02.pdb
 106 103 0 0 0
SMALL
GASTEIGER

@<TRIPOS>ATOM
      1  N          6.6610  -69.6200   42.5720 N.3    96  THR96      -0.1203
      2  CA         7.1030  -70.9720   42.2610 C.3    96  THR96       0.1994
      3  C          6.3950  -71.4380   40.9980 C.2    96  THR96       0.2617
      4  O          7.0390  -71.8110   40.0170 O.2    96  THR96      -0.2717
      5  CB         6.8060  -71.9500   43.4260 C.3    96  THR96       0.1784
      6  OG1        7.5760  -71.5790   44.5770 O.3    96  THR96      -0.2211
      7  CG2        7.1630  -73.3710   43.0510 C.3    96  THR96       0.0376
      8  N          5.0670  -71.4110   41.0240 N.am   97  MET97      -0.1979
      9  CA         4.2810  -71.8230   39.8680 C.3    97  MET97       0.1605
     10  C          4.5950  -70.9630   38.6540 C.2    97  MET97       0.2287
     11  O          4.6320  -71.4540   37.5280 O.2    97  MET97      -0.2864
     12  CB         2.7940  -71.7710   40.1920 C.3    97  MET97       0.0413
     13  CG         2.3880  -72.8710   41.1590 C.3    97  MET97       0.0598
     14  SD         3.0490  -74.5050   40.7080 S.3    97  MET97      -0.1393
     15  CE         2.4470  -74.6420   39.0260 C.3    97  MET97       0.0692
     16  N          7.7020  -72.3980   37.4490 N.3   100  VAL100     -0.1245
     17  CA         7.3850  -73.6750   36.8420 C.3   100  VAL100      0.1561
     18  C          6.7380  -73.4470   35.4810 C.2   100  VAL100      0.2260
     19  O          7.1070  -74.0840   34.4930 O.2   100  VAL100     -0.2867
     20  CB         6.4490  -74.5000   37.7260 C.3   100  VAL100      0.0252
     21  CG1        5.9620  -75.7320   36.9760 C.3   100  VAL100      0.0019
     22  CG2        7.1600  -74.8900   39.0140 C.3   100  VAL100      0.0019
     23  N          9.1910  -72.7830   33.0530 N.3   103  TYR103     -0.1227
     24  CA         9.9850  -73.9720   32.7980 C.3   103  TYR103      0.1736
     25  C          9.3040  -74.8060   31.7340 C.2   103  TYR103      0.2595
     26  O          9.9640  -75.3960   30.8770 O.2   103  TYR103     -0.2718
     27  CB        10.1650  -74.7960   34.0690 C.3   103  TYR103      0.0548
     28  CG        10.4780  -76.2550   33.7990 C.ar  103  TYR103     -0.0200
     29  CD1       11.7600  -76.6650   33.4380 C.ar  103  TYR103     -0.0009
     30  CD2        9.4830  -77.2220   33.8920 C.ar  103  TYR103     -0.0009
     31  CE1       12.0370  -78.0040   33.1870 C.ar  103  TYR103      0.0417
     32  CE2        9.7510  -78.5550   33.6430 C.ar  103  TYR103      0.0417
     33  CZ        11.0250  -78.9480   33.2950 C.ar  103  TYR103      0.1957
     34  OH        11.2690  -80.2890   33.0470 O.3   103  TYR103     -0.2866
     35  N          7.9780  -74.8490   31.7860 N.am  104  ILE104     -0.1980
     36  CA         7.2150  -75.5970   30.7940 C.3   104  ILE104      0.1595
     37  C          7.3450  -74.9220   29.4300 C.2   104  ILE104      0.2287
     38  O          7.5720  -75.5880   28.4220 O.2   104  ILE104     -0.2864
     39  CB         5.7300  -75.7340   31.1970 C.3   104  ILE104      0.0276
     40  CG1        5.6180  -76.6200   32.4460 C.3   104  ILE104      0.0022
     41  CG2        4.8980  -76.2870   30.0330 C.3   104  ILE104      0.0022
     42  CD1        4.2270  -76.7070   33.0360 C.3   104  ILE104      0.0001
     43  N         11.0320  -75.8990   28.2280 N.3   107  CYS107     -0.1221
     44  CA        11.4430  -77.2960   28.1050 C.3   107  CYS107      0.1808
     45  C         10.3150  -78.2110   27.6340 C.2   107  CYS107      0.2601
     46  O         10.5410  -79.3920   27.3670 O.2   107  CYS107     -0.2717
     47  CB        12.0130  -77.8050   29.4390 C.3   107  CYS107      0.0970
     48  SG        13.3940  -76.8180   30.0960 S.3   107  CYS107     -0.0800
     49  N          9.1050  -77.6720   27.5310 N.am  108  HIS108     -0.1962
     50  CA         7.9680  -78.4600   27.0840 C.3   108  HIS108      0.1772
     51  C          7.0590  -77.6340   26.1820 C.2   108  HIS108      0.2462
     52  O          5.8720  -77.4650   26.4710 O.2   108  HIS108     -0.2730
     53  CB         7.1920  -78.9650   28.2940 C.3   108  HIS108      0.0785
     54  CG         8.0020  -79.8310   29.2080 C.ar  108  HIS108      0.0821
     55  ND1        8.1080  -81.1970   29.0490 N.ar  108  HIS108     -0.2267
     56  CD2        8.7550  -79.5180   30.2960 C.ar  108  HIS108      0.1154
     57  CE1        8.8840  -81.6890   29.9990 C.ar  108  HIS108      0.1986
     58  NE2        9.2900  -80.6950   30.7620 N.ar  108  HIS108     -0.2212
     59  N          7.6390  -77.1100   25.1070 N.am  109  PRO109     -0.2716
     60  CA         6.9250  -76.2300   24.1790 C.3   109  PRO109      0.1536
     61  C          5.6560  -76.8670   23.6300 C.2   109  PRO109      0.2598
     62  O          4.6380  -76.1860   23.5120 O.2   109  PRO109     -0.2715
     63  CB         7.9370  -76.0230   23.0500 C.3   109  PRO109      0.0310
     64  CG         8.7710  -77.2590   23.0710 C.3   109  PRO109      0.0237
     65  CD         8.8730  -77.6570   24.5160 C.3   109  PRO109      0.0939
     66  N          5.7140  -78.1520   23.2960 N.am  110  VAL110     -0.1964
     67  CA         4.5460  -78.8160   22.7280 C.3   110  VAL110      0.1727
     68  C          3.3900  -78.8540   23.7400 C.2   110  VAL110      0.2616
     69  O          2.2700  -78.4480   23.4200 O.2   110  VAL110     -0.2715
     70  CB         4.8730  -80.2490   22.2660 C.3   110  VAL110      0.0290
     71  CG1        3.7340  -80.8170   21.4500 C.3   110  VAL110      0.0023
     72  CG2        6.1460  -80.2700   21.4430 C.3   110  VAL110      0.0023
     73  N          3.6580  -79.3400   24.9520 N.am  111  LYS111     -0.1977
     74  CA         2.6430  -79.3600   26.0080 C.3   111  LYS111      0.1596
     75  C          2.2950  -77.9400   26.4430 C.2   111  LYS111      0.2287
     76  O          1.1840  -77.6790   26.9190 O.2   111  LYS111     -0.2864
     77  CB         3.1130  -80.1630   27.2300 C.3   111  LYS111      0.0298
     78  CG         3.1360  -81.6890   27.0120 C.3   111  LYS111      0.0038
     79  CD         1.7150  -82.2680   26.8980 C.3   111  LYS111      0.0206
     80  CE         1.4730  -83.0700   25.5920 C.3   111  LYS111      0.1093
     81  NZ         1.1060  -82.2600   24.3670 N.3   111  LYS111     -0.1314
     82  N         -1.0270  -76.4840   28.0710 N.3   115  PHE115     -0.1241
     83  CA        -0.9350  -76.1750   29.4920 C.3   115  PHE115      0.1605
     84  C         -1.0320  -74.6870   29.7930 C.2   115  PHE115      0.2264
     85  O         -1.8070  -74.2760   30.6470 O.2   115  PHE115     -0.2867
     86  CB         0.3850  -76.6850   30.0490 C.3   115  PHE115      0.0534
     87  CG         0.4670  -78.1710   30.1450 C.ar  115  PHE115     -0.0203
     88  CD1        1.6000  -78.7700   30.6570 C.ar  115  PHE115     -0.0042
     89  CD2       -0.5820  -78.9710   29.7290 C.ar  115  PHE115     -0.0042
     90  CE1        1.6910  -80.1370   30.7560 C.ar  115  PHE115     -0.0003
     91  CE2       -0.4950  -80.3430   29.8270 C.ar  115  PHE115     -0.0003
     92  CZ         0.6430  -80.9270   30.3430 C.ar  115  PHE115     -0.0000
     93  N         12.6060  -75.7610   44.2780 N.3   187  ILE187     -0.1245
     94  CA        11.8900  -75.9910   43.0300 C.3   187  ILE187      0.1561
     95  C         12.2530  -74.9120   42.0350 C.2   187  ILE187      0.2260
     96  O         12.5460  -75.1910   40.8760 O.2   187  ILE187     -0.2867
     97  CB        10.3740  -75.9480   43.2200 C.3   187  ILE187      0.0252
     98  CG1        9.9010  -77.1280   44.0600 C.3   187  ILE187      0.0019
     99  CG2        9.6810  -75.9620   41.8670 C.3   187  ILE187      0.0019
    100  CD1        8.4530  -77.0260   44.4620 C.3   187  ILE187      0.0001
    101  N         13.9410  -75.4300   38.4730 N.3   191  CYS191     -0.1235
    102  CA        13.2770  -74.9180   37.2800 C.3   191  CYS191      0.1677
    103  C         14.2500  -74.0890   36.4570 C.2   191  CYS191      0.2270
    104  O         14.4420  -74.3330   35.2640 O.2   191  CYS191     -0.2867
    105  CB        12.0580  -74.0620   37.6580 C.3   191  CYS191      0.0956
    106  SG        10.5260  -74.9920   37.8480 S.3   191  CYS191     -0.0801
@<TRIPOS>BOND
     1    72    70    1
     2    71    70    1
     3    70    67    1
     4    67    66    1
     5    67    68    1
     6    63    64    1
     7    63    60    1
     8    64    65    1
     9    66    61   am
    10    69    68    2
    11    62    61    2
    12    61    60    1
    13    68    73   am
    14    60    59    1
    15    81    80    1
    16    65    59    1
    17    73    74    1
    18    59    51   am
    19    80    79    1
    20    74    75    1
    21    74    77    1
    22    51    52    2
    23    51    50    1
    24    75    76    2
    25    79    78    1
    26    78    77    1
    27    50    49    1
    28    50    53    1
    29    46    45    2
    30    49    45   am
    31    45    44    1
    32    82    83    1
    33    44    43    1
    34    44    47    1
    35    53    54    1
    36    38    37    2
    37    55    54   ar
    38    55    57   ar
    39    54    56   ar
    40    37    36    1
    41    47    48    1
    42    83    84    1
    43    83    86    1
    44    89    91   ar
    45    89    87   ar
    46    84    85    2
    47    91    92   ar
    48    57    58   ar
    49    41    39    1
    50    86    87    1
    51    87    88   ar
    52    56    58   ar
    53    92    90   ar
    54    88    90   ar
    55    36    39    1
    56    36    35    1
    57    26    25    2
    58    39    40    1
    59    25    35   am
    60    25    24    1
    61    40    42    1
    62    24    23    1
    63    24    27    1
    64    34    33    1
    65    31    33   ar
    66    31    29   ar
    67    33    32   ar
    68    29    28   ar
    69    32    30   ar
    70    28    30   ar
    71    28    27    1
    72    19    18    2
    73   104   103    2
    74    18    17    1
    75   103   102    1
    76    17    16    1
    77    17    20    1
    78    21    20    1
    79   102   105    1
    80   102   101    1
    81    11    10    2
    82   105   106    1
    83    20    22    1
    84    10     9    1
    85    15    14    1
    86     9    12    1
    87     9     8    1
    88     4     3    2
    89    12    13    1
    90    14    13    1
    91    96    95    2
    92     3     8   am
    93     3     2    1
    94    99    97    1
    95    95    94    1
    96     2     1    1
    97     2     5    1
    98    94    97    1
    99    94    93    1
   100     7     5    1
   101    97    98    1
   102     5     6    1
   103    98   100    1
