@<TRIPOS>MOLECULE
tmp/4djjB00.pdb
 127 123 0 0 0
SMALL
GASTEIGER

@<TRIPOS>ATOM
      1  N         -9.8690    6.1580  -17.9930 N.3    22  HIS22      -0.1241
      2  CA       -10.5450    6.5990  -16.7730 C.3    22  HIS22       0.1621
      3  C        -10.1420    8.0380  -16.3800 C.2    22  HIS22       0.2264
      4  O        -10.7550    8.6490  -15.4980 O.2    22  HIS22      -0.2867
      5  CB       -10.2110    5.5970  -15.6500 C.3    22  HIS22       0.0745
      6  CG       -11.3640    5.2430  -14.7570 C.ar   22  HIS22       0.0817
      7  ND1      -12.6560    5.0880  -15.2120 N.ar   22  HIS22      -0.2268
      8  CD2      -11.4030    4.9540  -13.4290 C.ar   22  HIS22       0.1154
      9  CE1      -13.4380    4.7250  -14.2100 C.ar   22  HIS22       0.1986
     10  NE2      -12.6990    4.6370  -13.1160 N.ar   22  HIS22      -0.2212
     11  N         -9.9870    7.1590   -7.3530 N.3    69  MET69      -0.1245
     12  CA       -11.2750    7.4100   -8.0000 C.3    69  MET69       0.1570
     13  C        -12.4960    7.1220   -7.1190 C.2    69  MET69       0.2261
     14  O        -13.4870    7.8440   -7.1780 O.2    69  MET69      -0.2867
     15  CB       -11.3700    6.5870   -9.2900 C.3    69  MET69       0.0387
     16  CG       -12.7160    6.6300  -10.0080 C.3    69  MET69       0.0595
     17  SD       -13.1260    8.2100  -10.7900 S.3    69  MET69      -0.1393
     18  CE       -12.0120    8.2250  -12.1950 C.3    69  MET69       0.0692
     19  N        -16.2330   13.5230  -16.7980 N.3    94  HIS94      -0.1226
     20  CA       -15.8710   12.1220  -16.6070 C.3    94  HIS94       0.1752
     21  C        -15.9090   11.3120  -17.9010 C.2    94  HIS94       0.2596
     22  O        -16.4260   11.7710  -18.9180 O.2    94  HIS94      -0.2718
     23  CB       -16.8070   11.4830  -15.5760 C.3    94  HIS94       0.0759
     24  CG       -18.2300   11.3820  -16.0310 C.ar   94  HIS94       0.0818
     25  ND1      -18.6920   10.3310  -16.7920 N.ar   94  HIS94      -0.2268
     26  CD2      -19.2840   12.2210  -15.8690 C.ar   94  HIS94       0.1154
     27  CE1      -19.9660   10.5230  -17.0810 C.ar   94  HIS94       0.1986
     28  NE2      -20.3500   11.6640  -16.5320 N.ar   94  HIS94      -0.2212
     29  N        -15.3510   10.1050  -17.8460 N.am   95  ASP95      -0.1960
     30  CA       -15.3030    9.2000  -18.9930 C.3    95  ASP95       0.1840
     31  C        -16.6580    8.5230  -19.1650 C.2    95  ASP95       0.2622
     32  O        -17.3490    8.2590  -18.1830 O.2    95  ASP95      -0.2715
     33  CB       -14.1900    8.1500  -18.7990 C.3    95  ASP95       0.1450
     34  CG       -14.1690    7.5450  -17.3880 C.2    95  ASP95       0.3671
     35  OD1      -14.0380    8.2990  -16.4030 O.co2  95  ASP95      -0.2456
     36  OD2      -14.2690    6.3040  -17.2600 O.co2  95  ASP95      -0.2456
     37  N        -17.0410    8.2450  -20.4080 N.am   96  GLU96      -0.1963
     38  CA       -18.3310    7.6240  -20.6720 C.3    96  GLU96       0.1733
     39  C        -18.2400    6.4020  -21.5780 C.2    96  GLU96       0.2616
     40  O        -17.8990    6.5010  -22.7640 O.2    96  GLU96      -0.2715
     41  CB       -19.2810    8.6460  -21.2980 C.3    96  GLU96       0.0429
     42  CG       -20.6860    8.1100  -21.5460 C.3    96  GLU96       0.1163
     43  CD       -21.3460    7.6020  -20.2770 C.2    96  GLU96       0.3649
     44  OE1      -21.5230    8.4120  -19.3380 O.co2  96  GLU96      -0.2457
     45  OE2      -21.6840    6.3970  -20.2210 O.co2  96  GLU96      -0.2457
     46  N        -18.5620    5.2460  -21.0100 N.am   97  LEU97      -0.1963
     47  CA       -18.5430    3.9960  -21.7460 C.3    97  LEU97       0.1728
     48  C        -19.6600    3.9340  -22.7700 C.2    97  LEU97       0.2616
     49  O        -19.5400    3.2280  -23.7600 O.2    97  LEU97      -0.2715
     50  CB       -18.7440    2.8160  -20.8030 C.3    97  LEU97       0.0311
     51  CG       -17.7010    2.3140  -19.8020 C.3    97  LEU97       0.0022
     52  CD1      -18.3940    1.3710  -18.8350 C.3    97  LEU97       0.0001
     53  CD2      -16.5510    1.6060  -20.5080 C.3    97  LEU97       0.0001
     54  N        -20.7440    4.6710  -22.5450 N.am   98  ASP98      -0.1971
     55  CA       -21.9020    4.5870  -23.4350 C.3    98  ASP98       0.1709
     56  C        -21.9210    5.3570  -24.7550 C.2    98  ASP98       0.2293
     57  O        -22.9110    5.2850  -25.4910 O.2    98  ASP98      -0.2864
     58  CB       -23.1690    4.8810  -22.6190 C.3    98  ASP98       0.1436
     59  CG       -23.5330    3.7290  -21.6780 C.2    98  ASP98       0.3671
     60  OD1      -24.3610    3.9410  -20.7530 O.co2  98  ASP98      -0.2456
     61  OD2      -22.9890    2.6090  -21.8810 O.co2  98  ASP98      -0.2456
     62  N        -25.5320    7.0570  -11.3410 N.3   112  HIS112     -0.1226
     63  CA       -24.0880    7.1000  -11.5410 C.3   112  HIS112      0.1752
     64  C        -23.7360    6.1740  -12.6890 C.2   112  HIS112      0.2597
     65  O        -22.5670    6.0210  -13.0550 O.2   112  HIS112     -0.2718
     66  CB       -23.3310    6.7160  -10.2610 C.3   112  HIS112      0.0759
     67  CG       -23.8590    5.4960   -9.5730 C.ar  112  HIS112      0.0818
     68  ND1      -23.5770    4.2150  -10.0000 N.ar  112  HIS112     -0.2268
     69  CD2      -24.6350    5.3640   -8.4720 C.ar  112  HIS112      0.1154
     70  CE1      -24.1540    3.3470   -9.1890 C.ar  112  HIS112      0.1986
     71  NE2      -24.8020    4.0180   -8.2530 N.ar  112  HIS112     -0.2212
     72  N        -24.7740    5.5830  -13.2750 N.am  113  GLY113     -0.1942
     73  CA       -24.5890    4.6930  -14.3990 C.3   113  GLY113      0.2014
     74  C        -23.4400    3.7260  -14.2060 C.2   113  GLY113      0.2639
     75  O        -22.7800    3.3490  -15.1690 O.2   113  GLY113     -0.2714
     76  N        -23.1630    3.3900  -12.9870 N.am  114  GLY114     -0.1939
     77  CA       -22.1550    2.4260  -12.6700 C.3   114  GLY114      0.2014
     78  C        -20.7760    2.9630  -12.4710 C.2   114  GLY114      0.2639
     79  O        -19.9730    2.2540  -11.9470 O.2   114  GLY114     -0.2714
     80  N        -20.5160    4.2080  -12.8410 N.am  115  HIS115     -0.1959
     81  CA       -19.2580    4.8380  -12.5520 C.3   115  HIS115      0.1787
     82  C        -19.0370    4.9080  -11.0700 C.2   115  HIS115      0.2620
     83  O        -19.7600    5.5330  -10.3780 O.2   115  HIS115     -0.2715
     84  CB       -19.3010    6.2600  -13.1100 C.3   115  HIS115      0.0785
     85  CG       -17.9590    6.8410  -13.4280 C.ar  115  HIS115      0.0821
     86  ND1      -17.1420    7.4000  -12.4890 N.ar  115  HIS115     -0.2267
     87  CD2      -17.3040    6.9410  -14.5900 C.ar  115  HIS115      0.1154
     88  CE1      -16.0370    7.8100  -13.0590 C.ar  115  HIS115      0.1986
     89  NE2      -16.1070    7.5360  -14.3340 N.ar  115  HIS115     -0.2212
     90  N        -17.9520    4.3080  -10.6200 N.am  116  ASN116     -0.1972
     91  CA       -17.5740    4.2960   -9.1950 C.3   116  ASN116      0.1688
     92  C        -17.0040    5.5810   -8.6220 C.2   116  ASN116      0.2292
     93  O        -16.7380    5.6530   -7.4180 O.2   116  ASN116     -0.2864
     94  CB       -16.5680    3.1780   -8.8880 C.3   116  ASN116      0.1181
     95  CG       -17.1920    1.7880   -8.9360 C.2   116  ASN116      0.2629
     96  OD1      -18.3670    1.5980   -8.6090 O.2   116  ASN116     -0.2716
     97  ND2      -16.3960    0.8030   -9.3310 N.am  116  ASN116     -0.0877
     98  N        -18.4490    8.7200   -9.5550 N.3   118  LEU118     -0.1245
     99  CA       -19.6540    9.5010   -9.3790 C.3   118  LEU118      0.1561
    100  C        -20.3600    9.0160   -8.1190 C.2   118  LEU118      0.2260
    101  O        -20.7540    9.8150   -7.2730 O.2   118  LEU118     -0.2867
    102  CB       -20.5700    9.3410  -10.5990 C.3   118  LEU118      0.0270
    103  CG       -20.0280    9.8130  -11.9600 C.3   118  LEU118      0.0019
    104  CD1      -21.0120    9.4440  -13.0580 C.3   118  LEU118      0.0001
    105  CD2      -19.7940   11.3180  -11.9440 C.3   118  LEU118      0.0001
    106  N        -15.7440    7.2830  -24.5790 N.3   138  ILE138     -0.1245
    107  CA       -14.5540    6.4550  -24.7100 C.3   138  ILE138      0.1561
    108  C        -14.8310    5.0640  -25.2720 C.2   138  ILE138      0.2260
    109  O        -13.9070    4.2690  -25.4280 O.2   138  ILE138     -0.2867
    110  CB       -13.8500    6.2620  -23.3540 C.3   138  ILE138      0.0252
    111  CG1      -14.8180    5.6170  -22.3470 C.3   138  ILE138      0.0019
    112  CG2      -13.3260    7.5930  -22.8580 C.3   138  ILE138      0.0019
    113  CD1      -14.1570    5.0930  -21.0840 C.3   138  ILE138      0.0001
    114  N        -14.9680   -4.5640  -18.7880 N.3   147  VAL147     -0.1245
    115  CA       -14.9460   -3.1460  -18.4770 C.3   147  VAL147      0.1561
    116  C        -13.8030   -2.6450  -17.5980 C.2   147  VAL147      0.2260
    117  O        -13.1470   -1.6670  -17.9540 O.2   147  VAL147     -0.2867
    118  CB       -16.2990   -2.6890  -17.8740 C.3   147  VAL147      0.0252
    119  CG1      -16.1610   -1.3100  -17.2190 C.3   147  VAL147      0.0019
    120  CG2      -17.3470   -2.6380  -18.9820 C.3   147  VAL147      0.0019
    121  N        -11.0360    0.4410  -18.9280 N.3   151  VAL151     -0.1245
    122  CA       -10.9490    1.8400  -18.5200 C.3   151  VAL151      0.1561
    123  C         -9.5850    2.1970  -17.9610 C.2   151  VAL151      0.2260
    124  O         -9.2690    3.3720  -17.8020 O.2   151  VAL151     -0.2867
    125  CB       -11.9920    2.1970  -17.4550 C.3   151  VAL151      0.0252
    126  CG1      -13.3610    1.7530  -17.9110 C.3   151  VAL151      0.0019
    127  CG2      -11.6320    1.5700  -16.1320 C.3   151  VAL151      0.0019
@<TRIPOS>BOND
     1    57    56    2
     2   109   108    2
     3   108   107    1
     4    56    55    1
     5   107   106    1
     6   107   110    1
     7    49    48    2
     8    55    58    1
     9    55    54    1
    10   110   112    1
    11   110   111    1
    12    48    54   am
    13    48    47    1
    14    40    39    2
    15    58    59    1
    16   111   113    1
    17    61    59   ar
    18    47    46    1
    19    47    50    1
    20    59    60   ar
    21    39    46   am
    22    39    38    1
    23    42    41    1
    24    42    43    1
    25    41    38    1
    26    50    51    1
    27    38    37    1
    28    53    51    1
    29    37    31   am
    30    43    45   ar
    31    43    44   ar
    32    51    52    1
    33    31    30    1
    34    31    32    2
    35    30    33    1
    36    30    29    1
    37   120   118    1
    38   121   122    1
    39    22    21    2
    40    33    34    1
    41   114   115    1
    42   122   123    1
    43   122   125    1
    44   115   118    1
    45   115   116    1
    46     1     2    1
    47   123   124    2
    48   117   116    2
    49   126   125    1
    50    21    29   am
    51    21    20    1
    52   118   119    1
    53   125   127    1
    54    34    36   ar
    55    34    35   ar
    56    27    25   ar
    57    27    28   ar
    58    19    20    1
    59    25    24   ar
    60     2     3    1
    61     2     5    1
    62    20    23    1
    63    28    26   ar
    64     3     4    2
    65    24    26   ar
    66    24    23    1
    67     5     6    1
    68     7     6   ar
    69     7     9   ar
    70    75    74    2
    71     6     8   ar
    72    87    89   ar
    73    87    85   ar
    74    73    74    1
    75    73    72    1
    76    89    88   ar
    77     9    10   ar
    78    74    76   am
    79     8    10   ar
    80    85    84    1
    81    85    86   ar
    82    72    64   am
    83    84    81    1
    84    88    86   ar
    85   104   103    1
    86    65    64    2
    87    76    77    1
    88    80    81    1
    89    80    78   am
    90    64    63    1
    91    77    78    1
    92    81    82    1
    93    78    79    2
    94    18    17    1
    95   103   105    1
    96   103   102    1
    97    63    62    1
    98    63    66    1
    99    82    90   am
   100    82    83    2
   101    17    16    1
   102    90    91    1
   103   102    99    1
   104    66    67    1
   105    16    15    1
   106    68    67   ar
   107    68    70   ar
   108    67    69   ar
   109    98    99    1
   110    99   100    1
   111    97    95   am
   112    15    12    1
   113    91    94    1
   114    91    92    1
   115    70    71   ar
   116    95    94    1
   117    95    96    2
   118    92    93    2
   119    69    71   ar
   120   100   101    2
   121    12    11    1
   122    12    13    1
   123    14    13    2
