@<TRIPOS>MOLECULE
tmp/4djoB00.pdb
 121 113 0 0 0
SMALL
GASTEIGER

@<TRIPOS>ATOM
      1  N         19.2750   16.7040   15.3200 N.3     8  ARG8       -0.1245
      2  CA        18.5350   17.9320   15.6720 C.3     8  ARG8        0.1563
      3  C         17.5380   17.6290   16.7850 C.2     8  ARG8        0.2260
      4  O         16.8060   16.6180   16.7160 O.2     8  ARG8       -0.2867
      5  CB        17.7790   18.4560   14.4580 C.3     8  ARG8        0.0307
      6  CG        18.7210   19.0310   13.4210 C.3     8  ARG8        0.0489
      7  CD        18.0470   19.3760   12.1190 C.3     8  ARG8        0.2205
      8  NE        19.0020   19.9800   11.1930 N.pl3   8  ARG8       -0.0865
      9  CZ        18.9440   19.8970    9.8650 C.cat   8  ARG8        0.5346
     10  NH1       17.9680   19.2100    9.2620 N.pl3   8  ARG8        0.1354
     11  NH2       19.8560   20.5210    9.1260 N.pl3   8  ARG8        0.1354
     12  N         12.4160   22.7690   16.9330 N.3    23  LEU23      -0.1245
     13  CA        13.7590   22.6150   17.4850 C.3    23  LEU23       0.1561
     14  C         13.7880   23.2050   18.8700 C.2    23  LEU23       0.2260
     15  O         13.3360   24.3310   19.0460 O.2    23  LEU23      -0.2867
     16  CB        14.7510   23.4700   16.6930 C.3    23  LEU23       0.0270
     17  CG        15.4230   22.9590   15.4420 C.3    23  LEU23       0.0019
     18  CD1       16.2790   24.0790   14.8540 C.3    23  LEU23       0.0001
     19  CD2       16.2450   21.7110   15.7450 C.3    23  LEU23       0.0001
     20  N         15.8960   25.1520   20.9830 N.3    25  ASP25      -0.1239
     21  CA        17.0020   25.9660   20.5050 C.3    25  ASP25       0.1674
     22  C         17.5330   26.9710   21.5320 C.2    25  ASP25       0.2266
     23  O         17.0060   28.0630   21.6760 O.2    25  ASP25      -0.2867
     24  CB        16.5740   26.6900   19.2230 C.3    25  ASP25       0.1410
     25  CG        17.7400   27.3460   18.5200 C.2    25  ASP25       0.3668
     26  OD1       17.5510   27.8830   17.4140 O.co2  25  ASP25      -0.2456
     27  OD2       18.8590   27.3100   19.0780 O.co2  25  ASP25      -0.2456
     28  N         20.0940   28.6800   21.2930 N.3    27  GLY27      -0.1210
     29  CA        20.6880   29.8160   20.6160 C.3    27  GLY27       0.1956
     30  C         19.6840   30.8990   20.2670 C.2    27  GLY27       0.2612
     31  O         20.0800   31.9740   19.8350 O.2    27  GLY27      -0.2717
     32  N         18.4030   30.5960   20.4480 N.am   28  ALA28      -0.1965
     33  CA        17.3040   31.4890   20.1040 C.3    28  ALA28       0.1728
     34  C         16.7530   32.2070   21.3220 C.2    28  ALA28       0.2616
     35  O         16.2140   31.5610   22.2340 O.2    28  ALA28      -0.2715
     36  CB        16.1780   30.6980   19.4390 C.3    28  ALA28       0.0334
     37  N         16.8150   33.5380   21.3240 N.am   29  ASP29      -0.1957
     38  CA        16.2230   34.3150   22.4290 C.3    29  ASP29       0.1840
     39  C         14.7210   34.1470   22.5080 C.2    29  ASP29       0.2622
     40  O         14.1420   34.0340   23.6000 O.2    29  ASP29      -0.2715
     41  CB        16.4640   35.8150   22.2630 C.3    29  ASP29       0.1450
     42  CG        17.9330   36.2090   22.3070 C.2    29  ASP29       0.3671
     43  OD1       18.7910   35.4480   22.8030 O.co2  29  ASP29      -0.2456
     44  OD2       18.2160   37.3400   21.8560 O.co2  29  ASP29      -0.2456
     45  N         14.1090   34.1860   21.3280 N.am   30  ASP30      -0.1971
     46  CA        12.6720   34.1200   21.1330 C.3    30  ASP30       0.1709
     47  C         12.2630   32.8720   20.3390 C.2    30  ASP30       0.2293
     48  O         13.0660   32.2070   19.6740 O.2    30  ASP30      -0.2864
     49  CB        12.1810   35.3650   20.3810 C.3    30  ASP30       0.1436
     50  CG        12.4930   36.6790   21.1120 C.2    30  ASP30       0.3671
     51  OD1       12.8210   36.6800   22.3130 O.co2  30  ASP30      -0.2456
     52  OD2       12.3930   37.7400   20.4580 O.co2  30  ASP30      -0.2456
     53  N         10.1620   31.1860   17.3080 N.3    32  VAL32      -0.1245
     54  CA         9.8330   31.5870   15.9320 C.3    32  VAL32       0.1561
     55  C          9.2050   30.4260   15.2020 C.2    32  VAL32       0.2260
     56  O          9.8490   29.3880   14.9980 O.2    32  VAL32      -0.2867
     57  CB        11.0620   32.0430   15.1270 C.3    32  VAL32       0.0252
     58  CG1       10.6080   32.7610   13.8100 C.3    32  VAL32       0.0019
     59  CG2       11.9770   32.9370   15.9860 C.3    32  VAL32       0.0019
     60  N          7.7650   42.8650   13.8040 N.3    45  LYS45      -0.1245
     61  CA         9.0880   42.7520   14.3650 C.3    45  LYS45       0.1561
     62  C         10.0070   42.2200   13.2830 C.2    45  LYS45       0.2260
     63  O          9.5510   41.5780   12.3220 O.2    45  LYS45      -0.2867
     64  CB         9.0640   41.7940   15.5440 C.3    45  LYS45       0.0271
     65  CG        10.2990   41.7890   16.4170 C.3    45  LYS45       0.0035
     66  CD        10.0890   40.7830   17.5260 C.3    45  LYS45       0.0206
     67  CE        11.3160   40.5530   18.3630 C.3    45  LYS45       0.1093
     68  NZ        11.6910   41.7160   19.1820 N.3    45  LYS45      -0.1314
     69  N         13.7020   40.0260   13.0730 N.3    47  ILE47      -0.1231
     70  CA        14.7100   39.2730   13.8380 C.3    47  ILE47       0.1692
     71  C         15.8120   38.8020   12.9160 C.2    47  ILE47       0.2593
     72  O         15.5810   38.5550   11.7310 O.2    47  ILE47      -0.2718
     73  CB        14.1210   38.0860   14.6240 C.3    47  ILE47       0.0266
     74  CG1       13.3700   37.1290   13.6900 C.3    47  ILE47       0.0019
     75  CG2       13.2370   38.5950   15.7250 C.3    47  ILE47       0.0020
     76  CD1       12.9680   35.7980   14.3630 C.3    47  ILE47       0.0001
     77  N         17.0200   38.7320   13.4600 N.am   48  GLY48      -0.1942
     78  CA        18.1880   38.5310   12.6340 C.3    48  GLY48       0.2014
     79  C         18.9980   37.3210   13.0240 C.2    48  GLY48       0.2639
     80  O         19.1460   37.0010   14.2050 O.2    48  GLY48      -0.2714
     81  N         19.5600   36.6870   12.0090 N.am   49  GLY49      -0.1939
     82  CA        20.5340   35.6350   12.2060 C.3    49  GLY49       0.2014
     83  C         21.4620   35.5070   11.0260 C.2    49  GLY49       0.2638
     84  O         21.6930   36.4570   10.2820 O.2    49  GLY49      -0.2714
     85  N         22.0110   34.3090   10.8470 N.am   50  ILE50      -0.1977
     86  CA        22.8590   34.0650    9.7030 C.3    50  ILE50       0.1596
     87  C         22.0370   34.3060    8.4340 C.2    50  ILE50       0.2287
     88  O         20.9310   33.7880    8.2860 O.2    50  ILE50      -0.2864
     89  CB        23.4580   32.6480    9.7530 C.3    50  ILE50       0.0276
     90  CG1       24.6480   32.6410   10.7250 C.3    50  ILE50       0.0022
     91  CG2       23.9050   32.1990    8.3530 C.3    50  ILE50       0.0022
     92  CD1       25.1450   31.2650   11.0810 C.3    50  ILE50       0.0001
     93  N         10.3200   31.6180    8.6600 N.3    80  THR80      -0.1204
     94  CA        11.4430   30.8270    9.1110 C.3    80  THR80       0.1979
     95  C         11.3880   29.4860    8.4100 C.2    80  THR80       0.2460
     96  O         10.3050   28.9510    8.1430 O.2    80  THR80      -0.2732
     97  CB        11.4490   30.6380   10.6260 C.3    80  THR80       0.1783
     98  OG1       12.5440   29.7950   10.9960 O.3    80  THR80      -0.2211
     99  CG2       10.1190   30.0590   11.1330 C.3    80  THR80       0.0376
    100  N         12.5590   28.9300    8.1150 N.am   81  PRO81      -0.2717
    101  CA        12.6170   27.5900    7.5110 C.3    81  PRO81       0.1535
    102  C         12.2950   26.4190    8.4600 C.2    81  PRO81       0.2598
    103  O         12.0090   25.2990    8.0080 O.2    81  PRO81      -0.2715
    104  CB        14.0670   27.5060    7.0260 C.3    81  PRO81       0.0310
    105  CG        14.8130   28.4350    7.9040 C.3    81  PRO81       0.0237
    106  CD        13.8870   29.5530    8.2310 C.3    81  PRO81       0.0939
    107  N         12.3510   26.6760    9.7610 N.am   82  VAL82      -0.1978
    108  CA        12.1520   25.6540   10.7750 C.3    82  VAL82       0.1596
    109  C         11.4640   26.3010   11.9690 C.2    82  VAL82       0.2287
    110  O         11.6850   27.4850   12.2550 O.2    82  VAL82      -0.2864
    111  CB        13.5040   25.0590   11.2300 C.3    82  VAL82       0.0276
    112  CG1       14.1740   24.2900   10.0960 C.3    82  VAL82       0.0022
    113  CG2       14.4220   26.1510   11.7560 C.3    82  VAL82       0.0022
    114  N         11.1640   27.0470   15.7210 N.3    84  ILE84      -0.1245
    115  CA        12.2090   27.2570   16.7230 C.3    84  ILE84       0.1561
    116  C         11.5980   27.5780   18.0960 C.2    84  ILE84       0.2260
    117  O         10.8730   28.5730   18.2380 O.2    84  ILE84      -0.2867
    118  CB        13.1040   28.4310   16.3050 C.3    84  ILE84       0.0252
    119  CG1       13.9060   28.0690   15.0550 C.3    84  ILE84       0.0019
    120  CG2       14.0510   28.8490   17.4280 C.3    84  ILE84       0.0019
    121  CD1       14.4940   29.2720   14.3520 C.3    84  ILE84       0.0001
@<TRIPOS>BOND
     1   104   101    1
     2   104   105    1
     3   101   100    1
     4   101   102    1
     5   105   106    1
     6   103   102    2
     7   100   106    1
     8   100    95   am
     9    96    95    2
    10    88    87    2
    11    91    89    1
    12    95    94    1
    13    87    86    1
    14   102   107   am
    15    93    94    1
    16    94    97    1
    17    11     9    1
    18    10     9    1
    19    86    89    1
    20    86    85    1
    21    89    90    1
    22   107   108    1
    23     9     8    2
    24   112   111    1
    25    84    83    2
    26    97    98    1
    27    97    99    1
    28    90    92    1
    29   108   111    1
    30   108   109    1
    31    85    83   am
    32    83    82    1
    33     8     7    1
    34   111   113    1
    35    72    71    2
    36   109   110    2
    37    81    82    1
    38    81    79   am
    39     7     6    1
    40    63    62    2
    41    78    79    1
    42    78    77    1
    43    71    77   am
    44    71    70    1
    45    79    80    2
    46    69    70    1
    47    62    61    1
    48     6     5    1
    49    74    76    1
    50    74    73    1
    51    60    61    1
    52    58    57    1
    53    70    73    1
    54   121   119    1
    55    61    64    1
    56     5     2    1
    57    73    75    1
    58    18    17    1
    59    56    55    2
    60   119   118    1
    61    57    54    1
    62    57    59    1
    63    55    54    1
    64     1     2    1
    65    17    19    1
    66    17    16    1
    67    64    65    1
    68     2     3    1
    69   114   115    1
    70    54    53    1
    71   118   115    1
    72   118   120    1
    73    65    66    1
    74    16    13    1
    75     4     3    2
    76   115   116    1
    77    12    13    1
    78    26    25   ar
    79    13    14    1
    80    66    67    1
    81   116   117    2
    82    67    68    1
    83    25    27   ar
    84    25    24    1
    85    14    15    2
    86    24    21    1
    87    36    33    1
    88    48    47    2
    89    31    30    2
    90    33    32    1
    91    33    34    1
    92    30    32   am
    93    30    29    1
    94    47    46    1
    95    49    50    1
    96    49    46    1
    97    52    50   ar
    98    21    20    1
    99    21    22    1
   100    29    28    1
   101    50    51   ar
   102    46    45    1
   103    34    37   am
   104    34    35    2
   105    37    38    1
   106    45    39   am
   107    22    23    2
   108    44    42   ar
   109    41    42    1
   110    41    38    1
   111    42    43   ar
   112    38    39    1
   113    39    40    2
