@<TRIPOS>MOLECULE
tmp/4djpA00.pdb
 94 88 0 0 0
SMALL
GASTEIGER

@<TRIPOS>ATOM
      1  N         28.2220   31.3470   22.1000 N.3    23  LEU23      -0.1245
      2  CA        26.8790   30.9460   22.4670 C.3    23  LEU23       0.1561
      3  C         26.6840   29.4480   22.2470 C.2    23  LEU23       0.2260
      4  O         26.9060   28.9430   21.1420 O.2    23  LEU23      -0.2867
      5  CB        25.8880   31.7310   21.6060 C.3    23  LEU23       0.0270
      6  CG        24.4010   31.5000   21.7990 C.3    23  LEU23       0.0019
      7  CD1       23.9770   32.0540   23.1190 C.3    23  LEU23       0.0001
      8  CD2       23.6370   32.1720   20.6400 C.3    23  LEU23       0.0001
      9  N         24.5570   26.7780   21.2320 N.3    25  ASP25      -0.1239
     10  CA        23.4050   26.9610   20.3600 C.3    25  ASP25       0.1674
     11  C         22.9190   25.6130   19.8310 C.2    25  ASP25       0.2266
     12  O         23.4090   25.1170   18.8180 O.2    25  ASP25      -0.2867
     13  CB        23.8480   27.9090   19.2300 C.3    25  ASP25       0.1410
     14  CG        22.7330   28.3160   18.3040 C.2    25  ASP25       0.3668
     15  OD1       21.6510   27.6770   18.3470 O.co2  25  ASP25      -0.2456
     16  OD2       22.9360   29.2490   17.5070 O.co2  25  ASP25      -0.2456
     17  N         20.2880   24.8560   18.3140 N.3    27  GLY27      -0.1210
     18  CA        19.6920   25.0110   16.9990 C.3    27  GLY27       0.1956
     19  C         20.6710   25.1990   15.8500 C.2    27  GLY27       0.2612
     20  O         20.2420   25.3400   14.6910 O.2    27  GLY27      -0.2717
     21  N         21.9740   25.2000   16.1360 N.am   28  ALA28      -0.1965
     22  CA        23.0010   25.2710   15.1050 C.3    28  ALA28       0.1728
     23  C         23.6080   23.8850   14.9040 C.2    28  ALA28       0.2616
     24  O         24.0500   23.2420   15.8690 O.2    28  ALA28      -0.2715
     25  CB        24.0720   26.2410   15.5130 C.3    28  ALA28       0.0334
     26  N         23.5980   23.3920   13.6670 N.am   29  ASP29      -0.1957
     27  CA        24.2680   22.1410   13.3580 C.3    29  ASP29       0.1840
     28  C         25.7840   22.2660   13.5360 C.2    29  ASP29       0.2622
     29  O         26.4570   21.3170   13.9520 O.2    29  ASP29      -0.2715
     30  CB        24.0020   21.7170   11.9130 C.3    29  ASP29       0.1450
     31  CG        22.5300   21.4930   11.5880 C.2    29  ASP29       0.3671
     32  OD1       21.7060   21.3050   12.4920 O.co2  29  ASP29      -0.2456
     33  OD2       22.2130   21.4660   10.3800 O.co2  29  ASP29      -0.2456
     34  N         26.3090   23.4100   13.1160 N.am   30  ASP30      -0.1971
     35  CA        27.7350   23.6740   12.9690 C.3    30  ASP30       0.1709
     36  C         28.1530   24.8120   13.8860 C.2    30  ASP30       0.2293
     37  O         27.3440   25.6230   14.3260 O.2    30  ASP30      -0.2864
     38  CB        28.0740   24.0890   11.5210 C.3    30  ASP30       0.1436
     39  CG        27.6910   23.0540   10.4730 C.2    30  ASP30       0.3671
     40  OD1       27.7860   21.8440   10.7530 O.co2  30  ASP30      -0.2456
     41  OD2       27.3590   23.4610    9.3270 O.co2  30  ASP30      -0.2456
     42  N         30.2570   28.2530   14.2150 N.3    32  VAL32      -0.1245
     43  CA        30.6880   29.3480   13.3520 C.3    32  VAL32       0.1561
     44  C         31.0910   30.5170   14.2270 C.2    32  VAL32       0.2260
     45  O         30.3480   30.9380   15.1130 O.2    32  VAL32      -0.2867
     46  CB        29.6300   29.7520   12.2730 C.3    32  VAL32       0.0252
     47  CG1       28.3160   30.1330   12.8730 C.3    32  VAL32       0.0019
     48  CG2       30.1730   30.8590   11.3790 C.3    32  VAL32       0.0019
     49  N         26.6610   28.4280    4.2630 N.3    47  ILE47      -0.1231
     50  CA        25.6920   27.9460    5.2450 C.3    47  ILE47       0.1692
     51  C         24.4990   28.8790    5.2390 C.2    47  ILE47       0.2593
     52  O         24.6290   30.0540    4.9350 O.2    47  ILE47      -0.2718
     53  CB        26.2500   27.8360    6.6840 C.3    47  ILE47       0.0266
     54  CG1       26.8150   29.1680    7.1760 C.3    47  ILE47       0.0019
     55  CG2       27.3050   26.7370    6.7720 C.3    47  ILE47       0.0020
     56  CD1       27.1650   29.1440    8.6710 C.3    47  ILE47       0.0001
     57  N         23.3500   28.3370    5.6300 N.am   48  GLY48      -0.1942
     58  CA        22.1170   29.1150    5.6320 C.3    48  GLY48       0.2014
     59  C         21.4230   29.1170    6.9750 C.2    48  GLY48       0.2639
     60  O         21.3360   28.1020    7.6460 O.2    48  GLY48      -0.2714
     61  N         20.8850   30.2770    7.3290 N.am   49  GLY49      -0.1939
     62  CA        20.1480   30.4420    8.5730 C.3    49  GLY49       0.2014
     63  C         18.8140   31.1040    8.3000 C.2    49  GLY49       0.2638
     64  O         18.2570   31.0080    7.2010 O.2    49  GLY49      -0.2714
     65  N         18.3170   31.8110    9.3050 N.am   50  ILE50      -0.1977
     66  CA        16.9780   32.3450    9.2540 C.3    50  ILE50       0.1596
     67  C         16.8490   33.4290    8.1950 C.2    50  ILE50       0.2287
     68  O         15.7830   33.5930    7.6070 O.2    50  ILE50      -0.2864
     69  CB        16.5480   32.8470   10.6620 C.3    50  ILE50       0.0276
     70  CG1       15.0430   32.6950   10.8430 C.3    50  ILE50       0.0022
     71  CG2       17.0280   34.2800   10.9150 C.3    50  ILE50       0.0022
     72  CD1       14.5520   33.0350   12.2340 C.3    50  ILE50       0.0001
     73  N         26.2320   36.5020   13.0900 N.3    81  PRO81      -0.2102
     74  CA        25.9170   37.6180   13.9850 C.3    81  PRO81       0.1504
     75  C         26.6200   37.5380   15.3390 C.2    81  PRO81       0.2575
     76  O         26.8500   38.5650   15.9770 O.2    81  PRO81      -0.2718
     77  CB        24.3960   37.5110   14.1870 C.3    81  PRO81       0.0282
     78  CG        24.0100   36.1720   13.7090 C.3    81  PRO81       0.0208
     79  CD        25.0250   35.7350   12.7190 C.3    81  PRO81       0.0893
     80  N         26.8960   36.3240   15.8020 N.am   82  VAL82      -0.1980
     81  CA        27.6020   36.1190   17.0620 C.3    82  VAL82       0.1595
     82  C         28.3620   34.7960   16.9810 C.2    82  VAL82       0.2287
     83  O         28.0380   33.9280   16.1670 O.2    82  VAL82      -0.2864
     84  CB        26.6270   36.0650   18.2650 C.3    82  VAL82       0.0276
     85  CG1       25.7720   37.3450   18.3690 C.3    82  VAL82       0.0022
     86  CG2       25.7290   34.8410   18.1690 C.3    82  VAL82       0.0022
     87  N         29.1190   31.1420   17.6800 N.3    84  ILE84      -0.1245
     88  CA        28.1690   30.0590   17.9120 C.3    84  ILE84       0.1561
     89  C         28.9030   28.7350   18.0420 C.2    84  ILE84       0.2260
     90  O         29.6640   28.3470   17.1580 O.2    84  ILE84      -0.2867
     91  CB        27.1670   29.9540   16.7370 C.3    84  ILE84       0.0252
     92  CG1       26.1860   31.1160   16.8200 C.3    84  ILE84       0.0019
     93  CG2       26.4610   28.5840   16.7190 C.3    84  ILE84       0.0019
     94  CD1       25.4200   31.3110   15.5240 C.3    84  ILE84       0.0001
@<TRIPOS>BOND
     1    49    50    1
     2    52    51    2
     3    51    50    1
     4    51    57   am
     5    50    53    1
     6    57    58    1
     7    58    59    1
     8    53    55    1
     9    53    54    1
    10    59    61   am
    11    59    60    2
    12    54    56    1
    13    64    63    2
    14    61    62    1
    15    68    67    2
    16    67    66    1
    17    63    62    1
    18    63    65   am
    19    66    65    1
    20    66    69    1
    21    41    39   ar
    22    33    31   ar
    23    39    40   ar
    24    39    38    1
    25    69    70    1
    26    69    71    1
    27    70    72    1
    28    48    46    1
    29    38    35    1
    30    31    30    1
    31    31    32   ar
    32    30    27    1
    33    46    47    1
    34    46    43    1
    35    79    73    1
    36    79    78    1
    37    35    34    1
    38    35    36    1
    39    73    74    1
    40    34    28   am
    41    43    42    1
    42    43    44    1
    43    27    28    1
    44    27    26    1
    45    28    29    2
    46    26    23   am
    47    78    77    1
    48    36    37    2
    49    74    77    1
    50    74    75    1
    51    44    45    2
    52    20    19    2
    53    23    22    1
    54    23    24    2
    55    22    25    1
    56    22    21    1
    57    75    80   am
    58    75    76    2
    59    94    92    1
    60    80    81    1
    61    19    21   am
    62    19    18    1
    63    83    82    2
    64    93    91    1
    65    91    92    1
    66    91    88    1
    67    82    81    1
    68    18    17    1
    69    81    84    1
    70    90    89    2
    71    16    14   ar
    72    87    88    1
    73    88    89    1
    74    86    84    1
    75    84    85    1
    76    14    15   ar
    77    14    13    1
    78    12    11    2
    79    13    10    1
    80    11    10    1
    81    10     9    1
    82     8     6    1
    83     4     3    2
    84     5     6    1
    85     5     2    1
    86     6     7    1
    87     1     2    1
    88     3     2    1
