@<TRIPOS>MOLECULE
tmp/4djqA00.pdb
 112 105 0 0 0
SMALL
GASTEIGER

@<TRIPOS>ATOM
      1  N         -4.1850   -5.2930  -27.8940 N.3     8  ARG8       -0.1245
      2  CA        -3.4990   -4.5910  -26.8040 C.3     8  ARG8        0.1563
      3  C         -2.4040   -3.6900  -27.3710 C.2     8  ARG8        0.2260
      4  O         -1.6350   -4.1150  -28.2350 O.2     8  ARG8       -0.2867
      5  CB        -2.8920   -5.5730  -25.8060 C.3     8  ARG8        0.0307
      6  CG        -3.9250   -6.3330  -25.0270 C.3     8  ARG8        0.0489
      7  CD        -3.3030   -7.4440  -24.2180 C.3     8  ARG8        0.2205
      8  NE        -4.3010   -8.0900  -23.3700 N.pl3   8  ARG8       -0.0865
      9  CZ        -4.1990   -9.3190  -22.8680 C.cat   8  ARG8        0.5346
     10  NH1       -3.1420  -10.0880  -23.1360 N.pl3   8  ARG8        0.1354
     11  NH2       -5.1710   -9.7930  -22.1050 N.pl3   8  ARG8        0.1354
     12  N          2.7450   -2.3740  -22.0240 N.3    23  LEU23      -0.1245
     13  CA         1.4090   -1.9780  -22.4250 C.3    23  LEU23       0.1561
     14  C          1.1940   -0.4890  -22.2000 C.2    23  LEU23       0.2260
     15  O          1.3640   -0.0050  -21.0860 O.2    23  LEU23      -0.2867
     16  CB         0.4140   -2.7610  -21.5730 C.3    23  LEU23       0.0270
     17  CG        -1.0770   -2.5830  -21.8200 C.3    23  LEU23       0.0019
     18  CD1       -1.4880   -3.1760  -23.1520 C.3    23  LEU23       0.0001
     19  CD2       -1.8620   -3.2320  -20.6690 C.3    23  LEU23       0.0001
     20  N         -0.8910    2.2850  -21.1730 N.3    25  ASP25      -0.1239
     21  CA        -2.0080    2.1220  -20.2450 C.3    25  ASP25       0.1674
     22  C         -2.4840    3.4770  -19.7190 C.2    25  ASP25       0.2266
     23  O         -1.9950    3.9810  -18.7060 O.2    25  ASP25      -0.2867
     24  CB        -1.5530    1.2230  -19.0950 C.3    25  ASP25       0.1410
     25  CG        -2.6750    0.8110  -18.1740 C.2    25  ASP25       0.3668
     26  OD1       -3.7730    1.4170  -18.2630 O.co2  25  ASP25      -0.2456
     27  OD2       -2.4620   -0.1030  -17.3500 O.co2  25  ASP25      -0.2456
     28  N         -5.1500    4.2350  -18.2600 N.3    27  GLY27      -0.1210
     29  CA        -5.7940    4.1050  -16.9690 C.3    27  GLY27       0.1956
     30  C         -4.8520    3.9650  -15.7820 C.2    27  GLY27       0.2612
     31  O         -5.3060    3.8090  -14.6390 O.2    27  GLY27      -0.2717
     32  N         -3.5440    3.9860  -16.0240 N.am   28  ALA28      -0.1965
     33  CA        -2.5440    3.9040  -14.9610 C.3    28  ALA28       0.1728
     34  C         -1.8480    5.2560  -14.8100 C.2    28  ALA28       0.2616
     35  O         -1.3210    5.8040  -15.7760 O.2    28  ALA28      -0.2715
     36  CB        -1.5220    2.8290  -15.3040 C.3    28  ALA28       0.0334
     37  N         -1.8270    5.7960  -13.5910 N.am   29  ASP29      -0.1957
     38  CA        -1.1050    7.0300  -13.3200 C.3    29  ASP29       0.1840
     39  C          0.4020    6.8180  -13.5080 C.2    29  ASP29       0.2622
     40  O          1.1200    7.7340  -13.9400 O.2    29  ASP29      -0.2715
     41  CB        -1.2730    7.4900  -11.8700 C.3    29  ASP29       0.1450
     42  CG        -2.6990    7.8050  -11.4600 C.2    29  ASP29       0.3671
     43  OD1       -3.5860    8.0480  -12.3000 O.co2  29  ASP29      -0.2456
     44  OD2       -2.9070    7.8670  -10.2110 O.co2  29  ASP29      -0.2456
     45  N          0.8640    5.6300  -13.1210 N.am   30  ASP30      -0.1971
     46  CA         2.2770    5.3120  -12.9470 C.3    30  ASP30       0.1709
     47  C          2.6950    4.1950  -13.8690 C.2    30  ASP30       0.2293
     48  O          1.8940    3.3600  -14.2760 O.2    30  ASP30      -0.2864
     49  CB         2.5150    4.8660  -11.5050 C.3    30  ASP30       0.1436
     50  CG         2.0320    5.8790  -10.4880 C.2    30  ASP30       0.3671
     51  OD1        2.3510    7.0750  -10.6270 O.co2  30  ASP30      -0.2456
     52  OD2        1.3170    5.4630   -9.5510 O.co2  30  ASP30      -0.2456
     53  N          4.6540    0.7860  -14.1800 N.3    32  VAL32      -0.1245
     54  CA         4.9350   -0.3430  -13.2940 C.3    32  VAL32       0.1561
     55  C          5.4610   -1.5020  -14.1310 C.2    32  VAL32       0.2260
     56  O          4.7790   -1.9710  -15.0510 O.2    32  VAL32      -0.2867
     57  CB         3.6770   -0.8170  -12.5030 C.3    32  VAL32       0.0252
     58  CG1        4.1020   -1.7410  -11.3830 C.3    32  VAL32       0.0019
     59  CG2        2.8690    0.3760  -11.9750 C.3    32  VAL32       0.0019
     60  N          1.1910    0.6140   -4.0690 N.3    47  ILE47      -0.1231
     61  CA         0.2030    1.0960   -5.0430 C.3    47  ILE47       0.1692
     62  C         -0.9680    0.1320   -5.1210 C.2    47  ILE47       0.2593
     63  O         -0.8080   -1.0640   -4.9120 O.2    47  ILE47      -0.2718
     64  CB         0.7830    1.3040   -6.4580 C.3    47  ILE47       0.0266
     65  CG1        1.3160   -0.0110   -7.0390 C.3    47  ILE47       0.0019
     66  CG2        1.8550    2.3730   -6.4420 C.3    47  ILE47       0.0020
     67  CD1        1.6990    0.0870   -8.5060 C.3    47  ILE47       0.0001
     68  N         -2.1340    0.6720   -5.4570 N.am   48  GLY48      -0.1942
     69  CA        -3.3680   -0.1030   -5.4680 C.3    48  GLY48       0.2014
     70  C         -3.9730   -0.1800   -6.8470 C.2    48  GLY48       0.2639
     71  O         -4.1170    0.8330   -7.5330 O.2    48  GLY48      -0.2714
     72  N         -4.3520   -1.3820   -7.2470 N.am   49  GLY49      -0.1939
     73  CA        -4.9760   -1.6040   -8.5360 C.3    49  GLY49       0.2014
     74  C         -6.3560   -2.1860   -8.3320 C.2    49  GLY49       0.2638
     75  O         -6.9580   -2.0660   -7.2650 O.2    49  GLY49      -0.2714
     76  N         -6.8680   -2.8320   -9.3610 N.am   50  ILE50      -0.1977
     77  CA        -8.2320   -3.3140   -9.3210 C.3    50  ILE50       0.1596
     78  C         -8.4150   -4.4060   -8.2670 C.2    50  ILE50       0.2287
     79  O         -9.5020   -4.5490   -7.6910 O.2    50  ILE50      -0.2864
     80  CB        -8.6830   -3.8090  -10.7240 C.3    50  ILE50       0.0276
     81  CG1      -10.1970   -3.6390  -10.8800 C.3    50  ILE50       0.0022
     82  CG2       -8.2390   -5.2690  -10.9790 C.3    50  ILE50       0.0022
     83  CD1      -10.7050   -3.9220  -12.2880 C.3    50  ILE50       0.0001
     84  N          3.3860   -6.5530  -10.7940 N.3    80  THR80      -0.1204
     85  CA         2.2970   -6.2020  -11.7040 C.3    80  THR80       0.1979
     86  C          2.0510   -7.3790  -12.6420 C.2    80  THR80       0.2460
     87  O          3.0030   -8.0800  -13.0000 O.2    80  THR80      -0.2732
     88  CB         2.6430   -4.9550  -12.5300 C.3    80  THR80       0.1783
     89  OG1        1.6020   -4.7100  -13.4760 O.3    80  THR80      -0.2211
     90  CG2        3.9710   -5.1220  -13.2830 C.3    80  THR80       0.0376
     91  N          0.7940   -7.6030  -13.0670 N.am   81  PRO81      -0.2717
     92  CA         0.5250   -8.6980  -14.0120 C.3    81  PRO81       0.1535
     93  C          1.2250   -8.5730  -15.3640 C.2    81  PRO81       0.2598
     94  O          1.4900   -9.5770  -16.0200 O.2    81  PRO81      -0.2715
     95  CB        -1.0010   -8.6630  -14.2030 C.3    81  PRO81       0.0310
     96  CG        -1.4990   -7.4690  -13.5150 C.3    81  PRO81       0.0237
     97  CD        -0.4390   -6.9300  -12.6150 C.3    81  PRO81       0.0939
     98  N          1.4890   -7.3350  -15.7810 N.am   82  VAL82      -0.1978
     99  CA         2.1320   -7.0390  -17.0630 C.3    82  VAL82       0.1596
    100  C          2.8970   -5.7220  -16.9290 C.2    82  VAL82       0.2287
    101  O          2.5440   -4.8850  -16.1030 O.2    82  VAL82      -0.2864
    102  CB         1.0800   -6.9040  -18.1870 C.3    82  VAL82       0.0276
    103  CG1        1.6930   -6.3480  -19.4610 C.3    82  VAL82       0.0022
    104  CG2        0.3950   -8.2470  -18.4520 C.3    82  VAL82       0.0022
    105  N          3.4900   -2.0840  -17.5760 N.3    84  ILE84      -0.1245
    106  CA         2.5830   -1.0190  -18.0020 C.3    84  ILE84       0.1561
    107  C          3.3040    0.3180  -18.0320 C.2    84  ILE84       0.2260
    108  O          4.0470    0.6760  -17.1040 O.2    84  ILE84      -0.2867
    109  CB         1.2650   -0.9450  -17.1590 C.3    84  ILE84       0.0252
    110  CG1        1.5280   -0.5990  -15.6920 C.3    84  ILE84       0.0019
    111  CG2        0.4980   -2.2500  -17.2560 C.3    84  ILE84       0.0019
    112  CD1        0.2480   -0.4500  -14.8590 C.3    84  ILE84       0.0001
@<TRIPOS>BOND
     1     4     3    2
     2     1     2    1
     3     3     2    1
     4     2     5    1
     5     5     6    1
     6     6     7    1
     7     7     8    1
     8     8     9    2
     9    18    17    1
    10    10     9    1
    11     9    11    1
    12    13    14    1
    13    13    12    1
    14    13    16    1
    15    14    15    2
    16    17    16    1
    17    17    19    1
    18    20    21    1
    19    21    22    1
    20    21    24    1
    21    22    23    2
    22   103   102    1
    23    24    25    1
    24   104   102    1
    25    26    25   ar
    26    28    29    1
    27   102    99    1
    28    25    27   ar
    29   107   106    1
    30   107   108    2
    31   106   105    1
    32   106   109    1
    33   111   109    1
    34   109   110    1
    35    99   100    1
    36    99    98    1
    37    29    30    1
    38   100   101    2
    39    32    30   am
    40    32    33    1
    41    94    93    2
    42    30    31    2
    43    98    93   am
    44    35    34    2
    45   110   112    1
    46    93    92    1
    47    36    33    1
    48    56    55    2
    49    33    34    1
    50    34    37   am
    51    48    47    2
    52    95    92    1
    53    95    96    1
    54    53    54    1
    55    55    54    1
    56    92    91    1
    57    40    39    2
    58    47    46    1
    59    37    38    1
    60    96    97    1
    61    39    38    1
    62    39    45   am
    63    89    88    1
    64    38    41    1
    65    54    57    1
    66    90    88    1
    67    45    46    1
    68    91    86   am
    69    91    97    1
    70    87    86    2
    71    46    49    1
    72    86    85    1
    73    88    85    1
    74    57    59    1
    75    57    58    1
    76    43    42   ar
    77    83    81    1
    78    41    42    1
    79    85    84    1
    80    49    50    1
    81    42    44   ar
    82    82    80    1
    83    81    80    1
    84    80    77    1
    85    51    50   ar
    86    50    52   ar
    87    76    77    1
    88    76    74   am
    89    77    78    1
    90    73    74    1
    91    73    72    1
    92    67    65    1
    93    74    75    2
    94    78    79    2
    95    71    70    2
    96    72    70   am
    97    65    64    1
    98    70    69    1
    99    64    66    1
   100    64    61    1
   101    69    68    1
   102    68    62   am
   103    62    61    1
   104    62    63    2
   105    61    60    1
