@<TRIPOS>MOLECULE
tmp/4djrA00.pdb
 112 105 0 0 0
SMALL
GASTEIGER

@<TRIPOS>ATOM
      1  N         21.2140   34.2740   27.7790 N.3     8  ARG8       -0.1245
      2  CA        21.8730   33.5580   26.6780 C.3     8  ARG8        0.1563
      3  C         22.9710   32.6610   27.2370 C.2     8  ARG8        0.2260
      4  O         23.7720   33.1150   28.0790 O.2     8  ARG8       -0.2867
      5  CB        22.4830   34.5420   25.6790 C.3     8  ARG8        0.0307
      6  CG        21.4600   35.2600   24.8720 C.3     8  ARG8        0.0489
      7  CD        22.0900   36.3320   24.0370 C.3     8  ARG8        0.2205
      8  NE        21.0800   36.9960   23.2160 N.pl3   8  ARG8       -0.0865
      9  CZ        21.1860   38.2370   22.7480 C.cat   8  ARG8        0.5346
     10  NH1       22.2530   38.9810   23.0370 N.pl3   8  ARG8        0.1354
     11  NH2       20.2120   38.7440   22.0070 N.pl3   8  ARG8        0.1354
     12  N         28.1290   31.3000   21.9330 N.3    23  LEU23      -0.1245
     13  CA        26.7860   30.8820   22.3250 C.3    23  LEU23       0.1561
     14  C         26.5930   29.3910   22.1010 C.2    23  LEU23       0.2260
     15  O         26.7800   28.9000   20.9820 O.2    23  LEU23      -0.2867
     16  CB        25.7900   31.6650   21.4730 C.3    23  LEU23       0.0270
     17  CG        24.2990   31.5010   21.7290 C.3    23  LEU23       0.0019
     18  CD1       23.9190   32.1400   23.0530 C.3    23  LEU23       0.0001
     19  CD2       23.5460   32.1250   20.5610 C.3    23  LEU23       0.0001
     20  N         24.5060   26.6050   21.0780 N.3    25  ASP25      -0.1239
     21  CA        23.4010   26.7480   20.1710 C.3    25  ASP25       0.1674
     22  C         22.9460   25.3960   19.6470 C.2    25  ASP25       0.2266
     23  O         23.4290   24.9110   18.6060 O.2    25  ASP25      -0.2867
     24  CB        23.8290   27.6930   19.0370 C.3    25  ASP25       0.1410
     25  CG        22.7020   28.0590   18.0910 C.2    25  ASP25       0.3668
     26  OD1       21.6000   27.4810   18.1860 O.co2  25  ASP25      -0.2456
     27  OD2       22.9370   28.9250   17.2340 O.co2  25  ASP25      -0.2456
     28  N         20.2970   24.6970   18.0970 N.3    27  GLY27      -0.1210
     29  CA        19.6580   24.8710   16.7950 C.3    27  GLY27       0.1956
     30  C         20.5960   24.9600   15.6070 C.2    27  GLY27       0.2612
     31  O         20.1320   25.1180   14.4770 O.2    27  GLY27      -0.2717
     32  N         21.9030   24.8660   15.8420 N.am   28  ALA28      -0.1965
     33  CA        22.9020   24.8960   14.7920 C.3    28  ALA28       0.1728
     34  C         23.6290   23.5560   14.6960 C.2    28  ALA28       0.2616
     35  O         24.1630   23.0480   15.6720 O.2    28  ALA28      -0.2715
     36  CB        23.8950   26.0180   15.0420 C.3    28  ALA28       0.0334
     37  N         23.6380   22.9720   13.5020 N.am   29  ASP29      -0.1957
     38  CA        24.3480   21.7270   13.2490 C.3    29  ASP29       0.1840
     39  C         25.8390   21.9480   13.5050 C.2    29  ASP29       0.2622
     40  O         26.5240   21.0580   14.0030 O.2    29  ASP29      -0.2715
     41  CB        24.2130   21.2710   11.7920 C.3    29  ASP29       0.1450
     42  CG        22.7840   20.9310   11.3470 C.2    29  ASP29       0.3671
     43  OD1       21.8700   20.7440   12.1740 O.co2  29  ASP29      -0.2456
     44  OD2       22.6120   20.8350   10.1020 O.co2  29  ASP29      -0.2456
     45  N         26.3220   23.1090   13.0630 N.am   30  ASP30      -0.1971
     46  CA        27.7420   23.3920   12.9420 C.3    30  ASP30       0.1709
     47  C         28.1420   24.6090   13.7480 C.2    30  ASP30       0.2293
     48  O         27.3630   25.5330   13.9730 O.2    30  ASP30      -0.2864
     49  CB        28.1080   23.6640   11.4820 C.3    30  ASP30       0.1436
     50  CG        27.6940   22.5500   10.5610 C.2    30  ASP30       0.3671
     51  OD1       28.0170   21.3730   10.8700 O.co2  30  ASP30      -0.2456
     52  OD2       27.0610   22.8630    9.5280 O.co2  30  ASP30      -0.2456
     53  N         30.0330   28.0250   14.1090 N.3    32  VAL32      -0.1245
     54  CA        30.3220   29.1470   13.2130 C.3    32  VAL32       0.1561
     55  C         30.8630   30.2970   14.0510 C.2    32  VAL32       0.2260
     56  O         30.1770   30.7990   14.9510 O.2    32  VAL32      -0.2867
     57  CB        29.0800   29.6310   12.4220 C.3    32  VAL32       0.0252
     58  CG1       29.5400   30.5460   11.2750 C.3    32  VAL32       0.0019
     59  CG2       28.2510   28.4350   11.9130 C.3    32  VAL32       0.0019
     60  N         26.5680   28.2150    4.0570 N.3    47  ILE47      -0.1231
     61  CA        25.5590   27.7600    5.0180 C.3    47  ILE47       0.1692
     62  C         24.3920   28.7290    5.0700 C.2    47  ILE47       0.2593
     63  O         24.5530   29.9200    4.8100 O.2    47  ILE47      -0.2718
     64  CB        26.1100   27.5580    6.4520 C.3    47  ILE47       0.0266
     65  CG1       26.6250   28.8810    7.0530 C.3    47  ILE47       0.0019
     66  CG2       27.1740   26.4340    6.4580 C.3    47  ILE47       0.0020
     67  CD1       27.0520   28.7500    8.5220 C.3    47  ILE47       0.0001
     68  N         23.2330   28.2100    5.4510 N.am   48  GLY48      -0.1942
     69  CA        22.0190   29.0120    5.4700 C.3    48  GLY48       0.2014
     70  C         21.4670   29.0950    6.8720 C.2    48  GLY48       0.2639
     71  O         21.5920   28.1650    7.6620 O.2    48  GLY48      -0.2714
     72  N         20.8680   30.2350    7.1770 N.am   49  GLY49      -0.1939
     73  CA        20.2130   30.4500    8.4440 C.3    49  GLY49       0.2014
     74  C         18.8720   31.0950    8.1920 C.2    49  GLY49       0.2638
     75  O         18.3010   31.0220    7.1000 O.2    49  GLY49      -0.2714
     76  N         18.3690   31.7460    9.2260 N.am   50  ILE50      -0.1977
     77  CA        17.0290   32.2830    9.1860 C.3    50  ILE50       0.1596
     78  C         16.9020   33.3940    8.1600 C.2    50  ILE50       0.2287
     79  O         15.8490   33.5580    7.5440 O.2    50  ILE50      -0.2864
     80  CB        16.5950   32.7540   10.5930 C.3    50  ILE50       0.0276
     81  CG1       15.0900   32.5640   10.7580 C.3    50  ILE50       0.0022
     82  CG2       17.0290   34.1860   10.8510 C.3    50  ILE50       0.0022
     83  CD1       14.5930   32.8390   12.1700 C.3    50  ILE50       0.0001
     84  N         28.7880   35.3820   10.7060 N.3    80  THR80      -0.1204
     85  CA        27.7020   35.0600   11.6130 C.3    80  THR80       0.1979
     86  C         27.4670   36.2520   12.5430 C.2    80  THR80       0.2460
     87  O         28.4250   36.9590   12.8860 O.2    80  THR80      -0.2732
     88  CB        28.0470   33.7960   12.4280 C.3    80  THR80       0.1783
     89  OG1       26.9950   33.5140   13.3410 O.3    80  THR80      -0.2211
     90  CG2       29.3640   33.9820   13.2100 C.3    80  THR80       0.0376
     91  N         26.2110   36.4880   12.9640 N.am   81  PRO81      -0.2717
     92  CA        25.9740   37.5980   13.9100 C.3    81  PRO81       0.1535
     93  C         26.6500   37.4610   15.2730 C.2    81  PRO81       0.2598
     94  O         26.9150   38.4650   15.9430 O.2    81  PRO81      -0.2715
     95  CB        24.4590   37.5840   14.1130 C.3    81  PRO81       0.0310
     96  CG        23.9050   36.7540   13.0430 C.3    81  PRO81       0.0237
     97  CD        24.9610   35.7770   12.6270 C.3    81  PRO81       0.0939
     98  N         26.8650   36.2260   15.7100 N.am   82  VAL82      -0.1978
     99  CA        27.6170   35.9570   16.9340 C.3    82  VAL82       0.1596
    100  C         28.3080   34.6100   16.8010 C.2    82  VAL82       0.2287
    101  O         27.9260   33.7710   15.9820 O.2    82  VAL82      -0.2864
    102  CB        26.7140   35.9140   18.1870 C.3    82  VAL82       0.0276
    103  CG1       26.0260   37.2600   18.4400 C.3    82  VAL82       0.0022
    104  CG2       25.7040   34.7700   18.0710 C.3    82  VAL82       0.0022
    105  N         28.9020   30.9780   17.4950 N.3    84  ILE84      -0.1245
    106  CA        28.0010   29.8920   17.8940 C.3    84  ILE84       0.1561
    107  C         28.7150   28.5520   17.9670 C.2    84  ILE84       0.2260
    108  O         29.4800   28.1810   17.0830 O.2    84  ILE84      -0.2867
    109  CB        26.7020   29.8000   17.0380 C.3    84  ILE84       0.0252
    110  CG1       26.9680   29.4560   15.5660 C.3    84  ILE84       0.0019
    111  CG2       25.8900   31.0970   17.1200 C.3    84  ILE84       0.0019
    112  CD1       25.6710   29.2730   14.7610 C.3    84  ILE84       0.0001
@<TRIPOS>BOND
     1    60    61    1
     2    63    62    2
     3    61    62    1
     4    61    64    1
     5    62    68   am
     6    68    69    1
     7    69    70    1
     8    64    66    1
     9    64    65    1
    10    70    72   am
    11    70    71    2
    12    65    67    1
    13    75    74    2
    14    72    73    1
    15    79    78    2
    16    78    77    1
    17    74    73    1
    18    74    76   am
    19    77    76    1
    20    77    80    1
    21    52    50   ar
    22    44    42   ar
    23    50    51   ar
    24    50    49    1
    25    80    81    1
    26    80    82    1
    27    84    85    1
    28    81    83    1
    29    58    57    1
    30    42    41    1
    31    42    43   ar
    32    49    46    1
    33    85    88    1
    34    85    86    1
    35    41    38    1
    36    59    57    1
    37    57    54    1
    38    88    90    1
    39    88    89    1
    40    86    87    2
    41    86    91   am
    42    97    91    1
    43    97    96    1
    44    46    45    1
    45    46    47    1
    46    91    92    1
    47    96    95    1
    48    45    39   am
    49    54    55    1
    50    54    53    1
    51    38    37    1
    52    38    39    1
    53    37    34   am
    54    39    40    2
    55    47    48    2
    56    92    95    1
    57    92    93    1
    58    55    56    2
    59    31    30    2
    60    34    33    1
    61    34    35    2
    62   112   110    1
    63    33    36    1
    64    33    32    1
    65    93    98   am
    66    93    94    2
    67   110   109    1
    68    30    32   am
    69    30    29    1
    70    98    99    1
    71   101   100    2
    72    29    28    1
    73   100    99    1
    74    99   102    1
    75   109   111    1
    76   109   106    1
    77   108   107    2
    78    27    25   ar
    79   105   106    1
    80   106   107    1
    81   104   102    1
    82    25    26   ar
    83    25    24    1
    84   102   103    1
    85    23    22    2
    86    24    21    1
    87    22    21    1
    88    21    20    1
    89    19    17    1
    90    15    14    2
    91    16    17    1
    92    16    13    1
    93    17    18    1
    94    12    13    1
    95    11     9    1
    96    14    13    1
    97     9    10    1
    98     9     8    2
    99     8     7    1
   100     7     6    1
   101     6     5    1
   102     5     2    1
   103     2     3    1
   104     2     1    1
   105     3     4    2
