@<TRIPOS>MOLECULE
tmp/4djtB00.pdb
 132 124 0 0 0
SMALL
GASTEIGER

@<TRIPOS>ATOM
      1  N          9.8880   -9.0050  -10.4990 N.3    20  GLY20      -0.1210
      2  CA        10.8700  -10.0690  -10.5710 C.3    20  GLY20       0.1956
      3  C         12.1880   -9.7170   -9.9170 C.2    20  GLY20       0.2612
      4  O         12.6990   -8.5820  -10.0730 O.2    20  GLY20      -0.2717
      5  N         12.7030  -10.6560   -9.1140 N.am   21  GLY21      -0.1942
      6  CA        13.9740  -10.5210   -8.4320 C.3    21  GLY21       0.2014
      7  C         13.9960   -9.8320   -7.0700 C.2    21  GLY21       0.2639
      8  O         15.0690   -9.7120   -6.4650 O.2    21  GLY21      -0.2714
      9  N         12.8530   -9.3560   -6.5860 N.am   22  VAL22      -0.1963
     10  CA        12.8270   -8.5880   -5.3320 C.3    22  VAL22       0.1727
     11  C         12.9540   -9.4900   -4.0880 C.2    22  VAL22       0.2617
     12  O         13.3010   -9.0090   -3.0000 O.2    22  VAL22      -0.2715
     13  CB        11.5750   -7.6700   -5.2090 C.3    22  VAL22       0.0290
     14  CG1       11.5410   -6.6280   -6.3450 C.3    22  VAL22       0.0023
     15  CG2       10.2810   -8.4800   -5.1860 C.3    22  VAL22       0.0023
     16  N         12.6330  -10.7840   -4.2590 N.am   23  GLY23      -0.1940
     17  CA        12.8690  -11.8160   -3.2260 C.3    23  GLY23       0.2014
     18  C         11.6300  -12.4960   -2.6950 C.2    23  GLY23       0.2639
     19  O         11.6650  -13.0910   -1.6210 O.2    23  GLY23      -0.2714
     20  N         10.5500  -12.4810   -3.4790 N.am   24  LYS24      -0.1963
     21  CA         9.2650  -13.0920   -3.0420 C.3    24  LYS24       0.1728
     22  C          9.4170  -14.5820   -2.7040 C.2    24  LYS24       0.2617
     23  O          8.9870  -15.0340   -1.6540 O.2    24  LYS24      -0.2715
     24  CB         8.2360  -12.9390   -4.1570 C.3    24  LYS24       0.0311
     25  CG         7.9570  -11.4990   -4.4920 C.3    24  LYS24       0.0038
     26  CD         6.8710  -11.3560   -5.5330 C.3    24  LYS24       0.0206
     27  CE         7.2580  -11.9160   -6.8880 C.3    24  LYS24       0.1093
     28  NZ         8.4660  -11.3260   -7.5130 N.3    24  LYS24      -0.1314
     29  N         10.0450  -15.3180   -3.6130 N.am   25  THR25      -0.1937
     30  CA        10.1960  -16.7480   -3.4880 C.3    25  THR25       0.2028
     31  C         11.1190  -17.0820   -2.3250 C.2    25  THR25       0.2642
     32  O         10.8210  -17.9610   -1.5400 O.2    25  THR25      -0.2714
     33  CB        10.6640  -17.3710   -4.8320 C.3    25  THR25       0.1808
     34  OG1        9.6510  -17.1570   -5.8190 O.3    25  THR25      -0.2208
     35  CG2       10.9360  -18.8900   -4.7190 C.3    25  THR25       0.0379
     36  N         12.2330  -16.3600   -2.1870 N.am   26  THR26      -0.1950
     37  CA        13.1320  -16.5560   -1.0570 C.3    26  THR26       0.1897
     38  C         12.4180  -16.3930    0.2960 C.2    26  THR26       0.2313
     39  O         12.6860  -17.1260    1.2300 O.2    26  THR26      -0.2863
     40  CB        14.3380  -15.5940   -1.1440 C.3    26  THR26       0.1794
     41  OG1       14.8840  -15.6690   -2.4640 O.3    26  THR26      -0.2208
     42  CG2       15.3950  -15.9430   -0.1190 C.3    26  THR26       0.0378
     43  N          4.2350  -16.5840   -7.2900 N.3    68  THR68      -0.1218
     44  CA         4.3440  -16.8160   -8.7270 C.3    68  THR68       0.1862
     45  C          5.3920  -17.8700   -9.0700 C.2    68  THR68       0.2287
     46  O          6.2100  -18.2440   -8.2200 O.2    68  THR68      -0.2866
     47  CB         4.7390  -15.5340   -9.5140 C.3    68  THR68       0.1770
     48  OG1        6.1490  -15.2520   -9.3400 O.3    68  THR68      -0.2211
     49  CG2        3.9020  -14.3450   -9.0940 C.3    68  THR68       0.0375
     50  N          7.3500  -17.0800  -11.6080 N.3    70  GLY70      -0.1225
     51  CA         8.3160  -16.2230  -12.2960 C.3    70  GLY70       0.1811
     52  C          7.7720  -15.4630  -13.4890 C.2    70  GLY70       0.2280
     53  O          8.5120  -14.6710  -14.1060 O.2    70  GLY70      -0.2866
     54  N          5.8640  -12.9200  -13.6770 N.3    72  GLU72      -0.1231
     55  CA         5.8440  -11.4520  -13.5220 C.3    72  GLU72       0.1699
     56  C          6.9880  -10.7530  -14.2500 C.2    72  GLU72       0.2592
     57  O          6.9120   -9.5540  -14.4810 O.2    72  GLU72      -0.2718
     58  CB         5.8450  -11.0420  -12.0400 C.3    72  GLU72       0.0402
     59  CG         7.1590  -11.1940  -11.2790 C.3    72  GLU72       0.1161
     60  CD         7.4010  -12.5900  -10.7300 C.2    72  GLU72       0.3649
     61  OE1        6.6700  -13.5330  -11.1200 O.co2  72  GLU72      -0.2457
     62  OE2        8.3740  -12.7590   -9.9650 O.co2  72  GLU72      -0.2457
     63  N          8.0570  -11.4820  -14.5890 N.am   73  LYS73      -0.1980
     64  CA         9.1840  -10.9050  -15.3760 C.3    73  LYS73       0.1596
     65  C          8.8590  -10.8430  -16.8600 C.2    73  LYS73       0.2287
     66  O          9.6650  -10.3640  -17.6500 O.2    73  LYS73      -0.2864
     67  CB        10.4380  -11.7520  -15.2400 C.3    73  LYS73       0.0298
     68  CG        10.8430  -12.0950  -13.8380 C.3    73  LYS73       0.0038
     69  CD        11.8530  -13.2310  -13.8330 C.3    73  LYS73       0.0206
     70  CE        12.3770  -13.4950  -12.4400 C.3    73  LYS73       0.1093
     71  NZ        13.1710  -14.7380  -12.3810 N.3    73  LYS73      -0.1314
     72  N         12.8380   -5.2690    1.0970 N.3   125  ASN125     -0.1225
     73  CA        13.6490   -6.4710    1.2030 C.3   125  ASN125      0.1785
     74  C         15.1280   -6.2340    0.8490 C.2   125  ASN125      0.2597
     75  O         15.4670   -5.2480    0.1840 O.2   125  ASN125     -0.2718
     76  CB        13.0620   -7.5860    0.2920 C.3   125  ASN125      0.1169
     77  CG        13.6680   -8.9190    0.5990 C.2   125  ASN125      0.2627
     78  OD1       14.0090   -9.1890    1.7780 O.2   125  ASN125     -0.2716
     79  ND2       13.9340   -9.7150   -0.4410 N.am  125  ASN125     -0.0877
     80  N         15.9790   -7.1530    1.3140 N.am  126  LYS126     -0.1980
     81  CA        17.4310   -7.2100    1.0260 C.3   126  LYS126      0.1596
     82  C         18.2120   -6.1850    1.8600 C.2   126  LYS126      0.2287
     83  O         19.2770   -5.7040    1.4310 O.2   126  LYS126     -0.2864
     84  CB        17.7310   -7.0460   -0.4780 C.3   126  LYS126      0.0298
     85  CG        17.0010   -8.0360   -1.3720 C.3   126  LYS126      0.0038
     86  CD        17.6640   -8.1920   -2.7410 C.3   126  LYS126      0.0206
     87  CE        16.7600   -8.9660   -3.7050 C.3   126  LYS126      0.1093
     88  NZ        17.4420   -9.1240   -5.0370 N.3   126  LYS126     -0.1314
     89  N         19.8940   -6.6840    4.4460 N.3   128  ASP128     -0.1225
     90  CA        21.1790   -7.2910    4.7760 C.3   128  ASP128      0.1805
     91  C         22.3180   -6.8950    3.8070 C.2   128  ASP128      0.2597
     92  O         23.4990   -7.0600    4.1430 O.2   128  ASP128     -0.2718
     93  CB        21.0430   -8.8040    4.7490 C.3   128  ASP128      0.1424
     94  CG        20.6450   -9.3120    3.3800 C.2   128  ASP128      0.3668
     95  OD1       19.4380   -9.1540    3.0220 O.co2 128  ASP128     -0.2456
     96  OD2       21.5410   -9.8240    2.6460 O.co2 128  ASP128     -0.2456
     97  N         21.9700   -6.4260    2.6070 N.am  129  ILE129     -0.1980
     98  CA        22.9760   -6.0940    1.6130 C.3   129  ILE129      0.1595
     99  C         23.6490   -4.8010    2.0450 C.2   129  ILE129      0.2287
    100  O         22.9930   -3.7690    2.1870 O.2   129  ILE129     -0.2864
    101  CB        22.3980   -5.9420    0.1800 C.3   129  ILE129      0.0276
    102  CG1       21.7910   -7.2560   -0.2930 C.3   129  ILE129      0.0022
    103  CG2       23.5010   -5.5210   -0.7910 C.3   129  ILE129      0.0022
    104  CD1       21.5950   -7.3590   -1.7870 C.3   129  ILE129      0.0001
    105  N         14.7910   -9.0520    5.6370 N.3   149  SER149     -0.1202
    106  CA        15.6560   -9.7960    4.7640 C.3   149  SER149      0.2020
    107  C         15.0730  -11.1790    4.5440 C.2   149  SER149      0.2619
    108  O         15.0860  -12.0570    5.4440 O.2   149  SER149     -0.2717
    109  CB        17.0750   -9.9120    5.3340 C.3   149  SER149      0.2103
    110  OG        17.8090  -10.8640    4.5970 O.3   149  SER149     -0.2182
    111  N         14.5610  -11.3950    3.3370 N.am  150  ALA150     -0.1965
    112  CA        14.0140  -12.7010    2.9900 C.3   150  ALA150      0.1728
    113  C         15.0950  -13.7810    3.0620 C.2   150  ALA150      0.2616
    114  O         14.8090  -14.9220    3.3960 O.2   150  ALA150     -0.2715
    115  CB        13.3580  -12.6640    1.6070 C.3   150  ALA150      0.0334
    116  N         16.3380  -13.4160    2.7900 N.am  151  LYS151     -0.1977
    117  CA        17.4400  -14.4000    2.7830 C.3   151  LYS151      0.1596
    118  C         17.6650  -15.0190    4.1530 C.2   151  LYS151      0.2287
    119  O         17.8630  -16.2120    4.2540 O.2   151  LYS151     -0.2864
    120  CB        18.7140  -13.7440    2.2750 C.3   151  LYS151      0.0298
    121  CG        19.9590  -14.6280    2.2440 C.3   151  LYS151      0.0038
    122  CD        21.1500  -13.7840    1.8020 C.3   151  LYS151      0.0206
    123  CE        22.4640  -14.5290    1.8710 C.3   151  LYS151      0.1093
    124  NZ        23.5830  -13.5680    1.6390 N.3   151  LYS151     -0.1314
    125  N         10.1290  -22.2870  -10.5940 N.3   189  ASP189     -0.1239
    126  CA        10.0020  -21.1270  -11.4640 C.3   189  ASP189      0.1674
    127  C          9.8180  -21.5440  -12.9350 C.2   189  ASP189      0.2266
    128  O         10.5150  -21.0550  -13.8400 O.2   189  ASP189     -0.2867
    129  CB        11.2060  -20.1890  -11.2940 C.3   189  ASP189      0.1410
    130  CG        11.2480  -19.5470   -9.9130 C.2   189  ASP189      0.3668
    131  OD1       10.2710  -19.7470   -9.1270 O.co2 189  ASP189     -0.2456
    132  OD2       12.2460  -18.8470   -9.6270 O.co2 189  ASP189     -0.2456
@<TRIPOS>BOND
     1    66    65    2
     2    65    64    1
     3    64    67    1
     4    64    63    1
     5    67    68    1
     6    63    56   am
     7    57    56    2
     8    56    55    1
     9    53    52    2
    10   128   127    2
    11    68    69    1
    12    69    70    1
    13    54    55    1
    14    55    58    1
    15    52    51    1
    16   127   126    1
    17    70    71    1
    18    51    50    1
    19    58    59    1
    20   126   129    1
    21   126   125    1
    22   129   130    1
    23    59    60    1
    24    61    60   ar
    25    60    62   ar
    26     2     1    1
    27     2     3    1
    28     4     3    2
    29     3     5   am
    30   130   132   ar
    31   130   131   ar
    32    47    48    1
    33    47    49    1
    34    47    44    1
    35     5     6    1
    36    45    44    1
    37    45    46    2
    38    44    43    1
    39     6     7    1
    40    28    27    1
    41     7     9   am
    42     7     8    2
    43    27    26    1
    44     9    10    1
    45    14    13    1
    46    34    33    1
    47    26    25    1
    48    10    13    1
    49    10    11    1
    50    13    15    1
    51    88    87    1
    52    33    35    1
    53    33    30    1
    54    25    24    1
    55    16    11   am
    56    16    17    1
    57    24    21    1
    58    11    12    2
    59    87    86    1
    60    29    30    1
    61    29    22   am
    62    30    31    1
    63    20    21    1
    64    20    18   am
    65    17    18    1
    66    21    22    1
    67    86    85    1
    68    22    23    2
    69    18    19    2
    70    41    40    1
    71    31    36   am
    72    31    32    2
    73    36    37    1
    74   104   102    1
    75    85    84    1
    76    40    37    1
    77    40    42    1
    78    37    38    1
    79   103   101    1
    80    84    81    1
    81    79    77   am
    82   102   101    1
    83   101    98    1
    84    75    74    2
    85    76    77    1
    86    76    73    1
    87    38    39    2
    88    77    78    2
    89    74    73    1
    90    74    80   am
    91    81    80    1
    92    81    82    1
    93    72    73    1
    94    83    82    2
    95   115   112    1
    96    98    99    1
    97    98    97    1
    98   124   123    1
    99   122   123    1
   100   122   121    1
   101    99   100    2
   102   121   120    1
   103   120   117    1
   104    97    91   am
   105    96    94   ar
   106   117   116    1
   107   117   118    1
   108   116   113   am
   109   112   113    1
   110   112   111    1
   111    95    94   ar
   112   113   114    2
   113   111   107   am
   114    94    93    1
   115    91    92    2
   116    91    90    1
   117   118   119    2
   118    89    90    1
   119   107   106    1
   120   107   108    2
   121   110   109    1
   122    93    90    1
   123   106   109    1
   124   106   105    1
