@<TRIPOS>MOLECULE
tmp/4djuA00.pdb
 165 158 0 0 0
SMALL
GASTEIGER

@<TRIPOS>ATOM
      1  N         26.4850    2.9660   16.6770 N.3    34  LEU34      -0.1245
      2  CA        26.7770    3.5360   17.9890 C.3    34  LEU34       0.1561
      3  C         26.0400    2.7740   19.0980 C.2    34  LEU34       0.2260
      4  O         24.8280    2.5770   19.0090 O.2    34  LEU34      -0.2867
      5  CB        26.3390    5.0240   18.0120 C.3    34  LEU34       0.0270
      6  CG        26.5130    5.7370   19.3570 C.3    34  LEU34       0.0019
      7  CD1       28.0250    5.9730   19.6620 C.3    34  LEU34       0.0001
      8  CD2       25.7450    7.0610   19.3650 C.3    34  LEU34       0.0001
      9  N         24.3710    2.9080   22.3930 N.3    36  ASP36      -0.1239
     10  CA        23.7750    3.9830   23.1740 C.3    36  ASP36       0.1674
     11  C         22.8310    3.5180   24.2710 C.2    36  ASP36       0.2266
     12  O         21.6640    3.2370   23.9990 O.2    36  ASP36      -0.2867
     13  CB        23.0630    4.9660   22.2320 C.3    36  ASP36       0.1410
     14  CG        22.5610    6.2300   22.9120 C.2    36  ASP36       0.3668
     15  OD1       22.9790    6.5000   24.0770 O.co2  36  ASP36      -0.2456
     16  OD2       21.8290    6.9970   22.2590 O.co2  36  ASP36      -0.2456
     17  N         21.6060    5.3840   26.4190 N.3    38  GLY38      -0.1210
     18  CA        20.8010    6.5550   26.7690 C.3    38  GLY38       0.1956
     19  C         19.5810    6.8080   25.8860 C.2    38  GLY38       0.2612
     20  O         18.9390    7.8570   26.0020 O.2    38  GLY38      -0.2717
     21  N         19.2980    5.8890   24.9400 N.am   39  SER39      -0.1952
     22  CA        18.1310    6.0010   24.0460 C.3    39  SER39       0.1924
     23  C         17.6170    4.5950   23.7200 C.2    39  SER39       0.2314
     24  O         18.2540    3.6080   24.1260 O.2    39  SER39      -0.2863
     25  CB        18.4550    6.7950   22.7820 C.3    39  SER39       0.2116
     26  OG        19.3630    6.0950   21.9530 O.3    39  SER39      -0.2180
     27  N         15.8550    3.5690   20.4200 N.3    41  ASN41      -0.1240
     28  CA        15.5720    3.2890   19.0140 C.3    41  ASN41       0.1653
     29  C         16.7940    2.7400   18.2880 C.2    41  ASN41       0.2266
     30  O         17.9280    3.1630   18.5350 O.2    41  ASN41      -0.2867
     31  CB        15.1470    4.5800   18.2940 C.3    41  ASN41       0.1155
     32  CG        13.7480    4.9610   18.6080 C.2    41  ASN41       0.2627
     33  OD1       13.4580    5.4870   19.6930 O.2    41  ASN41      -0.2716
     34  ND2       12.8490    4.6530   17.6810 N.am   41  ASN41      -0.0877
     35  N         12.5950   12.7860   15.8550 N.3    73  VAL73      -0.1231
     36  CA        13.3160   12.7020   17.1220 C.3    73  VAL73       0.1678
     37  C         14.1900   13.9290   17.3860 C.2    73  VAL73       0.2434
     38  O         15.3880   13.9180   17.0910 O.2    73  VAL73      -0.2733
     39  CB        14.0820   11.3490   17.3170 C.3    73  VAL73       0.0265
     40  CG1       14.7040   11.2500   18.7090 C.3    73  VAL73       0.0020
     41  CG2       13.1740   10.1500   17.0600 C.3    73  VAL73       0.0020
     42  N         13.6050   14.9930   17.9800 N.am   74  PRO74      -0.2718
     43  CA        14.4370   16.1480   18.3560 C.3    74  PRO74       0.1535
     44  C         15.1030   15.8820   19.7020 C.2    74  PRO74       0.2598
     45  O         14.5270   15.2240   20.5740 O.2    74  PRO74      -0.2715
     46  CB        13.4270   17.3040   18.4490 C.3    74  PRO74       0.0310
     47  CG        12.1270   16.6490   18.8210 C.3    74  PRO74       0.0237
     48  CD        12.1860   15.1910   18.3660 C.3    74  PRO74       0.0939
     49  N         16.3270   16.3780   19.8650 N.am   75  TYR75      -0.1974
     50  CA        17.0520   16.3010   21.1220 C.3    75  TYR75       0.1639
     51  C         17.7190   17.6640   21.3340 C.2    75  TYR75       0.2290
     52  O         17.6280   18.5310   20.4610 O.2    75  TYR75      -0.2864
     53  CB        18.0250   15.1020   21.2010 C.3    75  TYR75       0.0560
     54  CG        18.9170   14.9680   19.9880 C.ar   75  TYR75      -0.0198
     55  CD1       18.4910   14.2740   18.8550 C.ar   75  TYR75      -0.0009
     56  CD2       20.1850   15.5460   19.9620 C.ar   75  TYR75      -0.0009
     57  CE1       19.2980   14.1670   17.7340 C.ar   75  TYR75       0.0417
     58  CE2       20.9990   15.4420   18.8440 C.ar   75  TYR75       0.0417
     59  CZ        20.5400   14.7740   17.7250 C.ar   75  TYR75       0.1957
     60  OH        21.3340   14.6950   16.6130 O.3    75  TYR75      -0.2866
     61  N         16.8970   13.9790   14.4200 N.3    80  TRP80      -0.1241
     62  CA        16.8650   13.0610   13.2980 C.3    80  TRP80       0.1605
     63  C         15.4250   12.7240   13.0080 C.2    80  TRP80       0.2264
     64  O         14.5720   12.7780   13.8930 O.2    80  TRP80      -0.2867
     65  CB        17.7670   11.8300   13.4760 C.3    80  TRP80       0.0550
     66  CG        17.3860   10.8780   14.5730 C.ar   80  TRP80       0.0003
     67  CD1       17.9670   10.7830   15.8050 C.ar   80  TRP80       0.0946
     68  CD2       16.4540    9.7940   14.4850 C.ar   80  TRP80       0.0152
     69  NE1       17.3850    9.7680   16.5260 N.ar   80  TRP80      -0.2442
     70  CE2       16.4840    9.1150   15.7260 C.ar   80  TRP80       0.0810
     71  CE3       15.5670    9.3520   13.4900 C.ar   80  TRP80       0.0012
     72  CZ2       15.6750    8.0090   15.9910 C.ar   80  TRP80       0.0191
     73  CZ3       14.7590    8.2580   13.7620 C.ar   80  TRP80       0.0001
     74  CH2       14.8070    7.6120   15.0050 C.ar   80  TRP80       0.0015
     75  N         22.9470   17.7610   13.0370 N.3   111  LYS111     -0.1231
     76  CA        23.9550   17.5450   14.0820 C.3   111  LYS111      0.1693
     77  C         23.7530   16.1670   14.7620 C.2   111  LYS111      0.2592
     78  O         23.7450   16.0650   15.9910 O.2   111  LYS111     -0.2718
     79  CB        23.9390   18.6870   15.1160 C.3   111  LYS111      0.0285
     80  CG        24.2240   20.0700   14.5400 C.3   111  LYS111      0.0035
     81  CD        23.9160   21.1120   15.6010 C.3   111  LYS111      0.0206
     82  CE        24.0500   22.5320   15.1320 C.3   111  LYS111      0.1093
     83  NZ        23.8310   23.4810   16.2570 N.3   111  LYS111     -0.1314
     84  N         23.5140   15.1270   13.9410 N.am  112  PHE112     -0.1976
     85  CA        23.3490   13.7620   14.4410 C.3   112  PHE112      0.1639
     86  C         24.6090   12.9900   14.0910 C.2   112  PHE112      0.2290
     87  O         25.3560   12.6080   14.9960 O.2   112  PHE112     -0.2864
     88  CB        22.0800   13.0880   13.8690 C.3   112  PHE112      0.0560
     89  CG        21.8710   11.6930   14.4010 C.ar  112  PHE112     -0.0200
     90  CD1       21.4770   11.4870   15.7160 C.ar  112  PHE112     -0.0042
     91  CD2       22.0580   10.5850   13.5800 C.ar  112  PHE112     -0.0042
     92  CE1       21.3170   10.1890   16.2180 C.ar  112  PHE112     -0.0003
     93  CE2       21.9040    9.2860   14.0870 C.ar  112  PHE112     -0.0003
     94  CZ        21.5190    9.1010   15.3950 C.ar  112  PHE112     -0.0000
     95  N         28.3980   12.3200   13.0140 N.3   114  ILE114     -0.1245
     96  CA        29.6370   13.0200   13.3720 C.3   114  ILE114      0.1561
     97  C         30.6960   12.6760   12.3380 C.2   114  ILE114      0.2260
     98  O         30.9790   11.4990   12.0970 O.2   114  ILE114     -0.2867
     99  CB        30.0930   12.6170   14.8190 C.3   114  ILE114      0.0252
    100  CG1       29.0120   12.9510   15.8900 C.3   114  ILE114      0.0019
    101  CG2       31.4590   13.2430   15.1770 C.3   114  ILE114      0.0019
    102  CD1       29.2890   12.3550   17.3430 C.3   114  ILE114      0.0001
    103  N         30.6060    5.6440   12.4040 N.3   119  TRP119     -0.1241
    104  CA        29.3280    4.9660   12.5880 C.3   119  TRP119      0.1605
    105  C         28.2470    5.5830   11.7130 C.2   119  TRP119      0.2264
    106  O         28.2960    6.7770   11.4000 O.2   119  TRP119     -0.2867
    107  CB        28.8980    4.7950   14.0540 C.3   119  TRP119      0.0550
    108  CG        28.9070    6.0340   14.8920 C.ar  119  TRP119      0.0003
    109  CD1       29.8820    6.4200   15.7680 C.ar  119  TRP119      0.0946
    110  CD2       27.8750    7.0250   14.9750 C.ar  119  TRP119      0.0152
    111  NE1       29.5020    7.5630   16.4220 N.ar  119  TRP119     -0.2442
    112  CE2       28.2650    7.9480   15.9750 C.ar  119  TRP119      0.0810
    113  CE3       26.6000    7.1590   14.3900 C.ar  119  TRP119      0.0012
    114  CZ2       27.4820    9.0580   16.3210 C.ar  119  TRP119      0.0191
    115  CZ3       25.8030    8.2290   14.7680 C.ar  119  TRP119      0.0001
    116  CH2       26.2560    9.1820   15.7020 C.ar  119  TRP119      0.0015
    117  N         22.5690    4.1920   15.1610 N.3   122  ILE122     -0.1245
    118  CA        22.5820    4.1170   16.6160 C.3   122  ILE122      0.1561
    119  C         21.7710    2.9360   17.1190 C.2   122  ILE122      0.2260
    120  O         20.7270    2.6190   16.5650 O.2   122  ILE122     -0.2867
    121  CB        22.0310    5.4590   17.1780 C.3   122  ILE122      0.0252
    122  CG1       22.1760    5.5610   18.6710 C.3   122  ILE122      0.0019
    123  CG2       20.5520    5.7240   16.7310 C.3   122  ILE122      0.0019
    124  CD1       21.7880    6.9850   19.1840 C.3   122  ILE122      0.0001
    125  N         10.8720    6.2450   20.6380 N.3   132  ARG132     -0.1245
    126  CA        10.0980    7.1780   19.8210 C.3   132  ARG132      0.1563
    127  C          9.4780    6.4140   18.6540 C.2   132  ARG132      0.2260
    128  O         10.1350    5.5370   18.0810 O.2   132  ARG132     -0.2867
    129  CB        10.9620    8.3300   19.2970 C.3   132  ARG132      0.0307
    130  CG        11.4930    9.2430   20.3990 C.3   132  ARG132      0.0489
    131  CD        10.3320    9.8580   21.1810 C.3   132  ARG132      0.2205
    132  NE        10.7530   10.8950   22.1190 N.pl3 132  ARG132     -0.0865
    133  CZ        10.9940   12.1580   21.7820 C.cat 132  ARG132      0.5346
    134  NH1       10.8910   12.5480   20.5170 N.pl3 132  ARG132      0.1354
    135  NH2       11.3610   13.0380   22.7040 N.pl3 132  ARG132      0.1354
    136  N         25.0060    6.2500   30.7430 N.3   232  ASP232     -0.1239
    137  CA        24.8150    6.5580   29.3250 C.3   232  ASP232      0.1674
    138  C         26.0780    6.5160   28.4740 C.2   232  ASP232      0.2266
    139  O         26.8210    7.5010   28.4100 O.2   232  ASP232     -0.2867
    140  CB        24.1390    7.9550   29.2150 C.3   232  ASP232      0.1410
    141  CG        23.7490    8.3560   27.7820 C.2   232  ASP232      0.3668
    142  OD1       23.7850    7.4860   26.8900 O.co2 232  ASP232     -0.2456
    143  OD2       23.4130    9.5400   27.5590 O.co2 232  ASP232     -0.2456
    144  N         26.1880    6.9130   25.4190 N.3   234  GLY234     -0.1210
    145  CA        25.9850    7.8930   24.3490 C.3   234  GLY234      0.1956
    146  C         26.2790    9.3420   24.7300 C.2   234  GLY234      0.2612
    147  O         26.0700   10.2500   23.9230 O.2   234  GLY234     -0.2717
    148  N         26.7330    9.5660   25.9860 N.am  235  THR235     -0.1952
    149  CA        27.1930   10.8620   26.4840 C.3   235  THR235      0.1897
    150  C         28.6970   10.7140   26.6970 C.2   235  THR235      0.2313
    151  O         29.1500    9.6940   27.2180 O.2   235  THR235     -0.2863
    152  CB        26.4980   11.2300   27.8170 C.3   235  THR235      0.1794
    153  OG1       25.1260   11.5580   27.5540 O.3   235  THR235     -0.2208
    154  CG2       27.1930   12.4120   28.5530 C.3   235  THR235      0.0378
    155  N         28.3140   14.1040   33.5710 N.3   239  ARG239     -0.1245
    156  CA        27.5550   15.3690   33.6890 C.3   239  ARG239      0.1563
    157  C         26.8710   15.3980   35.0430 C.2   239  ARG239      0.2260
    158  O         26.3620   14.3660   35.5010 O.2   239  ARG239     -0.2867
    159  CB        26.5540   15.5680   32.5220 C.3   239  ARG239      0.0307
    160  CG        27.2080   15.4680   31.1360 C.3   239  ARG239      0.0489
    161  CD        26.2220   15.6740   30.0220 C.3   239  ARG239      0.2205
    162  NE        25.7180   17.0580   30.0100 N.pl3 239  ARG239     -0.0865
    163  CZ        24.4600   17.3890   29.7520 C.cat 239  ARG239      0.5346
    164  NH1       24.0800   18.6630   29.7890 N.pl3 239  ARG239      0.1354
    165  NH2       23.5660   16.4500   29.4690 N.pl3 239  ARG239      0.1354
@<TRIPOS>BOND
     1   106   105    2
     2   105   104    1
     3    98    97    2
     4    97    96    1
     5   103   104    1
     6   104   107    1
     7    63    62    1
     8    63    64    2
     9    95    96    1
    10    75    76    1
    11    62    65    1
    12    62    61    1
    13    96    99    1
    14    65    66    1
    15    71    73   ar
    16    71    68   ar
    17    91    93   ar
    18    91    89   ar
    19    73    74   ar
    20    88    89    1
    21    88    85    1
    22    84    85    1
    23    84    77   am
    24   107   108    1
    25    76    77    1
    26    76    79    1
    27    93    94   ar
    28    86    85    1
    29    86    87    2
    30   113   115   ar
    31   113   110   ar
    32    89    90   ar
    33    68    66   ar
    34    68    70   ar
    35    80    79    1
    36    80    81    1
    37    66    67   ar
    38    77    78    2
    39   115   116   ar
    40    99   101    1
    41    99   100    1
    42   108   110   ar
    43   108   109   ar
    44   110   112   ar
    45    74    72   ar
    46    82    81    1
    47    82    83    1
    48   117   118    1
    49    94    92   ar
    50   116   114   ar
    51    90    92   ar
    52    70    72   ar
    53    70    69   ar
    54   109   111   ar
    55    67    69   ar
    56    35    36    1
    57   100   102    1
    58   112   114   ar
    59   112   111   ar
    60   120   119    2
    61    60    59    1
    62   118   119    1
    63   118   121    1
    64     1     2    1
    65   123   121    1
    66    41    39    1
    67    38    37    2
    68    36    39    1
    69    36    37    1
    70   121   122    1
    71    39    40    1
    72    37    42   am
    73    34    32   am
    74    59    57   ar
    75    59    58   ar
    76    57    55   ar
    77    42    43    1
    78    42    48    1
    79     2     5    1
    80     2     3    1
    81     5     6    1
    82   128   127    2
    83    29    30    2
    84    29    28    1
    85    31    32    1
    86    31    28    1
    87    43    46    1
    88    43    44    1
    89    48    47    1
    90    46    47    1
    91    32    33    2
    92   127   126    1
    93   122   124    1
    94    58    56   ar
    95    55    54   ar
    96     4     3    2
    97    28    27    1
    98   129   126    1
    99   129   130    1
   100     6     8    1
   101     6     7    1
   102    44    49   am
   103    44    45    2
   104   126   125    1
   105    49    50    1
   106    56    54   ar
   107    54    53    1
   108   130   131    1
   109    52    51    2
   110   134   133    1
   111    50    53    1
   112    50    51    1
   113   131   132    1
   114   133   132    2
   115   133   135    1
   116    26    25    1
   117    13    14    1
   118    13    10    1
   119    16    14   ar
   120     9    10    1
   121    25    22    1
   122    14    15   ar
   123    10    11    1
   124    23    22    1
   125    23    24    2
   126   147   146    2
   127    12    11    2
   128    22    21    1
   129   145   146    1
   130   145   144    1
   131   146   148   am
   132    21    19   am
   133    19    20    2
   134    19    18    1
   135   148   149    1
   136    17    18    1
   137   149   150    1
   138   149   152    1
   139   150   151    2
   140   142   141   ar
   141   153   152    1
   142   143   141   ar
   143   141   140    1
   144   152   154    1
   145   139   138    2
   146   138   137    1
   147   140   137    1
   148   137   136    1
   149   165   163    1
   150   163   164    1
   151   163   162    2
   152   162   161    1
   153   161   160    1
   154   160   159    1
   155   159   156    1
   156   155   156    1
   157   156   157    1
   158   157   158    2
