@<TRIPOS>MOLECULE
tmp/4djvB00.pdb
 192 185 0 0 0
SMALL
GASTEIGER

@<TRIPOS>ATOM
      1  N          7.3780   37.2500   57.7660 N.3    14  SER14      -0.1202
      2  CA         8.3730   36.4740   58.5150 C.3    14  SER14       0.2020
      3  C          8.9180   35.2330   57.8060 C.2    14  SER14       0.2619
      4  O         10.0990   34.9310   57.9730 O.2    14  SER14      -0.2717
      5  CB         7.8170   36.0790   59.8810 C.3    14  SER14       0.2103
      6  OG         6.6880   35.2310   59.7330 O.3    14  SER14      -0.2182
      7  N          8.0670   34.5210   57.0550 N.am   15  GLY15      -0.1942
      8  CA         8.5070   33.3030   56.3770 C.3    15  GLY15       0.2014
      9  C          9.4430   33.5130   55.2010 C.2    15  GLY15       0.2639
     10  O         10.2240   32.6080   54.8690 O.2    15  GLY15      -0.2714
     11  N          9.3800   34.6980   54.5680 N.am   16  GLN16      -0.1963
     12  CA        10.1800   34.9710   53.3680 C.3    16  GLN16       0.1733
     13  C         11.1100   36.1720   53.4300 C.2    16  GLN16       0.2617
     14  O         11.9310   36.3370   52.5200 O.2    16  GLN16      -0.2715
     15  CB         9.2770   35.0650   52.1340 C.3    16  GLN16       0.0408
     16  CG         8.5360   33.7530   51.8380 C.3    16  GLN16       0.0908
     17  CD         7.9040   33.7550   50.4740 C.2    16  GLN16       0.2608
     18  OE1        7.2590   34.7300   50.0420 O.2    16  GLN16      -0.2717
     19  NE2        8.0680   32.6410   49.7760 N.am   16  GLN16      -0.0878
     20  N         11.0290   36.9390   54.5220 N.am   17  GLY17      -0.1940
     21  CA        11.8530   38.1150   54.7600 C.3    17  GLY17       0.2014
     22  C         11.1700   39.4400   54.4910 C.2    17  GLY17       0.2638
     23  O         10.2690   39.5260   53.6490 O.2    17  GLY17      -0.2714
     24  N         11.6470   40.4910   55.1680 N.am   18  TYR18      -0.1973
     25  CA        11.1650   41.8570   55.0010 C.3    18  TYR18       0.1639
     26  C         12.2120   42.5590   54.2070 C.2    18  TYR18       0.2290
     27  O         13.4100   42.3760   54.4770 O.2    18  TYR18      -0.2864
     28  CB        11.0030   42.5680   56.3460 C.3    18  TYR18       0.0560
     29  CG         9.7660   42.0810   57.0610 C.ar   18  TYR18      -0.0198
     30  CD1        9.8230   41.0030   57.9420 C.ar   18  TYR18      -0.0009
     31  CD2        8.5240   42.6550   56.8070 C.ar   18  TYR18      -0.0009
     32  CE1        8.6710   40.5250   58.5740 C.ar   18  TYR18       0.0417
     33  CE2        7.3670   42.1770   57.4190 C.ar   18  TYR18       0.0417
     34  CZ         7.4490   41.1360   58.3230 C.ar   18  TYR18       0.1957
     35  OH         6.2930   40.6940   58.9240 O.3    18  TYR18      -0.2866
     36  N         16.5480   42.2980   51.1130 N.3    34  LEU34      -0.1245
     37  CA        16.2390   41.7780   52.4520 C.3    34  LEU34       0.1561
     38  C         16.9270   42.6100   53.5530 C.2    34  LEU34       0.2260
     39  O         18.1300   42.8140   53.5010 O.2    34  LEU34      -0.2867
     40  CB        16.7600   40.3100   52.5670 C.3    34  LEU34       0.0270
     41  CG        16.5670   39.6420   53.9260 C.3    34  LEU34       0.0019
     42  CD1       15.0700   39.2500   54.1380 C.3    34  LEU34       0.0001
     43  CD2       17.4710   38.4360   54.0630 C.3    34  LEU34       0.0001
     44  N         18.5660   42.6130   56.8050 N.3    36  ASP36      -0.1239
     45  CA        19.1720   41.5190   57.5740 C.3    36  ASP36       0.1674
     46  C         20.1230   41.9800   58.6720 C.2    36  ASP36       0.2266
     47  O         21.2870   42.2600   58.4070 O.2    36  ASP36      -0.2867
     48  CB        19.9060   40.5620   56.5900 C.3    36  ASP36       0.1410
     49  CG        20.4530   39.2890   57.2240 C.2    36  ASP36       0.3668
     50  OD1       20.1170   39.0100   58.4190 O.co2  36  ASP36      -0.2456
     51  OD2       21.1360   38.5220   56.5100 O.co2  36  ASP36      -0.2456
     52  N         21.3240   40.0790   60.8440 N.3    38  GLY38      -0.1210
     53  CA        22.1230   38.9030   61.2110 C.3    38  GLY38       0.1956
     54  C         23.3370   38.5970   60.3490 C.2    38  GLY38       0.2612
     55  O         23.9450   37.5280   60.4910 O.2    38  GLY38      -0.2717
     56  N         23.6880   39.5140   59.4340 N.am   39  SER39      -0.1952
     57  CA        24.8610   39.3720   58.5700 C.3    39  SER39       0.1924
     58  C         25.3840   40.7730   58.2530 C.2    39  SER39       0.2314
     59  O         24.7140   41.7660   58.6080 O.2    39  SER39      -0.2863
     60  CB        24.5420   38.5750   57.3050 C.3    39  SER39       0.2116
     61  OG        23.6830   39.2760   56.4340 O.3    39  SER39      -0.2180
     62  N         30.6970   32.2490   50.4960 N.3    73  VAL73      -0.1245
     63  CA        30.0070   32.1570   51.7830 C.3    73  VAL73       0.1561
     64  C         29.1790   30.8660   51.8890 C.2    73  VAL73       0.2260
     65  O         27.9700   30.9000   51.6950 O.2    73  VAL73      -0.2867
     66  CB        29.1900   33.4420   52.1240 C.3    73  VAL73       0.0252
     67  CG1       28.5240   33.3410   53.5220 C.3    73  VAL73       0.0019
     68  CG2       30.0900   34.6750   52.0500 C.3    73  VAL73       0.0019
     69  N         27.2900   27.7220   53.8690 N.3    75  TYR75      -0.1241
     70  CA        26.6010   27.4660   55.1300 C.3    75  TYR75       0.1605
     71  C         26.0100   26.0500   54.9980 C.2    75  TYR75       0.2264
     72  O         26.2260   25.4120   53.9590 O.2    75  TYR75      -0.2867
     73  CB        25.5710   28.5680   55.4670 C.3    75  TYR75       0.0534
     74  CG        24.6570   28.9320   54.3230 C.ar   75  TYR75      -0.0201
     75  CD1       24.9680   29.9850   53.4620 C.ar   75  TYR75      -0.0009
     76  CD2       23.4870   28.2130   54.0830 C.ar   75  TYR75      -0.0009
     77  CE1       24.1240   30.3250   52.4080 C.ar   75  TYR75       0.0417
     78  CE2       22.6580   28.5190   53.0060 C.ar   75  TYR75       0.0417
     79  CZ        22.9780   29.5780   52.1740 C.ar   75  TYR75       0.1957
     80  OH        22.1370   29.8870   51.1340 O.3    75  TYR75      -0.2866
     81  N         26.2880   31.2280   49.0290 N.3    80  TRP80      -0.1241
     82  CA        26.2740   32.3090   48.0810 C.3    80  TRP80       0.1605
     83  C         27.7170   32.5760   47.7660 C.2    80  TRP80       0.2264
     84  O         28.6000   32.4600   48.6370 O.2    80  TRP80      -0.2867
     85  CB        25.4660   33.5430   48.4610 C.3    80  TRP80       0.0550
     86  CG        26.0660   34.4520   49.4820 C.ar   80  TRP80       0.0003
     87  CD1       25.7180   34.5330   50.7950 C.ar   80  TRP80       0.0946
     88  CD2       27.0010   35.5180   49.2450 C.ar   80  TRP80       0.0152
     89  NE1       26.4260   35.5390   51.4110 N.ar   80  TRP80      -0.2442
     90  CE2       27.2180   36.1630   50.4840 C.ar   80  TRP80       0.0810
     91  CE3       27.7290   35.9440   48.1220 C.ar   80  TRP80       0.0012
     92  CZ2       28.0920   37.2420   50.6220 C.ar   80  TRP80       0.0191
     93  CZ3       28.5800   37.0320   48.2590 C.ar   80  TRP80       0.0001
     94  CH2       28.8020   37.6230   49.5120 C.ar   80  TRP80       0.0015
     95  N         20.3140   27.1960   47.5920 N.3   111  LYS111     -0.1231
     96  CA        19.3140   27.4000   48.6530 C.3   111  LYS111      0.1693
     97  C         19.4590   28.7620   49.3490 C.2   111  LYS111      0.2592
     98  O         19.4370   28.8470   50.5830 O.2   111  LYS111     -0.2718
     99  CB        19.3580   26.2340   49.6730 C.3   111  LYS111      0.0285
    100  CG        19.0510   24.8590   49.0770 C.3   111  LYS111      0.0035
    101  CD        17.7060   24.8480   48.3500 C.3   111  LYS111      0.0206
    102  CE        17.2390   23.4760   47.9470 C.3   111  LYS111      0.1093
    103  NZ        18.1560   22.8390   46.9740 N.3   111  LYS111     -0.1314
    104  N         19.6580   29.8190   48.5520 N.am  112  PHE112     -0.1976
    105  CA        19.8370   31.1690   49.0640 C.3   112  PHE112      0.1639
    106  C         18.6110   32.0230   48.7250 C.2   112  PHE112      0.2290
    107  O         17.9510   32.5550   49.6170 O.2   112  PHE112     -0.2864
    108  CB        21.1330   31.7870   48.4900 C.3   112  PHE112      0.0560
    109  CG        21.4240   33.1810   48.9870 C.ar  112  PHE112     -0.0200
    110  CD1       22.0200   33.3820   50.2300 C.ar  112  PHE112     -0.0042
    111  CD2       21.0980   34.2960   48.2170 C.ar  112  PHE112     -0.0042
    112  CE1       22.2900   34.6690   50.6910 C.ar  112  PHE112     -0.0003
    113  CE2       21.3480   35.5880   48.6880 C.ar  112  PHE112     -0.0003
    114  CZ        21.9710   35.7690   49.9120 C.ar  112  PHE112     -0.0000
    115  N         14.7760   32.8550   47.5880 N.3   114  ILE114     -0.1245
    116  CA        13.4840   32.2370   47.9030 C.3   114  ILE114      0.1561
    117  C         12.4910   32.5210   46.7910 C.2   114  ILE114      0.2260
    118  O         12.3020   33.6690   46.4010 O.2   114  ILE114     -0.2867
    119  CB        12.9710   32.6910   49.2870 C.3   114  ILE114      0.0252
    120  CG1       13.8520   32.0920   50.4210 C.3   114  ILE114      0.0019
    121  CG2       11.4690   32.3600   49.4800 C.3   114  ILE114      0.0019
    122  CD1       13.2120   32.0290   51.7260 C.3   114  ILE114      0.0001
    123  N         12.4790   39.6200   46.6380 N.3   119  TRP119     -0.1241
    124  CA        13.7300   40.3580   46.8520 C.3   119  TRP119      0.1605
    125  C         14.8640   39.7090   46.0720 C.2   119  TRP119      0.2264
    126  O         14.7840   38.5250   45.7630 O.2   119  TRP119     -0.2867
    127  CB        14.0820   40.6080   48.3230 C.3   119  TRP119      0.0550
    128  CG        14.0960   39.4020   49.1990 C.ar  119  TRP119      0.0003
    129  CD1       13.1140   39.0220   50.0780 C.ar  119  TRP119      0.0946
    130  CD2       15.1600   38.4480   49.3480 C.ar  119  TRP119      0.0152
    131  NE1       13.5090   37.9010   50.7690 N.ar  119  TRP119     -0.2442
    132  CE2       14.7620   37.5330   50.3510 C.ar  119  TRP119      0.0810
    133  CE3       16.4280   38.2910   48.7540 C.ar  119  TRP119      0.0012
    134  CZ2       15.5670   36.4530   50.7420 C.ar  119  TRP119      0.0191
    135  CZ3       17.2250   37.2390   49.1510 C.ar  119  TRP119      0.0001
    136  CH2       16.7920   36.3180   50.1180 C.ar  119  TRP119      0.0015
    137  N         20.4930   40.9300   49.7090 N.3   122  ILE122     -0.1245
    138  CA        20.3980   41.1160   51.1550 C.3   122  ILE122      0.1561
    139  C         21.2630   42.2920   51.6060 C.2   122  ILE122      0.2260
    140  O         22.3290   42.5310   51.0340 O.2   122  ILE122     -0.2867
    141  CB        20.7570   39.8060   51.9400 C.3   122  ILE122      0.0252
    142  CG1       22.2570   39.4750   51.8960 C.3   122  ILE122      0.0019
    143  CG2       19.9090   38.5840   51.4390 C.3   122  ILE122      0.0019
    144  CD1       22.6150   38.2380   52.8240 C.3   122  ILE122      0.0001
    145  N         18.0120   39.0870   65.1170 N.3   232  ASP232     -0.1225
    146  CA        18.1730   38.8300   63.6890 C.3   232  ASP232      0.1805
    147  C         16.8880   38.9160   62.8740 C.2   232  ASP232      0.2598
    148  O         16.0970   37.9670   62.8730 O.2   232  ASP232     -0.2718
    149  CB        18.8510   37.4590   63.5040 C.3   232  ASP232      0.1424
    150  CG        19.2160   37.1260   62.0510 C.2   232  ASP232      0.3668
    151  OD1       19.1310   38.0260   61.2050 O.co2 232  ASP232     -0.2456
    152  OD2       19.5920   35.9660   61.7810 O.co2 232  ASP232     -0.2456
    153  N         16.7040   40.0370   62.1260 N.am  233  SER233     -0.1938
    154  CA        15.5510   40.2450   61.2300 C.3   233  SER233      0.2055
    155  C         15.5930   39.2500   60.0620 C.2   233  SER233      0.2644
    156  O         14.5830   39.0670   59.3920 O.2   233  SER233     -0.2714
    157  CB        15.5220   41.6850   60.7160 C.3   233  SER233      0.2130
    158  OG        16.6660   41.9860   59.9150 O.3   233  SER233     -0.2179
    159  N         16.7620   38.6340   59.8350 N.am  234  GLY234     -0.1939
    160  CA        16.9780   37.6550   58.7640 C.3   234  GLY234      0.2014
    161  C         16.7790   36.1990   59.1480 C.2   234  GLY234      0.2640
    162  O         17.1510   35.2950   58.3930 O.2   234  GLY234     -0.2714
    163  N         16.2190   35.9560   60.3500 N.am  235  THR235     -0.1936
    164  CA        15.8270   34.6180   60.7790 C.3   235  THR235      0.2028
    165  C         14.3130   34.6910   60.9980 C.2   235  THR235      0.2642
    166  O         13.8170   35.6720   61.5700 O.2   235  THR235     -0.2714
    167  CB        16.5500   34.1900   62.0730 C.3   235  THR235      0.1808
    168  OG1       17.9160   33.9080   61.7630 O.3   235  THR235     -0.2208
    169  CG2       15.9080   32.9300   62.7210 C.3   235  THR235      0.0379
    170  N         13.5800   33.6540   60.5560 N.am  236  THR236     -0.1950
    171  CA        12.1340   33.6440   60.7560 C.3   236  THR236      0.1897
    172  C         11.7830   33.4250   62.2370 C.2   236  THR236      0.2313
    173  O         11.0670   34.2260   62.8280 O.2   236  THR236     -0.2863
    174  CB        11.4750   32.5460   59.8820 C.3   236  THR236      0.1794
    175  OG1       11.6920   32.8500   58.5000 O.3   236  THR236     -0.2208
    176  CG2        9.9550   32.4010   60.1640 C.3   236  THR236      0.0378
    177  N         14.7800   31.0440   67.7470 N.3   239  ARG239     -0.1245
    178  CA        15.6220   29.8220   67.8180 C.3   239  ARG239      0.1563
    179  C         16.2740   29.7670   69.1780 C.2   239  ARG239      0.2260
    180  O         16.7530   30.7940   69.6620 O.2   239  ARG239     -0.2867
    181  CB        16.6630   29.7900   66.6890 C.3   239  ARG239      0.0307
    182  CG        15.9600   29.9020   65.3160 C.3   239  ARG239      0.0489
    183  CD        16.9300   29.7550   64.1530 C.3   239  ARG239      0.2205
    184  NE        17.5090   28.4070   64.1500 N.pl3 239  ARG239     -0.0865
    185  CZ        18.7910   28.1230   63.9480 C.cat 239  ARG239      0.5346
    186  NH1       19.2090   26.8750   64.0040 N.pl3 239  ARG239      0.1354
    187  NH2       19.6710   29.0960   63.6960 N.pl3 239  ARG239      0.1354
    188  N         12.3990   37.2120   63.2710 N.3   339  ALA339     -0.1245
    189  CA        11.2990   38.0350   62.8010 C.3   339  ALA339      0.1562
    190  C         10.0120   37.8460   63.5840 C.2   339  ALA339      0.2260
    191  O          9.3520   38.8450   63.8940 O.2   339  ALA339     -0.2867
    192  CB        11.0590   37.7980   61.3270 C.3   339  ALA339      0.0290
@<TRIPOS>BOND
     1   126   125    2
     2   125   124    1
     3   118   117    2
     4   123   124    1
     5   117   116    1
     6   124   127    1
     7   103   102    1
     8   115   116    1
     9    95    96    1
    10    83    82    1
    11    83    84    2
    12   116   119    1
    13   102   101    1
    14    82    85    1
    15    82    81    1
    16    91    93   ar
    17    91    88   ar
    18   111   113   ar
    19   111   109   ar
    20    93    94   ar
    21   127   128    1
    22   101   100    1
    23    85    86    1
    24   108   109    1
    25   108   105    1
    26   104   105    1
    27   104    97   am
    28    96    97    1
    29    96    99    1
    30   113   114   ar
    31   106   105    1
    32   106   107    2
    33   133   135   ar
    34   133   130   ar
    35   109   110   ar
    36   100    99    1
    37   135   136   ar
    38   128   130   ar
    39   128   129   ar
    40    88    86   ar
    41    88    90   ar
    42   119   121    1
    43   119   120    1
    44   130   132   ar
    45    97    98    2
    46    86    87   ar
    47    94    92   ar
    48   137   138    1
    49    19    17   am
    50   114   112   ar
    51    18    17    2
    52   129   131   ar
    53   136   134   ar
    54   110   112   ar
    55   132   134   ar
    56   132   131   ar
    57   120   122    1
    58    17    16    1
    59    90    92   ar
    60    90    89   ar
    61    62    63    1
    62    87    89   ar
    63   140   139    2
    64    36    37    1
    65    80    79    1
    66   138   139    1
    67   138   141    1
    68   143   141    1
    69    65    64    2
    70    63    64    1
    71    63    66    1
    72    16    15    1
    73   142   141    1
    74   142   144    1
    75    68    66    1
    76    66    67    1
    77    15    12    1
    78    79    77   ar
    79    79    78   ar
    80    77    75   ar
    81    37    40    1
    82    37    38    1
    83    14    13    2
    84    40    41    1
    85    78    76   ar
    86    12    13    1
    87    12    11    1
    88    13    20   am
    89    75    74   ar
    90    39    38    2
    91    23    22    2
    92    69    70    1
    93    41    43    1
    94    41    42    1
    95    72    71    2
    96    76    74   ar
    97    26    27    2
    98    26    25    1
    99    74    73    1
   100    22    21    1
   101    22    24   am
   102    20    21    1
   103    11     9   am
   104    10     9    2
   105    71    70    1
   106    25    24    1
   107    25    28    1
   108    70    73    1
   109     9     8    1
   110    28    29    1
   111     8     7    1
   112    61    60    1
   113    51    49   ar
   114    48    49    1
   115    48    45    1
   116    44    45    1
   117    31    29   ar
   118    31    33   ar
   119     7     3   am
   120    29    30   ar
   121    49    50   ar
   122    60    57    1
   123    33    34   ar
   124    45    46    1
   125     1     2    1
   126     3     4    2
   127     3     2    1
   128    30    32   ar
   129    58    57    1
   130    58    59    2
   131    34    32   ar
   132    34    35    1
   133   162   161    2
   134    47    46    2
   135   175   174    1
   136     2     5    1
   137    57    56    1
   138   160   161    1
   139   160   159    1
   140   161   163   am
   141   156   155    2
   142    56    54   am
   143     6     5    1
   144   159   155   am
   145   174   176    1
   146   174   171    1
   147   158   157    1
   148   155   154    1
   149    54    55    2
   150    54    53    1
   151   163   164    1
   152   170   171    1
   153   170   165   am
   154   157   154    1
   155   171   172    1
   156   164   165    1
   157   164   167    1
   158    52    53    1
   159   165   166    2
   160   151   150   ar
   161   154   153    1
   162   192   189    1
   163   168   167    1
   164   152   150   ar
   165   150   149    1
   166   167   169    1
   167   153   147   am
   168   172   173    2
   169   189   188    1
   170   189   190    1
   171   148   147    2
   172   147   146    1
   173   149   146    1
   174   190   191    2
   175   146   145    1
   176   187   185    1
   177   185   186    1
   178   185   184    2
   179   184   183    1
   180   183   182    1
   181   182   181    1
   182   181   178    1
   183   177   178    1
   184   178   179    1
   185   179   180    2
