@<TRIPOS>MOLECULE
tmp/4djwB00.pdb
 166 159 0 0 0
SMALL
GASTEIGER

@<TRIPOS>ATOM
      1  N          7.3620   37.2890   57.8620 N.3    14  SER14      -0.1202
      2  CA         8.3640   36.5330   58.6570 C.3    14  SER14       0.2020
      3  C          9.0420   35.3750   57.9460 C.2    14  SER14       0.2619
      4  O         10.2810   35.2180   58.0660 O.2    14  SER14      -0.2717
      5  CB         7.7630   36.0110   59.9600 C.3    14  SER14       0.2103
      6  OG         6.5920   35.2520   59.6890 O.3    14  SER14      -0.2182
      7  N          8.2150   34.5730   57.2590 N.am   15  GLY15      -0.1942
      8  CA         8.6490   33.3760   56.5580 C.3    15  GLY15       0.2014
      9  C          9.4920   33.5980   55.3240 C.2    15  GLY15       0.2639
     10  O         10.2570   32.7070   54.9630 O.2    15  GLY15      -0.2714
     11  N          9.3630   34.7730   54.6660 N.am   16  GLN16      -0.1963
     12  CA        10.1170   35.0710   53.4430 C.3    16  GLN16       0.1733
     13  C         11.0480   36.2870   53.5790 C.2    16  GLN16       0.2616
     14  O         11.8360   36.5550   52.6760 O.2    16  GLN16      -0.2715
     15  CB         9.1540   35.2960   52.2650 C.3    16  GLN16       0.0408
     16  CG         8.4430   34.0220   51.8080 C.3    16  GLN16       0.0908
     17  CD         7.9010   34.1680   50.4030 C.2    16  GLN16       0.2608
     18  OE1        7.0870   35.0580   50.1000 O.2    16  GLN16      -0.2717
     19  NE2        8.3440   33.2870   49.5150 N.am   16  GLN16      -0.0878
     20  N         10.9800   36.9390   54.7310 N.am   17  GLY17      -0.1955
     21  CA        11.7910   38.0950   55.0970 C.3    17  GLY17       0.1869
     22  C         11.1500   39.4220   54.7480 C.2    17  GLY17       0.2309
     23  O         10.2110   39.4780   53.9480 O.2    17  GLY17      -0.2863
     24  N         16.5100   42.3650   51.1920 N.3    34  LEU34      -0.1245
     25  CA        16.2070   41.8220   52.5210 C.3    34  LEU34       0.1561
     26  C         16.9620   42.5780   53.6210 C.2    34  LEU34       0.2260
     27  O         18.1800   42.7020   53.5590 O.2    34  LEU34      -0.2867
     28  CB        16.6060   40.3310   52.5700 C.3    34  LEU34       0.0270
     29  CG        16.3570   39.6390   53.9230 C.3    34  LEU34       0.0019
     30  CD1       14.9200   39.1670   54.0060 C.3    34  LEU34       0.0001
     31  CD2       17.3110   38.4940   54.1490 C.3    34  LEU34       0.0001
     32  N         18.6540   42.5370   56.8780 N.3    36  ASP36      -0.1239
     33  CA        19.2400   41.4700   57.6700 C.3    36  ASP36       0.1674
     34  C         20.1690   41.9450   58.7750 C.2    36  ASP36       0.2266
     35  O         21.3420   42.1660   58.5100 O.2    36  ASP36      -0.2867
     36  CB        19.9860   40.5160   56.7080 C.3    36  ASP36       0.1410
     37  CG        20.5200   39.2320   57.3040 C.2    36  ASP36       0.3668
     38  OD1       20.1880   38.9270   58.4760 O.co2  36  ASP36      -0.2456
     39  OD2       21.2510   38.5150   56.5990 O.co2  36  ASP36      -0.2456
     40  N         21.3730   40.0490   60.9670 N.3    38  GLY38      -0.1210
     41  CA        22.1730   38.8830   61.3220 C.3    38  GLY38       0.1956
     42  C         23.3810   38.6280   60.4370 C.2    38  GLY38       0.2612
     43  O         24.0090   37.5650   60.5360 O.2    38  GLY38      -0.2717
     44  N         23.7130   39.5820   59.5530 N.am   39  SER39      -0.1952
     45  CA        24.8860   39.4320   58.6840 C.3    39  SER39       0.1924
     46  C         25.4170   40.8150   58.3410 C.2    39  SER39       0.2314
     47  O         24.8000   41.8190   58.7090 O.2    39  SER39      -0.2863
     48  CB        24.5810   38.5970   57.4370 C.3    39  SER39       0.2116
     49  OG        23.7460   39.3140   56.5450 O.3    39  SER39      -0.2180
     50  N         30.7100   32.2820   50.5450 N.3    73  VAL73      -0.1245
     51  CA        29.9840   32.1730   51.8070 C.3    73  VAL73       0.1561
     52  C         29.1560   30.8950   51.9180 C.2    73  VAL73       0.2260
     53  O         27.9370   30.9270   51.7030 O.2    73  VAL73      -0.2867
     54  CB        29.1480   33.4350   52.1390 C.3    73  VAL73       0.0252
     55  CG1       28.5510   33.3440   53.5680 C.3    73  VAL73       0.0019
     56  CG2       30.0050   34.6820   51.9940 C.3    73  VAL73       0.0019
     57  N         27.3350   27.7040   53.9220 N.3    75  TYR75      -0.1241
     58  CA        26.6120   27.3950   55.1530 C.3    75  TYR75       0.1605
     59  C         26.0480   25.9760   54.9670 C.2    75  TYR75       0.2264
     60  O         26.2780   25.3760   53.9070 O.2    75  TYR75      -0.2867
     61  CB        25.5540   28.4680   55.4910 C.3    75  TYR75       0.0534
     62  CG        24.6470   28.8520   54.3410 C.ar   75  TYR75      -0.0201
     63  CD1       24.9330   29.9570   53.5330 C.ar   75  TYR75      -0.0009
     64  CD2       23.4930   28.1190   54.0640 C.ar   75  TYR75      -0.0009
     65  CE1       24.0880   30.3210   52.4850 C.ar   75  TYR75       0.0417
     66  CE2       22.6720   28.4450   52.9910 C.ar   75  TYR75       0.0417
     67  CZ        22.9670   29.5490   52.2090 C.ar   75  TYR75       0.1957
     68  OH        22.1240   29.8670   51.1750 O.3    75  TYR75      -0.2866
     69  N         26.2670   31.2800   49.0160 N.3    80  TRP80      -0.1241
     70  CA        26.2570   32.3740   48.0770 C.3    80  TRP80       0.1605
     71  C         27.7230   32.6350   47.7950 C.2    80  TRP80       0.2264
     72  O         28.5840   32.4950   48.6870 O.2    80  TRP80      -0.2867
     73  CB        25.4140   33.5910   48.4730 C.3    80  TRP80       0.0550
     74  CG        25.9930   34.4920   49.5140 C.ar   80  TRP80       0.0003
     75  CD1       25.6080   34.5800   50.8190 C.ar   80  TRP80       0.0946
     76  CD2       26.9630   35.5270   49.3100 C.ar   80  TRP80       0.0152
     77  NE1       26.3180   35.5670   51.4570 N.ar   80  TRP80      -0.2442
     78  CE2       27.1140   36.2080   50.5410 C.ar   80  TRP80       0.0810
     79  CE3       27.7140   35.9560   48.1970 C.ar   80  TRP80       0.0012
     80  CZ2       28.0140   37.2620   50.7090 C.ar   80  TRP80       0.0191
     81  CZ3       28.5960   37.0140   48.3620 C.ar   80  TRP80       0.0001
     82  CH2       28.7550   37.6390   49.6130 C.ar   80  TRP80       0.0015
     83  N         19.7000   29.8410   48.5140 N.3   112  PHE112     -0.1241
     84  CA        19.8730   31.1940   49.0310 C.3   112  PHE112      0.1605
     85  C         18.6420   32.0320   48.6770 C.2   112  PHE112      0.2264
     86  O         17.9890   32.5940   49.5650 O.2   112  PHE112     -0.2867
     87  CB        21.1550   31.8430   48.4700 C.3   112  PHE112      0.0534
     88  CG        21.4160   33.2420   48.9750 C.ar  112  PHE112     -0.0203
     89  CD1       21.9370   33.4530   50.2490 C.ar  112  PHE112     -0.0042
     90  CD2       21.1420   34.3510   48.1800 C.ar  112  PHE112     -0.0042
     91  CE1       22.1630   34.7470   50.7230 C.ar  112  PHE112     -0.0003
     92  CE2       21.3580   35.6480   48.6590 C.ar  112  PHE112     -0.0003
     93  CZ        21.8900   35.8350   49.9180 C.ar  112  PHE112     -0.0000
     94  N         14.8190   32.7300   47.4850 N.3   114  ILE114     -0.1245
     95  CA        13.5400   32.0650   47.7700 C.3   114  ILE114      0.1561
     96  C         12.5280   32.4070   46.6860 C.2   114  ILE114      0.2260
     97  O         12.3510   33.5730   46.3480 O.2   114  ILE114     -0.2867
     98  CB        13.0320   32.4320   49.1810 C.3   114  ILE114      0.0252
     99  CG1       14.0340   31.9520   50.2570 C.3   114  ILE114      0.0019
    100  CG2       11.6000   31.8790   49.4480 C.3   114  ILE114      0.0019
    101  CD1       13.5890   32.1830   51.6000 C.3   114  ILE114      0.0001
    102  N         12.5540   39.5860   46.7190 N.3   119  TRP119     -0.1241
    103  CA        13.8110   40.3060   46.9460 C.3   119  TRP119      0.1605
    104  C         14.9270   39.6910   46.1310 C.2   119  TRP119      0.2264
    105  O         14.8660   38.5070   45.7840 O.2   119  TRP119     -0.2867
    106  CB        14.1810   40.4830   48.4300 C.3   119  TRP119      0.0550
    107  CG        14.1820   39.2270   49.2370 C.ar  119  TRP119      0.0003
    108  CD1       13.2050   38.8110   50.0980 C.ar  119  TRP119      0.0946
    109  CD2       15.2290   38.2490   49.3090 C.ar  119  TRP119      0.0152
    110  NE1       13.5630   37.6150   50.6800 N.ar  119  TRP119     -0.2442
    111  CE2       14.8050   37.2500   50.2200 C.ar  119  TRP119      0.0810
    112  CE3       16.5130   38.1440   48.7360 C.ar  119  TRP119      0.0012
    113  CZ2       15.5990   36.1450   50.5360 C.ar  119  TRP119      0.0191
    114  CZ3       17.2990   37.0630   49.0570 C.ar  119  TRP119      0.0001
    115  CH2       16.8360   36.0600   49.9270 C.ar  119  TRP119      0.0015
    116  N         20.5250   40.9390   49.8060 N.3   122  ILE122     -0.1245
    117  CA        20.3960   41.0990   51.2560 C.3   122  ILE122      0.1561
    118  C         21.2370   42.2710   51.7080 C.2   122  ILE122      0.2260
    119  O         22.3110   42.5020   51.1470 O.2   122  ILE122     -0.2867
    120  CB        20.7750   39.7980   52.0590 C.3   122  ILE122      0.0252
    121  CG1       22.2840   39.4610   51.9320 C.3   122  ILE122      0.0019
    122  CG2       19.8950   38.6020   51.6360 C.3   122  ILE122      0.0019
    123  CD1       22.7450   38.1700   52.8550 C.3   122  ILE122      0.0001
    124  N         18.0430   39.0560   65.2150 N.3   232  ASP232     -0.1225
    125  CA        18.2420   38.7980   63.7880 C.3   232  ASP232      0.1805
    126  C         16.9800   38.8830   62.9500 C.2   232  ASP232      0.2598
    127  O         16.2170   37.9160   62.9160 O.2   232  ASP232     -0.2718
    128  CB        18.8920   37.4110   63.6110 C.3   232  ASP232      0.1424
    129  CG        19.2970   37.0900   62.1770 C.2   232  ASP232      0.3668
    130  OD1       19.2160   37.9950   61.3190 O.co2 232  ASP232     -0.2456
    131  OD2       19.6240   35.9180   61.9010 O.co2 232  ASP232     -0.2456
    132  N         16.7960   40.0070   62.2070 N.am  233  SER233     -0.1938
    133  CA        15.6280   40.1710   61.3160 C.3   233  SER233      0.2055
    134  C         15.6840   39.1810   60.1100 C.2   233  SER233      0.2644
    135  O         14.6740   38.9650   59.4480 O.2   233  SER233     -0.2714
    136  CB        15.5320   41.6200   60.8350 C.3   233  SER233      0.2130
    137  OG        16.6690   41.9530   60.0370 O.3   233  SER233     -0.2179
    138  N         16.8610   38.5860   59.8710 N.am  234  GLY234     -0.1939
    139  CA        17.1030   37.5990   58.8190 C.3   234  GLY234      0.2014
    140  C         16.8300   36.1610   59.2090 C.2   234  GLY234      0.2640
    141  O         17.0770   35.2500   58.4170 O.2   234  GLY234     -0.2714
    142  N         16.2850   35.9410   60.4210 N.am  235  THR235     -0.1936
    143  CA        15.8760   34.6110   60.8850 C.3   235  THR235      0.2028
    144  C         14.3660   34.6770   61.1160 C.2   235  THR235      0.2642
    145  O         13.8730   35.6450   61.6950 O.2   235  THR235     -0.2714
    146  CB        16.6090   34.2070   62.1770 C.3   235  THR235      0.1808
    147  OG1       17.9720   33.9360   61.8520 O.3   235  THR235     -0.2208
    148  CG2       15.9890   32.9460   62.8320 C.3   235  THR235      0.0379
    149  N         13.6340   33.6440   60.6850 N.am  236  THR236     -0.1950
    150  CA        12.1780   33.6640   60.8800 C.3   236  THR236      0.1897
    151  C         11.7890   33.4200   62.3560 C.2   236  THR236      0.2313
    152  O         11.0290   34.1780   62.9590 O.2   236  THR236     -0.2863
    153  CB        11.5210   32.5960   59.9610 C.3   236  THR236      0.1794
    154  OG1       11.7580   32.9480   58.5850 O.3   236  THR236     -0.2208
    155  CG2       10.0240   32.4600   60.2170 C.3   236  THR236      0.0378
    156  N         14.7970   31.0190   67.8620 N.3   239  ARG239     -0.1245
    157  CA        15.6520   29.8110   67.9000 C.3   239  ARG239      0.1563
    158  C         16.3160   29.7180   69.2560 C.2   239  ARG239      0.2260
    159  O         16.8040   30.7230   69.7740 O.2   239  ARG239     -0.2867
    160  CB        16.7020   29.8210   66.7520 C.3   239  ARG239      0.0307
    161  CG        16.0340   29.9260   65.3750 C.3   239  ARG239      0.0489
    162  CD        17.0160   29.7050   64.2280 C.3   239  ARG239      0.2205
    163  NE        17.5520   28.3400   64.2420 N.pl3 239  ARG239     -0.0865
    164  CZ        18.8190   28.0270   64.0050 C.cat 239  ARG239      0.5346
    165  NH1       19.2150   26.7670   64.0620 N.pl3 239  ARG239      0.1354
    166  NH2       19.7080   28.9790   63.7210 N.pl3 239  ARG239      0.1354
@<TRIPOS>BOND
     1   105   104    2
     2   104   103    1
     3    97    96    2
     4    96    95    1
     5   102   103    1
     6   103   106    1
     7    94    95    1
     8    95    98    1
     9    71    70    1
    10    71    72    2
    11    70    73    1
    12    70    69    1
    13    90    92   ar
    14    90    88   ar
    15    79    81   ar
    16    79    76   ar
    17    81    82   ar
    18   106   107    1
    19    87    88    1
    20    87    84    1
    21    73    74    1
    22    83    84    1
    23    92    93   ar
    24    85    84    1
    25    85    86    2
    26   112   114   ar
    27   112   109   ar
    28    88    89   ar
    29   114   115   ar
    30    98   100    1
    31    98    99    1
    32   107   109   ar
    33   107   108   ar
    34   109   111   ar
    35    76    74   ar
    36    76    78   ar
    37    74    75   ar
    38    19    17   am
    39    82    80   ar
    40   116   117    1
    41    93    91   ar
    42   115   113   ar
    43   108   110   ar
    44    18    17    2
    45   111   113   ar
    46   111   110   ar
    47    89    91   ar
    48    99   101    1
    49    17    16    1
    50    78    80   ar
    51    78    77   ar
    52    50    51    1
    53    75    77   ar
    54   119   118    2
    55    68    67    1
    56    24    25    1
    57   117   118    1
    58   117   120    1
    59   122   120    1
    60    53    52    2
    61    51    52    1
    62    51    54    1
    63    16    15    1
    64   121   120    1
    65   121   123    1
    66    56    54    1
    67    54    55    1
    68    67    65   ar
    69    67    66   ar
    70    15    12    1
    71    65    63   ar
    72    25    28    1
    73    25    26    1
    74    28    29    1
    75    14    13    2
    76    66    64   ar
    77    12    13    1
    78    12    11    1
    79    63    62   ar
    80    27    26    2
    81    13    20   am
    82    60    59    2
    83    57    58    1
    84    29    30    1
    85    29    31    1
    86    23    22    2
    87    64    62   ar
    88    62    61    1
    89    11     9   am
    90    20    21    1
    91    22    21    1
    92    10     9    2
    93    59    58    1
    94    58    61    1
    95     9     8    1
    96    49    48    1
    97     8     7    1
    98    39    37   ar
    99    36    37    1
   100    36    33    1
   101    32    33    1
   102     7     3   am
   103    37    38   ar
   104    48    45    1
   105    33    34    1
   106     1     2    1
   107     3     4    2
   108     3     2    1
   109    46    45    1
   110    46    47    2
   111   141   140    2
   112    35    34    2
   113   154   153    1
   114     2     5    1
   115    45    44    1
   116   139   140    1
   117   139   138    1
   118   140   142   am
   119   135   134    2
   120    44    42   am
   121     6     5    1
   122   138   134   am
   123   153   155    1
   124   153   150    1
   125   137   136    1
   126   134   133    1
   127   142   143    1
   128    42    43    2
   129    42    41    1
   130   149   150    1
   131   149   144   am
   132   136   133    1
   133   150   151    1
   134   143   144    1
   135   143   146    1
   136    40    41    1
   137   144   145    2
   138   133   132    1
   139   130   129   ar
   140   147   146    1
   141   131   129   ar
   142   146   148    1
   143   129   128    1
   144   132   126   am
   145   151   152    2
   146   127   126    2
   147   126   125    1
   148   128   125    1
   149   166   164    1
   150   125   124    1
   151   164   165    1
   152   164   163    2
   153   162   163    1
   154   162   161    1
   155   161   160    1
   156   160   157    1
   157   156   157    1
   158   157   158    1
   159   158   159    2
