@<TRIPOS>MOLECULE
tmp/4djyB00.pdb
 209 200 0 0 0
SMALL
GASTEIGER

@<TRIPOS>ATOM
      1  N          7.4060   37.0460   57.7190 N.3    14  SER14      -0.1202
      2  CA         8.4150   36.2900   58.4870 C.3    14  SER14       0.2020
      3  C          8.9650   35.0700   57.7840 C.2    14  SER14       0.2619
      4  O         10.1630   34.8150   57.8850 O.2    14  SER14      -0.2717
      5  CB         7.8850   35.8890   59.8540 C.3    14  SER14       0.2103
      6  OG         6.7640   35.0290   59.7420 O.3    14  SER14      -0.2182
      7  N          8.0980   34.3400   57.0780 N.am   15  GLY15      -0.1942
      8  CA         8.4970   33.1160   56.3920 C.3    15  GLY15       0.2014
      9  C          9.5320   33.2850   55.2940 C.2    15  GLY15       0.2639
     10  O         10.3550   32.3870   55.0870 O.2    15  GLY15      -0.2714
     11  N          9.5080   34.4440   54.6040 N.am   16  GLN16      -0.1963
     12  CA        10.3660   34.7060   53.4450 C.3    16  GLN16       0.1733
     13  C         11.2520   35.9320   53.5290 C.2    16  GLN16       0.2617
     14  O         12.0750   36.1430   52.6410 O.2    16  GLN16      -0.2715
     15  CB         9.5140   34.7690   52.1680 C.3    16  GLN16       0.0408
     16  CG         8.7230   33.4940   51.8940 C.3    16  GLN16       0.0908
     17  CD         8.1580   33.4610   50.4970 C.2    16  GLN16       0.2608
     18  OE1        7.6110   34.4500   49.9820 O.2    16  GLN16      -0.2717
     19  NE2        8.2430   32.2940   49.8760 N.am   16  GLN16      -0.0878
     20  N         11.1160   36.6870   54.6130 N.am   17  GLY17      -0.1940
     21  CA        11.8880   37.8850   54.8690 C.3    17  GLY17       0.2014
     22  C         11.2080   39.1890   54.5330 C.2    17  GLY17       0.2638
     23  O         10.3370   39.2630   53.6530 O.2    17  GLY17      -0.2714
     24  N         11.6500   40.2350   55.2280 N.am   18  TYR18      -0.1973
     25  CA        11.2030   41.6090   55.0380 C.3    18  TYR18       0.1639
     26  C         12.2430   42.3170   54.2200 C.2    18  TYR18       0.2290
     27  O         13.4310   42.1770   54.4990 O.2    18  TYR18      -0.2864
     28  CB        11.0360   42.3010   56.3840 C.3    18  TYR18       0.0560
     29  CG         9.8190   41.7910   57.1100 C.ar   18  TYR18      -0.0198
     30  CD1        9.9060   40.7320   58.0070 C.ar   18  TYR18      -0.0009
     31  CD2        8.5690   42.3520   56.8770 C.ar   18  TYR18      -0.0009
     32  CE1        8.7750   40.2550   58.6730 C.ar   18  TYR18       0.0417
     33  CE2        7.4370   41.8880   57.5410 C.ar   18  TYR18       0.0417
     34  CZ         7.5410   40.8300   58.4200 C.ar   18  TYR18       0.1957
     35  OH         6.4190   40.4150   59.1030 O.3    18  TYR18      -0.2866
     36  N         16.5870   42.1320   51.1360 N.3    34  LEU34      -0.1245
     37  CA        16.2820   41.6280   52.4760 C.3    34  LEU34       0.1561
     38  C         17.0010   42.4540   53.5520 C.2    34  LEU34       0.2260
     39  O         18.2170   42.6510   53.4760 O.2    34  LEU34      -0.2867
     40  CB        16.7430   40.1630   52.5750 C.3    34  LEU34       0.0270
     41  CG        16.5520   39.5120   53.9540 C.3    34  LEU34       0.0019
     42  CD1       15.0790   39.1360   54.1690 C.3    34  LEU34       0.0001
     43  CD2       17.4590   38.2970   54.1230 C.3    34  LEU34       0.0001
     44  N         18.6650   42.4810   56.8220 N.3    36  ASP36      -0.1239
     45  CA        19.2690   41.4070   57.5960 C.3    36  ASP36       0.1674
     46  C         20.2250   41.8640   58.6850 C.2    36  ASP36       0.2266
     47  O         21.4090   42.0510   58.4130 O.2    36  ASP36      -0.2867
     48  CB        20.0000   40.4520   56.6100 C.3    36  ASP36       0.1410
     49  CG        20.5340   39.1850   57.2510 C.2    36  ASP36       0.3668
     50  OD1       20.1620   38.8900   58.4200 O.co2  36  ASP36      -0.2456
     51  OD2       21.2850   38.4630   56.5730 O.co2  36  ASP36      -0.2456
     52  N         21.4040   39.9770   60.8750 N.3    38  GLY38      -0.1210
     53  CA        22.1810   38.7840   61.2270 C.3    38  GLY38       0.1956
     54  C         23.4040   38.5250   60.3590 C.2    38  GLY38       0.2612
     55  O         24.0270   37.4640   60.4560 O.2    38  GLY38      -0.2717
     56  N         23.7550   39.4870   59.4920 N.am   39  SER39      -0.1952
     57  CA        24.9290   39.3560   58.6230 C.3    39  SER39       0.1924
     58  C         25.4670   40.7240   58.2950 C.2    39  SER39       0.2314
     59  O         24.8330   41.7130   58.6530 O.2    39  SER39      -0.2863
     60  CB        24.6060   38.5800   57.3510 C.3    39  SER39       0.2116
     61  OG        23.7760   39.3300   56.4890 O.3    39  SER39      -0.2180
     62  N         30.8750   32.1720   50.6560 N.3    73  VAL73      -0.1245
     63  CA        30.1910   32.1430   51.9480 C.3    73  VAL73       0.1561
     64  C         29.3400   30.8810   52.1590 C.2    73  VAL73       0.2260
     65  O         28.1240   30.9180   51.9300 O.2    73  VAL73      -0.2867
     66  CB        29.3940   33.4490   52.1950 C.3    73  VAL73       0.0252
     67  CG1       28.7090   33.4410   53.5780 C.3    73  VAL73       0.0019
     68  CG2       30.2920   34.6630   52.0390 C.3    73  VAL73       0.0019
     69  N         27.3590   28.3460   54.4510 N.3    75  TYR75      -0.1241
     70  CA        26.7130   28.3360   55.7660 C.3    75  TYR75       0.1605
     71  C         25.8720   27.0620   55.9050 C.2    75  TYR75       0.2264
     72  O         25.9070   26.2110   55.0090 O.2    75  TYR75      -0.2867
     73  CB        25.9350   29.6490   56.0430 C.3    75  TYR75       0.0534
     74  CG        24.9670   30.0420   54.9520 C.ar   75  TYR75      -0.0201
     75  CD1       25.4130   30.5870   53.7520 C.ar   75  TYR75      -0.0009
     76  CD2       23.5960   29.8940   55.1290 C.ar   75  TYR75      -0.0009
     77  CE1       24.5250   30.9370   52.7400 C.ar   75  TYR75       0.0417
     78  CE2       22.6970   30.2470   54.1240 C.ar   75  TYR75       0.0417
     79  CZ        23.1690   30.7220   52.9140 C.ar   75  TYR75       0.1957
     80  OH        22.2820   31.0230   51.9110 O.3    75  TYR75      -0.2866
     81  N         22.4100   26.7940   56.3820 N.3    77  GLN77      -0.1245
     82  CA        21.2120   26.9370   55.5500 C.3    77  GLN77       0.1566
     83  C         21.5150   26.6880   54.0660 C.2    77  GLN77       0.2260
     84  O         20.7460   26.0030   53.4010 O.2    77  GLN77      -0.2867
     85  CB        20.5540   28.3200   55.7280 C.3    77  GLN77       0.0367
     86  CG        19.9310   28.5920   57.0900 C.3    77  GLN77       0.0905
     87  CD        18.5850   27.9220   57.2120 C.2    77  GLN77       0.2608
     88  OE1       18.4830   26.7410   57.5650 O.2    77  GLN77      -0.2717
     89  NE2       17.5240   28.6570   56.9060 N.am   77  GLN77      -0.0878
     90  N         26.4990   31.0090   49.2390 N.3    80  TRP80      -0.1241
     91  CA        26.5400   32.0340   48.2090 C.3    80  TRP80       0.1605
     92  C         27.9670   32.3400   47.8660 C.2    80  TRP80       0.2264
     93  O         28.8640   32.2780   48.7170 O.2    80  TRP80      -0.2867
     94  CB        25.6780   33.2730   48.5200 C.3    80  TRP80       0.0550
     95  CG        26.1870   34.1790   49.5920 C.ar   80  TRP80       0.0003
     96  CD1       25.8170   34.1830   50.9030 C.ar   80  TRP80       0.0946
     97  CD2       27.0830   35.2900   49.4250 C.ar   80  TRP80       0.0152
     98  NE1       26.4320   35.2190   51.5670 N.ar   80  TRP80      -0.2442
     99  CE2       27.1950   35.9310   50.6790 C.ar   80  TRP80       0.0810
    100  CE3       27.7800   35.8250   48.3250 C.ar   80  TRP80       0.0012
    101  CZ2       28.0010   37.0590   50.8740 C.ar   80  TRP80       0.0191
    102  CZ3       28.5810   36.9400   48.5200 C.ar   80  TRP80       0.0001
    103  CH2       28.7170   37.5220   49.7870 C.ar   80  TRP80       0.0015
    104  N         20.4690   27.3210   47.9200 N.3   111  LYS111     -0.1231
    105  CA        19.4150   27.5940   48.9050 C.3   111  LYS111      0.1693
    106  C         19.5200   28.9900   49.5210 C.2   111  LYS111      0.2592
    107  O         19.2290   29.1790   50.7040 O.2   111  LYS111     -0.2718
    108  CB        19.3860   26.4970   50.0010 C.3   111  LYS111      0.0285
    109  CG        19.0670   25.0990   49.4590 C.3   111  LYS111      0.0035
    110  CD        18.7040   24.1070   50.5790 C.3   111  LYS111      0.0206
    111  CE        19.8280   23.7410   51.5380 C.3   111  LYS111      0.1093
    112  NZ        21.0180   23.1610   50.8590 N.3   111  LYS111     -0.1314
    113  N         19.9640   29.9670   48.7290 N.am  112  PHE112     -0.1976
    114  CA        20.1200   31.3370   49.2080 C.3   112  PHE112      0.1639
    115  C         18.8560   32.1150   48.8410 C.2   112  PHE112      0.2290
    116  O         18.1890   32.6990   49.7120 O.2   112  PHE112     -0.2864
    117  CB        21.3720   31.9820   48.5710 C.3   112  PHE112      0.0560
    118  CG        21.6090   33.4140   48.9870 C.ar  112  PHE112     -0.0200
    119  CD1       22.2700   33.7100   50.1770 C.ar  112  PHE112     -0.0042
    120  CD2       21.1760   34.4690   48.1900 C.ar  112  PHE112     -0.0042
    121  CE1       22.4980   35.0320   50.5580 C.ar  112  PHE112     -0.0003
    122  CE2       21.3930   35.7940   48.5810 C.ar  112  PHE112     -0.0003
    123  CZ        22.0950   36.0630   49.7350 C.ar  112  PHE112     -0.0000
    124  N         15.0190   32.6430   47.6990 N.3   114  ILE114     -0.1245
    125  CA        13.7430   32.0300   48.0940 C.3   114  ILE114      0.1561
    126  C         12.7120   32.2980   47.0290 C.2   114  ILE114      0.2260
    127  O         12.4410   33.4510   46.7040 O.2   114  ILE114     -0.2867
    128  CB        13.2760   32.5650   49.4770 C.3   114  ILE114      0.0252
    129  CG1       14.3380   32.3040   50.5890 C.3   114  ILE114      0.0019
    130  CG2       11.8770   32.0320   49.8660 C.3   114  ILE114      0.0019
    131  CD1       14.7820   30.8060   50.7990 C.3   114  ILE114      0.0001
    132  N         12.5880   39.4100   46.6830 N.3   119  TRP119     -0.1241
    133  CA        13.8430   40.1230   46.8850 C.3   119  TRP119      0.1605
    134  C         14.9690   39.4730   46.0920 C.2   119  TRP119      0.2264
    135  O         14.9350   38.2680   45.8320 O.2   119  TRP119     -0.2867
    136  CB        14.2000   40.3220   48.3650 C.3   119  TRP119      0.0550
    137  CG        14.2010   39.0900   49.2210 C.ar  119  TRP119      0.0003
    138  CD1       13.2760   38.7590   50.1740 C.ar  119  TRP119      0.0946
    139  CD2       15.2900   38.1710   49.3840 C.ar  119  TRP119      0.0152
    140  NE1       13.6860   37.6400   50.8660 N.ar  119  TRP119     -0.2442
    141  CE2       14.9110   37.2440   50.3820 C.ar  119  TRP119      0.0810
    142  CE3       16.5360   38.0070   48.7400 C.ar  119  TRP119      0.0012
    143  CZ2       15.7450   36.1810   50.7720 C.ar  119  TRP119      0.0191
    144  CZ3       17.3550   36.9600   49.1250 C.ar  119  TRP119      0.0001
    145  CH2       16.9590   36.0560   50.1220 C.ar  119  TRP119      0.0015
    146  N         20.5580   40.8060   49.7010 N.3   122  ILE122     -0.1245
    147  CA        20.4230   40.9850   51.1490 C.3   122  ILE122      0.1561
    148  C         21.2940   42.1430   51.5980 C.2   122  ILE122      0.2260
    149  O         22.3720   42.3730   51.0340 O.2   122  ILE122     -0.2867
    150  CB        20.7490   39.6670   51.9370 C.3   122  ILE122      0.0252
    151  CG1       22.2630   39.3480   51.8980 C.3   122  ILE122      0.0019
    152  CG2       19.9000   38.4690   51.4020 C.3   122  ILE122      0.0019
    153  CD1       22.6740   38.2170   52.9010 C.3   122  ILE122      0.0001
    154  N          8.8040   45.4220   62.1050 N.3   158  LEU158     -0.1245
    155  CA         8.4100   44.3070   61.2310 C.3   158  LEU158      0.1561
    156  C          6.9710   43.9340   61.5820 C.2   158  LEU158      0.2260
    157  O          6.6800   43.6260   62.7350 O.2   158  LEU158     -0.2867
    158  CB         9.3370   43.1000   61.4110 C.3   158  LEU158      0.0270
    159  CG        10.8590   43.3320   61.2250 C.3   158  LEU158      0.0019
    160  CD1       11.6110   42.0290   61.3700 C.3   158  LEU158      0.0001
    161  CD2       11.1780   44.0520   59.8900 C.3   158  LEU158      0.0001
    162  N         18.1120   39.0260   65.1640 N.3   232  ASP232     -0.1225
    163  CA        18.2870   38.7550   63.7440 C.3   232  ASP232      0.1805
    164  C         17.0200   38.8680   62.9260 C.2   232  ASP232      0.2598
    165  O         16.2410   37.9170   62.8870 O.2   232  ASP232     -0.2718
    166  CB        18.9230   37.3490   63.5710 C.3   232  ASP232      0.1424
    167  CG        19.2950   37.0010   62.1280 C.2   232  ASP232      0.3668
    168  OD1       19.1890   37.8790   61.2600 O.co2 232  ASP232     -0.2456
    169  OD2       19.6580   35.8280   61.8760 O.co2 232  ASP232     -0.2456
    170  N         16.8660   39.9980   62.1920 N.am  233  SER233     -0.1938
    171  CA        15.7390   40.2350   61.2660 C.3   233  SER233      0.2055
    172  C         15.7970   39.2650   60.0640 C.2   233  SER233      0.2644
    173  O         14.8230   39.1730   59.3370 O.2   233  SER233     -0.2714
    174  CB        15.7310   41.6870   60.7690 C.3   233  SER233      0.2130
    175  OG        16.8550   41.9520   59.9360 O.3   233  SER233     -0.2179
    176  N         16.9400   38.6180   59.8330 N.am  234  GLY234     -0.1939
    177  CA        17.1150   37.6340   58.7500 C.3   234  GLY234      0.2014
    178  C         16.8420   36.1860   59.1360 C.2   234  GLY234      0.2640
    179  O         17.1560   35.2650   58.3790 O.2   234  GLY234     -0.2714
    180  N         16.1970   35.9650   60.2860 N.am  235  THR235     -0.1936
    181  CA        15.7640   34.6370   60.7310 C.3   235  THR235      0.2028
    182  C         14.2570   34.6930   61.0010 C.2   235  THR235      0.2642
    183  O         13.7840   35.5940   61.6890 O.2   235  THR235     -0.2714
    184  CB        16.5190   34.1580   61.9930 C.3   235  THR235      0.1808
    185  OG1       17.8750   33.8370   61.6570 O.3   235  THR235     -0.2208
    186  CG2       15.8710   32.9150   62.6280 C.3   235  THR235      0.0379
    187  N         13.5360   33.6890   60.5460 N.am  236  THR236     -0.1950
    188  CA        12.0780   33.6300   60.7550 C.3   236  THR236      0.1897
    189  C         11.6910   33.3850   62.2210 C.2   236  THR236      0.2313
    190  O         10.8640   34.1070   62.7920 O.2   236  THR236     -0.2863
    191  CB        11.4900   32.4990   59.8790 C.3   236  THR236      0.1794
    192  OG1       11.7610   32.8150   58.5160 O.3   236  THR236     -0.2208
    193  CG2        9.9420   32.3060   60.0920 C.3   236  THR236      0.0378
    194  N         14.8280   31.0300   67.7230 N.3   239  ARG239     -0.1245
    195  CA        15.6490   29.8150   67.8050 C.3   239  ARG239      0.1563
    196  C         16.3230   29.7440   69.1590 C.2   239  ARG239      0.2260
    197  O         16.8070   30.7570   69.6530 O.2   239  ARG239     -0.2867
    198  CB        16.6440   29.7390   66.6390 C.3   239  ARG239      0.0307
    199  CG        15.9400   29.8020   65.2790 C.3   239  ARG239      0.0489
    200  CD        16.9170   29.6300   64.1270 C.3   239  ARG239      0.2205
    201  NE        17.4550   28.2660   64.0820 N.pl3 239  ARG239     -0.0865
    202  CZ        18.7450   27.9870   63.9400 C.cat 239  ARG239      0.5346
    203  NH1       19.1600   26.7270   63.9620 N.pl3 239  ARG239      0.1354
    204  NH2       19.6350   28.9630   63.8120 N.pl3 239  ARG239      0.1354
    205  N         12.2540   37.0210   63.4150 N.3   339  ALA339     -0.1245
    206  CA        11.0060   37.7120   63.1050 C.3   339  ALA339      0.1562
    207  C          9.8930   37.4260   64.1080 C.2   339  ALA339      0.2260
    208  O          9.1430   38.3460   64.4050 O.2   339  ALA339     -0.2867
    209  CB        10.5440   37.3970   61.6940 C.3   339  ALA339      0.0290
@<TRIPOS>BOND
     1   135   134    2
     2   134   133    1
     3   132   133    1
     4   127   126    2
     5   133   136    1
     6   126   125    1
     7   124   125    1
     8    92    91    1
     9    92    93    2
    10   104   105    1
    11   125   128    1
    12   120   122   ar
    13   120   118   ar
    14    91    94    1
    15    91    90    1
    16   100   102   ar
    17   100    97   ar
    18   136   137    1
    19   102   103   ar
    20    94    95    1
    21   117   118    1
    22   117   114    1
    23   122   123   ar
    24   113   114    1
    25   113   106   am
    26   142   144   ar
    27   142   139   ar
    28   115   114    1
    29   115   116    2
    30   105   106    1
    31   105   108    1
    32   118   119   ar
    33   144   145   ar
    34   137   139   ar
    35   137   138   ar
    36   139   141   ar
    37    97    95   ar
    38    97    99   ar
    39   109   108    1
    40   109   110    1
    41   128   130    1
    42   128   129    1
    43   106   107    2
    44    95    96   ar
    45   146   147    1
    46   123   121   ar
    47   103   101   ar
    48    19    17   am
    49    18    17    2
    50   145   143   ar
    51   138   140   ar
    52   119   121   ar
    53   141   143   ar
    54   141   140   ar
    55    17    16    1
    56   110   111    1
    57   129   131    1
    58    62    63    1
    59    99   101   ar
    60    99    98   ar
    61   112   111    1
    62    96    98   ar
    63   149   148    2
    64    36    37    1
    65   147   148    1
    66   147   150    1
    67   152   150    1
    68    16    15    1
    69   151   150    1
    70   151   153    1
    71    80    79    1
    72    65    64    2
    73    63    64    1
    74    63    66    1
    75    68    66    1
    76    15    12    1
    77    66    67    1
    78    37    40    1
    79    37    38    1
    80    40    41    1
    81    14    13    2
    82    77    79   ar
    83    77    75   ar
    84    79    78   ar
    85    84    83    2
    86    12    13    1
    87    12    11    1
    88    39    38    2
    89    13    20   am
    90    23    22    2
    91    75    74   ar
    92    41    43    1
    93    41    42    1
    94    83    82    1
    95    78    76   ar
    96    26    27    2
    97    26    25    1
    98    69    70    1
    99    22    21    1
   100    22    24   am
   101    11     9   am
   102    20    21    1
   103    74    76   ar
   104    74    73    1
   105    72    71    2
   106    25    24    1
   107    25    28    1
   108    10     9    2
   109     9     8    1
   110    82    85    1
   111    82    81    1
   112    85    86    1
   113    70    71    1
   114    70    73    1
   115    28    29    1
   116     8     7    1
   117    61    60    1
   118    51    49   ar
   119    48    49    1
   120    48    45    1
   121    44    45    1
   122    31    29   ar
   123    31    33   ar
   124    89    87   am
   125     7     3   am
   126    86    87    1
   127    29    30   ar
   128    87    88    2
   129    49    50   ar
   130    60    57    1
   131    33    34   ar
   132    45    46    1
   133     1     2    1
   134     3     4    2
   135     3     2    1
   136    30    32   ar
   137    58    57    1
   138    58    59    2
   139   179   178    2
   140    47    46    2
   141    34    32   ar
   142    34    35    1
   143     2     5    1
   144   192   191    1
   145    57    56    1
   146   177   178    1
   147   177   176    1
   148   178   180   am
   149   173   172    2
   150    56    54   am
   151     6     5    1
   152   176   172   am
   153   191   193    1
   154   191   188    1
   155   161   159    1
   156   175   174    1
   157   172   171    1
   158   180   181    1
   159    54    55    2
   160    54    53    1
   161   187   188    1
   162   187   182   am
   163   181   182    1
   164   181   184    1
   165   188   189    1
   166   174   171    1
   167    52    53    1
   168   182   183    2
   169   159   160    1
   170   159   158    1
   171   155   158    1
   172   155   156    1
   173   155   154    1
   174   168   167   ar
   175   171   170    1
   176   156   157    2
   177   185   184    1
   178   209   206    1
   179   169   167   ar
   180   184   186    1
   181   167   166    1
   182   170   164   am
   183   189   190    2
   184   165   164    2
   185   164   163    1
   186   206   205    1
   187   206   207    1
   188   166   163    1
   189   163   162    1
   190   204   202    1
   191   202   203    1
   192   202   201    2
   193   201   200    1
   194   207   208    2
   195   200   199    1
   196   199   198    1
   197   198   195    1
   198   194   195    1
   199   195   196    1
   200   196   197    2
