@<TRIPOS>MOLECULE
tmp/4dk5A00.pdb
 217 204 0 0 0
SMALL
GASTEIGER

@<TRIPOS>ATOM
      1  N         14.4670   13.7040   12.1940 N.3   560  LYS560     -0.1231
      2  CA        15.1120   14.9300   11.7200 C.3   560  LYS560      0.1693
      3  C         16.6310   14.8030   11.6070 C.2   560  LYS560      0.2592
      4  O         17.2140   13.8200   12.0550 O.2   560  LYS560     -0.2718
      5  CB        14.7340   16.1380   12.5930 C.3   560  LYS560      0.0285
      6  CG        14.4620   15.8310   14.0540 C.3   560  LYS560      0.0035
      7  CD        14.3950   17.0970   14.9040 C.3   560  LYS560      0.0206
      8  CE        13.9100   16.7710   16.3170 C.3   560  LYS560      0.1093
      9  NZ        14.3360   17.7710   17.3340 N.3   560  LYS560     -0.1314
     10  N         17.2550   15.7940   10.9790 N.am  561  VAL561     -0.1966
     11  CA        18.7110   15.9080   10.9240 C.3   561  VAL561      0.1727
     12  C         19.1140   17.0080   11.9040 C.2   561  VAL561      0.2616
     13  O         18.5520   18.1020   11.8890 O.2   561  VAL561     -0.2715
     14  CB        19.2080   16.2440    9.4980 C.3   561  VAL561      0.0290
     15  CG1       20.7220   16.3130    9.4500 C.3   561  VAL561      0.0023
     16  CG2       18.7090   15.2160    8.5070 C.3   561  VAL561      0.0023
     17  N         20.0820   16.7140   12.7620 N.am  562  MET562     -0.1963
     18  CA        20.3830   17.5990   13.8820 C.3   562  MET562      0.1736
     19  C         21.1660   18.8520   13.4900 C.2   562  MET562      0.2616
     20  O         21.8140   18.8960   12.4430 O.2   562  MET562     -0.2715
     21  CB        21.0920   16.8380   15.0050 C.3   562  MET562      0.0427
     22  CG        20.3920   15.5500   15.4250 C.3   562  MET562      0.0599
     23  SD        20.4710   15.2380   17.1970 S.3   562  MET562     -0.1393
     24  CE        22.2360   15.1720   17.4820 C.3   562  MET562      0.0692
     25  N         21.0950   19.8650   14.3520 N.am  563  ALA563     -0.1963
     26  CA        21.7090   21.1660   14.1030 C.3   563  ALA563      0.1728
     27  C         23.2350   21.1270   14.2090 C.2   563  ALA563      0.2616
     28  O         23.9000   22.1380   13.9680 O.2   563  ALA563     -0.2715
     29  CB        21.1240   22.2190   15.0530 C.3   563  ALA563      0.0334
     30  N         23.7840   19.9620   14.5590 N.am  564  SER564     -0.1950
     31  CA        25.2340   19.7790   14.6530 C.3   564  SER564      0.1924
     32  C         25.9170   19.9160   13.2950 C.2   564  SER564      0.2314
     33  O         25.2690   19.8270   12.2480 O.2   564  SER564     -0.2863
     34  CB        25.5760   18.4240   15.2710 C.3   564  SER564      0.2116
     35  OG        26.9330   18.0750   15.0260 O.3   564  SER564     -0.2180
     36  N         24.0550   14.5550   12.5610 N.3   568  PRO568     -0.2116
     37  CA        23.5450   13.2730   13.0270 C.3   568  PRO568      0.1372
     38  C         22.0690   13.1310   12.6940 C.2   568  PRO568      0.2244
     39  O         21.3840   14.1300   12.4830 O.2   568  PRO568     -0.2868
     40  CB        23.7280   13.3480   14.5480 C.3   568  PRO568      0.0268
     41  CG        24.5680   14.5640   14.8050 C.3   568  PRO568      0.0207
     42  CD        24.2910   15.4820   13.6770 C.3   568  PRO568      0.0892
     43  N         18.4840   12.3300   14.0590 N.3   570  TRP570     -0.1241
     44  CA        17.5430   12.1540   15.1570 C.3   570  TRP570      0.1605
     45  C         16.4710   11.2160   14.6330 C.2   570  TRP570      0.2264
     46  O         15.7810   11.5530   13.6820 O.2   570  TRP570     -0.2867
     47  CB        16.9190   13.4940   15.5440 C.3   570  TRP570      0.0550
     48  CG        15.9440   13.4200   16.6900 C.ar  570  TRP570      0.0003
     49  CD1       14.6580   12.9610   16.6490 C.ar  570  TRP570      0.0946
     50  CD2       16.1810   13.8290   18.0430 C.ar  570  TRP570      0.0152
     51  NE1       14.0810   13.0480   17.8950 N.ar  570  TRP570     -0.2442
     52  CE2       14.9920   13.5840   18.7680 C.ar  570  TRP570      0.0810
     53  CE3       17.2830   14.3760   18.7160 C.ar  570  TRP570      0.0012
     54  CZ2       14.8750   13.8720   20.1340 C.ar  570  TRP570      0.0191
     55  CZ3       17.1650   14.6620   20.0720 C.ar  570  TRP570      0.0001
     56  CH2       15.9680   14.4100   20.7650 C.ar  570  TRP570      0.0015
     57  N         19.6930    8.5780   18.2270 N.3   589  ILE589     -0.1245
     58  CA        20.5640    9.4170   17.4060 C.3   589  ILE589      0.1561
     59  C         21.4870    8.4910   16.6340 C.2   589  ILE589      0.2260
     60  O         22.1620    7.6570   17.2350 O.2   589  ILE589     -0.2867
     61  CB        21.4030   10.4120   18.2670 C.3   589  ILE589      0.0252
     62  CG1       20.5150   11.5480   18.7920 C.3   589  ILE589      0.0019
     63  CG2       22.6000   10.9600   17.4820 C.3   589  ILE589      0.0019
     64  CD1       21.0350   12.2040   20.0330 C.3   589  ILE589      0.0001
     65  N         24.7740    8.6250   14.3570 N.3   591  LYS591     -0.1245
     66  CA        25.8430    9.5770   14.0350 C.3   591  LYS591      0.1561
     67  C         26.9870    8.9860   13.2170 C.2   591  LYS591      0.2260
     68  O         27.5110    7.9220   13.5510 O.2   591  LYS591     -0.2867
     69  CB        26.3930   10.2450   15.3010 C.3   591  LYS591      0.0271
     70  CG        27.3050   11.4290   15.0140 C.3   591  LYS591      0.0035
     71  CD        27.8970   12.0430   16.2740 C.3   591  LYS591      0.0206
     72  CE        28.9670   13.0670   15.9150 C.3   591  LYS591      0.1093
     73  NZ        29.3970   13.9090   17.0680 N.3   591  LYS591     -0.1314
     74  N         32.2830   10.6870   13.7540 N.3   594  ASP594     -0.1239
     75  CA        33.0400   10.5270   14.9890 C.3   594  ASP594      0.1674
     76  C         33.2060    9.0350   15.2810 C.2   594  ASP594      0.2266
     77  O         32.2940    8.2390   15.0300 O.2   594  ASP594     -0.2867
     78  CB        32.3140   11.2010   16.1690 C.3   594  ASP594      0.1410
     79  CG        32.6040   12.7070   16.2850 C.2   594  ASP594      0.3668
     80  OD1       33.3690   13.2670   15.4640 O.co2 594  ASP594     -0.2456
     81  OD2       32.0580   13.3390   17.2230 O.co2 594  ASP594     -0.2456
     82  N         33.0070    6.5650   18.0140 N.3   596  LEU596     -0.1245
     83  CA        32.2360    6.6270   19.2710 C.3   596  LEU596      0.1561
     84  C         32.7930    5.8020   20.4200 C.2   596  LEU596      0.2260
     85  O         32.2990    5.8820   21.5400 O.2   596  LEU596     -0.2867
     86  CB        30.7710    6.2520   19.0250 C.3   596  LEU596      0.0270
     87  CG        29.9790    7.2350   18.1540 C.3   596  LEU596      0.0019
     88  CD1       28.5410    6.7870   18.0110 C.3   596  LEU596      0.0001
     89  CD2       30.0510    8.6570   18.7130 C.3   596  LEU596      0.0001
     90  N         33.3750    7.6370   23.6150 N.3   599  ASP599     -0.1239
     91  CA        32.1610    7.8820   24.3840 C.3   599  ASP599      0.1674
     92  C         31.7030    6.6270   25.1160 C.2   599  ASP599      0.2266
     93  O         31.2740    6.7030   26.2750 O.2   599  ASP599     -0.2867
     94  CB        31.0440    8.4150   23.4940 C.3   599  ASP599      0.1410
     95  CG        31.3150    9.8250   22.9980 C.2   599  ASP599      0.3668
     96  OD1       32.1650    9.9880   22.0840 O.co2 599  ASP599     -0.2456
     97  OD2       30.6670   10.7650   23.5150 O.co2 599  ASP599     -0.2456
     98  N         23.5850    6.9780   29.3330 N.3   625  TYR625     -0.1241
     99  CA        22.7460    6.4830   28.2390 C.3   625  TYR625      0.1605
    100  C         23.4630    5.4930   27.3190 C.2   625  TYR625      0.2264
    101  O         24.6890    5.3930   27.3210 O.2   625  TYR625     -0.2867
    102  CB        22.2280    7.6650   27.4160 C.3   625  TYR625      0.0534
    103  CG        23.3160    8.6180   26.9800 C.ar  625  TYR625     -0.0201
    104  CD1       23.9320    8.4740   25.7420 C.ar  625  TYR625     -0.0009
    105  CD2       23.7340    9.6560   27.8040 C.ar  625  TYR625     -0.0009
    106  CE1       24.9280    9.3450   25.3290 C.ar  625  TYR625      0.0417
    107  CE2       24.7300   10.5260   27.4040 C.ar  625  TYR625      0.0417
    108  CZ        25.3230   10.3650   26.1610 C.ar  625  TYR625      0.1957
    109  OH        26.3190   11.2160   25.7410 O.3   625  TYR625     -0.2866
    110  N         23.1960    6.4130   19.5180 N.3   637  ILE637     -0.1231
    111  CA        23.0900    6.9350   20.8650 C.3   637  ILE637      0.1692
    112  C         21.6300    6.9130   21.3000 C.2   637  ILE637      0.2592
    113  O         20.7420    7.2660   20.5260 O.2   637  ILE637     -0.2718
    114  CB        23.6450    8.3720   20.9360 C.3   637  ILE637      0.0266
    115  CG1       25.1630    8.3780   20.7230 C.3   637  ILE637      0.0019
    116  CG2       23.2880    9.0330   22.2530 C.3   637  ILE637      0.0020
    117  CD1       25.5960    8.7670   19.3190 C.3   637  ILE637      0.0001
    118  N         21.3890    6.4810   22.5330 N.am  638  GLU638     -0.1966
    119  CA        20.0650    6.5350   23.1240 C.3   638  GLU638      0.1733
    120  C         19.6680    7.9860   23.3580 C.2   638  GLU638      0.2616
    121  O         20.4220    8.7500   23.9520 O.2   638  GLU638     -0.2715
    122  CB        20.0730    5.7830   24.4520 C.3   638  GLU638      0.0429
    123  CG        18.8220    5.9200   25.2930 C.3   638  GLU638      0.1163
    124  CD        18.9540    5.2500   26.6550 C.2   638  GLU638      0.3649
    125  OE1       18.0860    5.4930   27.5160 O.co2 638  GLU638     -0.2457
    126  OE2       19.9110    4.4830   26.8790 O.co2 638  GLU638     -0.2457
    127  N         18.4900    8.3660   22.8750 N.am  639  ILE639     -0.1963
    128  CA        17.9240    9.6670   23.2030 C.3   639  ILE639      0.1727
    129  C         17.2170    9.5450   24.5410 C.2   639  ILE639      0.2616
    130  O         16.3160    8.7160   24.7000 O.2   639  ILE639     -0.2715
    131  CB        16.9180   10.1630   22.1340 C.3   639  ILE639      0.0290
    132  CG1       17.6210   10.3790   20.7890 C.3   639  ILE639      0.0022
    133  CG2       16.2200   11.4360   22.6130 C.3   639  ILE639      0.0023
    134  CD1       16.6990   10.6250   19.6310 C.3   639  ILE639      0.0001
    135  N         17.6410   10.3610   25.5000 N.am  640  VAL640     -0.1977
    136  CA        17.0090   10.3990   26.8110 C.3   640  VAL640      0.1596
    137  C         15.7350   11.2200   26.6920 C.2   640  VAL640      0.2287
    138  O         15.7740   12.3700   26.2600 O.2   640  VAL640     -0.2864
    139  CB        17.9410   10.9950   27.8940 C.3   640  VAL640      0.0276
    140  CG1       17.2370   11.0490   29.2340 C.3   640  VAL640      0.0022
    141  CG2       19.2160   10.1810   28.0140 C.3   640  VAL640      0.0022
    142  N         14.1670   15.5790   27.9250 N.3   643  ALA643     -0.1245
    143  CA        15.4330   16.2030   28.2890 C.3   643  ALA643      0.1562
    144  C         15.8070   17.3610   27.3740 C.2   643  ALA643      0.2260
    145  O         15.7630   17.2410   26.1440 O.2   643  ALA643     -0.2867
    146  CB        16.5470   15.1610   28.3200 C.3   643  ALA643      0.0290
    147  N         18.8620   20.6950   26.9710 N.3   645  THR645     -0.1218
    148  CA        20.1780   21.1930   27.3660 C.3   645  THR645      0.1862
    149  C         20.0530   22.4230   28.2590 C.2   645  THR645      0.2287
    150  O         19.0100   23.0780   28.2770 O.2   645  THR645     -0.2866
    151  CB        21.0470   21.5610   26.1370 C.3   645  THR645      0.1770
    152  OG1       20.4970   22.7060   25.4710 O.3   645  THR645     -0.2211
    153  CG2       21.1460   20.3900   25.1520 C.3   645  THR645      0.0375
    154  N         19.9730   25.8020   25.9450 N.3   648  LYS648     -0.1245
    155  CA        18.6970   26.1230   25.2940 C.3   648  LYS648      0.1561
    156  C         17.7010   26.7640   26.2630 C.2   648  LYS648      0.2260
    157  O         16.8600   27.5710   25.8510 O.2   648  LYS648     -0.2867
    158  CB        18.0860   24.8980   24.6070 C.3   648  LYS648      0.0271
    159  CG        17.2780   25.2480   23.3460 C.3   648  LYS648      0.0035
    160  CD        17.0730   24.0440   22.3980 C.3   648  LYS648      0.0206
    161  CE        18.4000   23.5110   21.7950 C.3   648  LYS648      0.1093
    162  NZ        18.2100   22.5630   20.6510 N.3   648  LYS648     -0.1314
    163  N         26.0730   23.7150   26.8060 N.3   708  ASP708     -0.1225
    164  CA        25.1570   23.0940   25.8460 C.3   708  ASP708      0.1805
    165  C         25.4070   21.6000   25.7650 C.2   708  ASP708      0.2597
    166  O         24.6140   20.8640   25.1830 O.2   708  ASP708     -0.2718
    167  CB        25.2520   23.7390   24.4560 C.3   708  ASP708      0.1424
    168  CG        26.6300   23.6250   23.8370 C.2   708  ASP708      0.3668
    169  OD1       27.6290   23.6370   24.5860 O.co2 708  ASP708     -0.2456
    170  OD2       26.7060   23.5410   22.5910 O.co2 708  ASP708     -0.2456
    171  N         26.5240   21.1740   26.3520 N.am  709  ASN709     -0.1974
    172  CA        26.8730   19.7670   26.5010 C.3   709  ASN709      0.1688
    173  C         26.4800   19.2030   27.8720 C.2   709  ASN709      0.2292
    174  O         26.9700   18.1480   28.2860 O.2   709  ASN709     -0.2864
    175  CB        28.3700   19.5660   26.2550 C.3   709  ASN709      0.1181
    176  CG        28.7130   19.4620   24.7880 C.2   709  ASN709      0.2629
    177  OD1       29.8080   19.8370   24.3690 O.2   709  ASN709     -0.2716
    178  ND2       27.7830   18.9380   23.9950 N.am  709  ASN709     -0.0877
    179  N         22.8280   18.3340   29.8550 N.3   711  MET711     -0.1245
    180  CA        21.3760   18.2750   29.7260 C.3   711  MET711      0.1570
    181  C         20.6710   18.0100   31.0470 C.2   711  MET711      0.2261
    182  O         21.2950   17.5690   32.0170 O.2   711  MET711     -0.2867
    183  CB        20.9710   17.2190   28.7110 C.3   711  MET711      0.0387
    184  CG        21.3820   17.5390   27.3040 C.3   711  MET711      0.0595
    185  SD        20.5880   16.4470   26.1270 S.3   711  MET711     -0.1393
    186  CE        19.0140   17.2480   25.9290 C.3   711  MET711      0.0692
    187  N         22.4060   15.6150   33.4610 N.3   719  PHE719     -0.1241
    188  CA        23.3730   14.6720   32.8670 C.3   719  PHE719      0.1605
    189  C         24.1800   15.2850   31.7370 C.2   719  PHE719      0.2264
    190  O         23.6330   16.0070   30.9040 O.2   719  PHE719     -0.2867
    191  CB        22.6830   13.3930   32.3670 C.3   719  PHE719      0.0534
    192  CG        21.7590   13.6110   31.2040 C.ar  719  PHE719     -0.0203
    193  CD1       22.1790   13.3410   29.9090 C.ar  719  PHE719     -0.0042
    194  CD2       20.4600   14.0790   31.4060 C.ar  719  PHE719     -0.0042
    195  CE1       21.3260   13.5360   28.8300 C.ar  719  PHE719     -0.0003
    196  CE2       19.5960   14.2770   30.3300 C.ar  719  PHE719     -0.0003
    197  CZ        20.0330   14.0020   29.0390 C.ar  719  PHE719     -0.0000
    198  N         26.5850   15.1360   28.2480 N.3   721  ILE721     -0.1231
    199  CA        26.5630   14.4370   26.9640 C.3   721  ILE721      0.1692
    200  C         27.8200   14.7000   26.1300 C.2   721  ILE721      0.2592
    201  O         28.6360   15.5510   26.4690 O.2   721  ILE721     -0.2718
    202  CB        25.3360   14.8240   26.1030 C.3   721  ILE721      0.0266
    203  CG1       25.2500   16.3450   25.9130 C.3   721  ILE721      0.0019
    204  CG2       24.0520   14.2640   26.6820 C.3   721  ILE721      0.0020
    205  CD1       24.5220   16.7630   24.6240 C.3   721  ILE721      0.0001
    206  N         27.9510   13.9500   25.0380 N.am  722  ASP722     -0.1974
    207  CA        28.9630   14.1600   23.9920 C.3   722  ASP722      0.1709
    208  C         30.4170   14.2260   24.4700 C.2   722  ASP722      0.2293
    209  O         31.0840   15.2500   24.3140 O.2   722  ASP722     -0.2864
    210  CB        28.6170   15.3780   23.1240 C.3   722  ASP722      0.1436
    211  CG        29.2090   15.2860   21.7150 C.2   722  ASP722      0.3671
    212  OD1       28.6030   15.8560   20.7750 O.co2 722  ASP722     -0.2456
    213  OD2       30.2730   14.6410   21.5440 O.co2 722  ASP722     -0.2456
    214  N         32.8780   13.3110   23.1050 N.3   724  GLY724     -0.1225
    215  CA        33.6930   13.1670   21.9070 C.3   724  GLY724      0.1811
    216  C         34.8880   14.0990   21.9510 C.2   724  GLY724      0.2280
    217  O         36.0330   13.6390   21.9610 O.2   724  GLY724     -0.2866
@<TRIPOS>BOND
     1    16    14    1
     2    15    14    1
     3    14    11    1
     4    11    10    1
     5    11    12    1
     6    10     3   am
     7     3     2    1
     8     3     4    2
     9     2     1    1
    10     2     5    1
    11    13    12    2
    12    12    17   am
    13    33    32    2
    14    20    19    2
    15    39    38    2
    16    36    37    1
    17    36    42    1
    18     5     6    1
    19    38    37    1
    20    17    18    1
    21    37    40    1
    22    67    68    2
    23    67    66    1
    24    32    31    1
    25    19    18    1
    26    19    25   am
    27    42    41    1
    28    46    45    2
    29    74    75    1
    30    18    21    1
    31    28    27    2
    32    66    65    1
    33    66    69    1
    34     6     7    1
    35    43    44    1
    36    26    27    1
    37    26    25    1
    38    26    29    1
    39    27    30   am
    40    40    41    1
    41    30    31    1
    42    45    44    1
    43    31    34    1
    44     7     8    1
    45    75    76    1
    46    75    78    1
    47    21    22    1
    48    70    69    1
    49    70    71    1
    50    35    34    1
    51    77    76    2
    52    44    47    1
    53    22    23    1
    54    80    79   ar
    55    47    48    1
    56    72    71    1
    57    72    73    1
    58    78    79    1
    59    79    81   ar
    60     8     9    1
    61    59    60    2
    62    59    58    1
    63    49    48   ar
    64    49    51   ar
    65    48    50   ar
    66    23    24    1
    67    58    57    1
    68    58    61    1
    69    63    61    1
    70    51    52   ar
    71    88    87    1
    72    82    83    1
    73    50    53   ar
    74    50    52   ar
    75    87    89    1
    76    87    86    1
    77    61    62    1
    78    53    55   ar
    79    52    54   ar
    80    62    64    1
    81    86    83    1
    82    83    84    1
    83   117   115    1
    84   110   111    1
    85   134   132    1
    86    55    56   ar
    87    54    56   ar
    88    84    85    2
    89   113   112    2
    90   162   161    1
    91   115   114    1
    92   212   211   ar
    93   132   131    1
    94   111   114    1
    95   111   112    1
    96   114   116    1
    97   112   118   am
    98   213   211   ar
    99   211   210    1
   100   161   160    1
   101   215   216    1
   102   215   214    1
   103   216   217    2
   104    96    95   ar
   105   131   133    1
   106   131   128    1
   107   160   159    1
   108   118   119    1
   109   170   168   ar
   110   127   128    1
   111   127   120   am
   112    95    94    1
   113    95    97   ar
   114   210   207    1
   115   119   120    1
   116   119   122    1
   117   128   129    1
   118   159   158    1
   119   120   121    2
   120    94    91    1
   121    90    91    1
   122   168   167    1
   123   168   169   ar
   124   207   208    1
   125   207   206    1
   126   178   176   am
   127   209   208    2
   128   177   176    2
   129    91    92    1
   130   122   123    1
   131   167   164    1
   132   129   130    2
   133   129   135   am
   134   158   155    1
   135   205   203    1
   136   176   175    1
   137   206   200   am
   138    92    93    2
   139   153   151    1
   140   166   165    2
   141   123   124    1
   142   155   154    1
   143   155   156    1
   144   106   104   ar
   145   106   108   ar
   146   152   151    1
   147   135   136    1
   148   109   108    1
   149   104   103   ar
   150   165   164    1
   151   165   171   am
   152   164   163    1
   153   157   156    2
   154   203   202    1
   155   186   185    1
   156   202   204    1
   157   202   199    1
   158   185   184    1
   159   200   201    2
   160   200   199    1
   161   151   148    1
   162   145   144    2
   163   108   107   ar
   164   175   172    1
   165   138   137    2
   166   171   172    1
   167   172   173    1
   168   124   126   ar
   169   124   125   ar
   170   137   136    1
   171   136   139    1
   172   199   198    1
   173   147   148    1
   174   103   102    1
   175   103   105   ar
   176   184   183    1
   177   100   101    2
   178   100    99    1
   179   148   149    1
   180   144   143    1
   181   107   105   ar
   182   102    99    1
   183   173   174    2
   184   139   141    1
   185   139   140    1
   186   142   143    1
   187    99    98    1
   188   149   150    2
   189   143   146    1
   190   183   180    1
   191   195   197   ar
   192   195   193   ar
   193   197   196   ar
   194   180   179    1
   195   180   181    1
   196   193   192   ar
   197   196   194   ar
   198   190   189    2
   199   181   182    2
   200   192   194   ar
   201   192   191    1
   202   189   188    1
   203   191   188    1
   204   188   187    1
