@<TRIPOS>MOLECULE
tmp/4dk7C00.pdb
 204 193 0 0 0
SMALL
GASTEIGER

@<TRIPOS>ATOM
      1  N         40.6060  105.1990   50.2830 N.3    37  PHE37      -0.1241
      2  CA        40.0830  103.8520   50.4700 C.3    37  PHE37       0.1605
      3  C         38.7490  103.8930   51.1980 C.2    37  PHE37       0.2264
      4  O         37.7590  103.3260   50.7340 O.2    37  PHE37      -0.2867
      5  CB        41.0710  103.0170   51.2740 C.3    37  PHE37       0.0534
      6  CG        40.5530  101.6640   51.6450 C.ar   37  PHE37      -0.0203
      7  CD1       39.9270  100.8670   50.7030 C.ar   37  PHE37      -0.0042
      8  CD2       40.7100  101.1770   52.9310 C.ar   37  PHE37      -0.0042
      9  CE1       39.4670   99.6090   51.0380 C.ar   37  PHE37      -0.0003
     10  CE2       40.2530   99.9200   53.2740 C.ar   37  PHE37      -0.0003
     11  CZ        39.6320   99.1350   52.3270 C.ar   37  PHE37      -0.0000
     12  N         35.8550  104.8600   49.1850 N.3    40  PHE40      -0.1227
     13  CA        35.2780  103.8330   48.3300 C.3    40  PHE40       0.1736
     14  C         34.3960  102.8780   49.1240 C.2    40  PHE40       0.2596
     15  O         33.2690  102.5880   48.7190 O.2    40  PHE40      -0.2718
     16  CB        36.3830  103.0520   47.6090 C.3    40  PHE40       0.0547
     17  CG        36.7710  103.6360   46.2700 C.ar   40  PHE40      -0.0202
     18  CD1       37.8420  103.1210   45.5540 C.ar   40  PHE40      -0.0042
     19  CD2       36.0610  104.7000   45.7260 C.ar   40  PHE40      -0.0042
     20  CE1       38.1980  103.6560   44.3220 C.ar   40  PHE40      -0.0003
     21  CE2       36.4150  105.2380   44.4930 C.ar   40  PHE40      -0.0003
     22  CZ        37.4830  104.7150   43.7950 C.ar   40  PHE40      -0.0000
     23  N         34.9040  102.4040   50.2610 N.am   41  THR41      -0.1953
     24  CA        34.1680  101.4390   51.0690 C.3    41  THR41       0.1897
     25  C         32.8220  102.0280   51.4560 C.2    41  THR41       0.2313
     26  O         31.8710  101.3010   51.7350 O.2    41  THR41      -0.2863
     27  CB        34.9270  101.0560   52.3580 C.3    41  THR41       0.1794
     28  OG1       34.9690  102.1770   53.2400 O.3    41  THR41      -0.2208
     29  CG2       36.3450  100.6360   52.0400 C.3    41  THR41       0.0378
     30  N         31.1590  104.1100   49.4270 N.3    43  LEU43      -0.1231
     31  CA        30.3610  104.0520   48.2140 C.3    43  LEU43       0.1693
     32  C         29.7480  102.6570   48.1110 C.2    43  LEU43       0.2591
     33  O         28.5560  102.5040   47.8330 O.2    43  LEU43      -0.2718
     34  CB        31.2360  104.3470   46.9950 C.3    43  LEU43       0.0284
     35  CG        31.7000  105.7940   46.8130 C.3    43  LEU43       0.0019
     36  CD1       32.4410  105.9050   45.4940 C.3    43  LEU43       0.0001
     37  CD2       30.5080  106.7420   46.8280 C.3    43  LEU43       0.0001
     38  N         30.5730  101.6480   48.3680 N.am   44  ALA44      -0.1980
     39  CA        30.1210  100.2610   48.4110 C.3    44  ALA44       0.1597
     40  C         28.9620  100.0720   49.3950 C.2    44  ALA44       0.2287
     41  O         27.9170   99.5260   49.0400 O.2    44  ALA44      -0.2864
     42  CB        31.2880   99.3530   48.7880 C.3    44  ALA44       0.0319
     43  N         25.8380  101.4990   47.8890 N.3    47  SER47      -0.1217
     44  CA        25.2170  100.7190   46.8270 C.3    47  SER47       0.1889
     45  C         24.6060   99.4200   47.3670 C.2    47  SER47       0.2288
     46  O         23.5090   99.0370   46.9460 O.2    47  SER47      -0.2866
     47  CB        26.2100  100.4350   45.6850 C.3    47  SER47       0.2089
     48  OG        27.4620   99.9760   46.1520 O.3    47  SER47      -0.2183
     49  N         28.2120   92.1790   44.7990 N.3    78  ILE78      -0.1245
     50  CA        29.3520   92.6950   44.0620 C.3    78  ILE78       0.1561
     51  C         29.0750   92.6120   42.5620 C.2    78  ILE78       0.2260
     52  O         29.4340   93.5070   41.7960 O.2    78  ILE78      -0.2867
     53  CB        30.6320   91.9010   44.3740 C.3    78  ILE78       0.0252
     54  CG1       31.8160   92.5310   43.6450 C.3    78  ILE78       0.0019
     55  CG2       30.4770   90.4590   43.9180 C.3    78  ILE78       0.0019
     56  CD1       31.9610   94.0170   43.8910 C.3    78  ILE78       0.0001
     57  N         29.0500   95.7750   39.8480 N.3    81  LEU81      -0.1245
     58  CA        29.8710   95.9080   38.6530 C.3    81  LEU81       0.1561
     59  C         29.0220   96.2050   37.4200 C.2    81  LEU81       0.2260
     60  O         29.4630   96.8900   36.4960 O.2    81  LEU81      -0.2867
     61  CB        30.6810   94.6340   38.4420 C.3    81  LEU81       0.0270
     62  CG        31.7470   94.4020   39.5090 C.3    81  LEU81       0.0019
     63  CD1       32.1420   92.9430   39.5330 C.3    81  LEU81       0.0001
     64  CD2       32.9480   95.2720   39.2240 C.3    81  LEU81       0.0001
     65  N         26.2480   98.0650   37.6480 N.3    83  GLU83      -0.1231
     66  CA        25.9400   99.4810   37.8170 C.3    83  GLU83       0.1699
     67  C         27.1220  100.3650   37.4440 C.2    83  GLU83       0.2592
     68  O         26.9520  101.3950   36.7990 O.2    83  GLU83      -0.2718
     69  CB        25.5150   99.7730   39.2570 C.3    83  GLU83       0.0402
     70  CG        24.1100   99.3040   39.5900 C.3    83  GLU83       0.1161
     71  CD        23.0870   99.6650   38.5180 C.2    83  GLU83       0.3649
     72  OE1       22.2210  100.5240   38.7850 O.co2  83  GLU83      -0.2457
     73  OE2       23.1450   99.0830   37.4110 O.co2  83  GLU83      -0.2457
     74  N         28.3180   99.9660   37.8480 N.am   84  THR84      -0.1953
     75  CA        29.5130  100.6660   37.4160 C.3    84  THR84       0.1897
     76  C         29.5620  100.6850   35.8920 C.2    84  THR84       0.2313
     77  O         29.6270  101.7530   35.2760 O.2    84  THR84      -0.2863
     78  CB        30.7800   99.9770   37.9590 C.3    84  THR84       0.1794
     79  OG1       30.8090  100.1050   39.3830 O.3    84  THR84      -0.2208
     80  CG2       32.0360  100.5990   37.3780 C.3    84  THR84       0.0378
     81  N         27.5100  103.1310   34.1400 N.3    87  ARG87      -0.1245
     82  CA        27.7830  104.5490   34.3480 C.3    87  ARG87       0.1563
     83  C         29.1880  104.9040   33.8700 C.2    87  ARG87       0.2260
     84  O         29.8140  105.8330   34.3820 O.2    87  ARG87      -0.2867
     85  CB        27.6490  104.9030   35.8320 C.3    87  ARG87       0.0307
     86  CG        26.3140  104.5370   36.4640 C.3    87  ARG87       0.0489
     87  CD        26.4450  104.5300   37.9810 C.3    87  ARG87       0.2205
     88  NE        25.3390  103.8420   38.6420 N.pl3  87  ARG87      -0.0865
     89  CZ        25.3130  103.5510   39.9420 C.cat  87  ARG87       0.5346
     90  NH1       24.2630  102.9240   40.4640 N.pl3  87  ARG87       0.1354
     91  NH2       26.3380  103.8820   40.7210 N.pl3  87  ARG87       0.1354
     92  N         29.5720  108.3050   39.7870 N.3    97  PHE97      -0.1241
     93  CA        28.9940  107.4530   40.8050 C.3    97  PHE97       0.1605
     94  C         27.6830  107.7970   41.4950 C.2    97  PHE97       0.2264
     95  O         26.7840  106.9630   41.5230 O.2    97  PHE97      -0.2867
     96  CB        30.0540  107.0900   41.8390 C.3    97  PHE97       0.0534
     97  CG        30.6710  105.7400   41.5860 C.ar   97  PHE97      -0.0203
     98  CD1       31.9780  105.4550   41.9510 C.ar   97  PHE97      -0.0042
     99  CD2       29.9300  104.7550   40.9370 C.ar   97  PHE97      -0.0042
    100  CE1       32.5350  104.2100   41.6700 C.ar   97  PHE97      -0.0003
    101  CE2       30.4770  103.5240   40.6570 C.ar   97  PHE97      -0.0003
    102  CZ        31.7820  103.2510   41.0240 C.ar   97  PHE97      -0.0000
    103  N         41.2360  105.0830   40.9930 N.3   108  PHE108     -0.1241
    104  CA        41.1380  103.7410   41.5590 C.3   108  PHE108      0.1605
    105  C         42.4970  103.2520   42.0360 C.2   108  PHE108      0.2264
    106  O         42.5960  102.4790   42.9910 O.2   108  PHE108     -0.2867
    107  CB        40.5970  102.7600   40.5160 C.3   108  PHE108      0.0534
    108  CG        39.1230  102.8900   40.2630 C.ar  108  PHE108     -0.0203
    109  CD1       38.5790  104.0910   39.8440 C.ar  108  PHE108     -0.0042
    110  CD2       38.2790  101.8070   40.4400 C.ar  108  PHE108     -0.0042
    111  CE1       37.2230  104.2100   39.6060 C.ar  108  PHE108     -0.0003
    112  CE2       36.9220  101.9210   40.2030 C.ar  108  PHE108     -0.0003
    113  CZ        36.3950  103.1240   39.7860 C.ar  108  PHE108     -0.0000
    114  N         43.5710  100.1770   45.1660 N.3   113  LEU113     -0.1245
    115  CA        43.2010   98.9890   44.4080 C.3   113  LEU113      0.1561
    116  C         44.3330   98.6200   43.4520 C.2   113  LEU113      0.2260
    117  O         45.1140   99.4840   43.0520 O.2   113  LEU113     -0.2867
    118  CB        41.9190   99.2570   43.6240 C.3   113  LEU113      0.0270
    119  CG        40.8600  100.0740   44.3700 C.3   113  LEU113      0.0019
    120  CD1       39.5550  100.0390   43.5940 C.3   113  LEU113      0.0001
    121  CD2       40.6550   99.5160   45.7630 C.3   113  LEU113      0.0001
    122  N         42.7660   93.9380   39.4540 N.3   117  PHE117     -0.1241
    123  CA        41.3420   94.1250   39.6890 C.3   117  PHE117      0.1605
    124  C         40.8110   95.3480   38.9530 C.2   117  PHE117      0.2264
    125  O         39.7020   95.3240   38.4210 O.2   117  PHE117     -0.2867
    126  CB        41.0760   94.2580   41.1940 C.3   117  PHE117      0.0534
    127  CG        39.6270   94.4780   41.5460 C.ar  117  PHE117     -0.0203
    128  CD1       38.6270   93.7270   40.9470 C.ar  117  PHE117     -0.0042
    129  CD2       39.2680   95.4240   42.4910 C.ar  117  PHE117     -0.0042
    130  CE1       37.2990   93.9180   41.2840 C.ar  117  PHE117     -0.0003
    131  CE2       37.9430   95.6190   42.8330 C.ar  117  PHE117     -0.0003
    132  CZ        36.9570   94.8630   42.2300 C.ar  117  PHE117     -0.0000
    133  N         37.8970   95.5830   35.4530 N.3   121  ILE121     -0.1245
    134  CA        36.6680   96.3180   35.7080 C.3   121  ILE121      0.1561
    135  C         36.3870   97.2360   34.5390 C.2   121  ILE121      0.2260
    136  O         35.2430   97.3620   34.0870 O.2   121  ILE121     -0.2867
    137  CB        36.7750   97.1620   36.9840 C.3   121  ILE121      0.0252
    138  CG1       36.9050   96.2420   38.1960 C.3   121  ILE121      0.0019
    139  CG2       35.5620   98.0550   37.1260 C.3   121  ILE121      0.0019
    140  CD1       37.0160   96.9770   39.5050 C.3   121  ILE121      0.0001
    141  N         37.4830   90.2270   42.6170 N.3   200  HIS200     -0.1241
    142  CA        37.1970   91.1820   43.6740 C.3   200  HIS200      0.1621
    143  C         37.5980   90.6270   45.0350 C.2   200  HIS200      0.2264
    144  O         38.1380   91.3450   45.8720 O.2   200  HIS200     -0.2867
    145  CB        35.7160   91.5400   43.7030 C.3   200  HIS200      0.0745
    146  CG        35.3150   92.2920   44.9340 C.ar  200  HIS200      0.0817
    147  ND1       34.6000   91.7120   45.9620 N.ar  200  HIS200     -0.2268
    148  CD2       35.5670   93.5640   45.3230 C.ar  200  HIS200      0.1154
    149  CE1       34.4310   92.5930   46.9310 C.ar  200  HIS200      0.1986
    150  NE2       35.0090   93.7250   46.5690 N.ar  200  HIS200     -0.2212
    151  N         41.1710   90.9710   45.5590 N.3   203  GLN203     -0.1231
    152  CA        41.4310   92.3620   45.8780 C.3   203  GLN203      0.1698
    153  C         41.2320   92.5920   47.3680 C.2   203  GLN203      0.2592
    154  O         41.9850   93.3310   47.9980 O.2   203  GLN203     -0.2718
    155  CB        40.4840   93.2700   45.0960 C.3   203  GLN203      0.0381
    156  CG        40.4210   94.6960   45.6210 C.3   203  GLN203      0.0905
    157  CD        41.7020   95.4690   45.3770 C.2   203  GLN203      0.2608
    158  OE1       41.8670   96.1150   44.3370 O.2   203  GLN203     -0.2717
    159  NE2       42.6190   95.4090   46.3360 N.am  203  GLN203     -0.0878
    160  N         40.2100   91.9580   47.9290 N.am  204  VAL204     -0.1980
    161  CA        39.9150   92.1200   49.3420 C.3   204  VAL204      0.1595
    162  C         40.9860   91.4540   50.1910 C.2   204  VAL204      0.2287
    163  O         41.5180   92.0650   51.1160 O.2   204  VAL204     -0.2864
    164  CB        38.5420   91.5290   49.6910 C.3   204  VAL204      0.0276
    165  CG1       38.3570   91.4990   51.1960 C.3   204  VAL204      0.0022
    166  CG2       37.4470   92.3670   49.0500 C.3   204  VAL204      0.0022
    167  N         44.1440   93.5750   50.3950 N.3   207  LEU207     -0.1245
    168  CA        44.1080   94.6580   51.3700 C.3   207  LEU207      0.1561
    169  C         44.3920   94.1740   52.7870 C.2   207  LEU207      0.2260
    170  O         44.7860   94.9590   53.6490 O.2   207  LEU207     -0.2867
    171  CB        42.7460   95.3480   51.3390 C.3   207  LEU207      0.0270
    172  CG        42.3920   96.0110   50.0130 C.3   207  LEU207      0.0019
    173  CD1       41.0900   96.7700   50.1560 C.3   207  LEU207      0.0001
    174  CD2       43.5120   96.9430   49.6070 C.3   207  LEU207      0.0001
    175  N         38.0870   96.8130   55.6890 N.3   214  LEU214     -0.1245
    176  CA        36.7650   97.3720   55.4270 C.3   214  LEU214      0.1561
    177  C         35.9040   97.3600   56.6770 C.2   214  LEU214      0.2260
    178  O         36.1370   96.5770   57.5900 O.2   214  LEU214     -0.2867
    179  CB        36.0700   96.5770   54.3160 C.3   214  LEU214      0.0270
    180  CG        36.6720   95.2050   53.9990 C.3   214  LEU214      0.0019
    181  CD1       36.7650   94.3700   55.2700 C.3   214  LEU214      0.0001
    182  CD2       35.8230   94.5070   52.9580 C.3   214  LEU214      0.0001
    183  N         30.6850   95.4990   55.7980 N.3   218  LEU218     -0.1245
    184  CA        31.0780   94.9990   54.4760 C.3   218  LEU218      0.1561
    185  C         31.9060   93.7470   54.6500 C.2   218  LEU218      0.2260
    186  O         31.8650   92.8400   53.8270 O.2   218  LEU218     -0.2867
    187  CB        31.9150   96.0310   53.7130 C.3   218  LEU218      0.0270
    188  CG        31.2170   97.2680   53.1480 C.3   218  LEU218      0.0019
    189  CD1       32.1760   98.0000   52.2160 C.3   218  LEU218      0.0001
    190  CD2       29.9570   96.8550   52.3930 C.3   218  LEU218      0.0001
    191  N         32.0580   90.1220   52.5400 N.3   222  TRP222     -0.1241
    192  CA        33.1340   89.8370   51.5950 C.3   222  TRP222      0.1605
    193  C         34.4270   89.1980   52.1040 C.2   222  TRP222      0.2264
    194  O         35.3480   88.9890   51.3170 O.2   222  TRP222     -0.2867
    195  CB        33.5090   91.1090   50.8430 C.3   222  TRP222      0.0550
    196  CG        32.4890   91.5290   49.8730 C.ar  222  TRP222      0.0003
    197  CD1       31.6830   90.7170   49.1270 C.ar  222  TRP222      0.0946
    198  CD2       32.1540   92.8700   49.5150 C.ar  222  TRP222      0.0152
    199  NE1       30.8650   91.4740   48.3250 N.ar  222  TRP222     -0.2442
    200  CE2       31.1360   92.8010   48.5420 C.ar  222  TRP222      0.0810
    201  CE3       32.6180   94.1250   49.9200 C.ar  222  TRP222      0.0012
    202  CZ2       30.5740   93.9380   47.9660 C.ar  222  TRP222      0.0191
    203  CZ3       32.0580   95.2560   49.3460 C.ar  222  TRP222      0.0001
    204  CH2       31.0490   95.1530   48.3800 C.ar  222  TRP222      0.0015
@<TRIPOS>BOND
     1    83    82    1
     2    83    84    2
     3   136   135    2
     4    81    82    1
     5    82    85    1
     6   135   134    1
     7    77    76    2
     8   133   134    1
     9   134   137    1
    10    85    86    1
    11    76    75    1
    12    86    87    1
    13    60    59    2
    14    68    67    2
    15   137   139    1
    16   137   138    1
    17    80    78    1
    18    73    71   ar
    19    75    74    1
    20    75    78    1
    21    59    58    1
    22    67    66    1
    23    67    74   am
    24    65    66    1
    25    66    69    1
    26    78    79    1
    27    87    88    1
    28   138   140    1
    29   125   124    2
    30    61    58    1
    31    61    62    1
    32    71    72   ar
    33    71    70    1
    34    88    89    2
    35    58    57    1
    36   124   123    1
    37    64    62    1
    38    69    70    1
    39   122   123    1
    40    62    63    1
    41   111   113   ar
    42   111   109   ar
    43   123   126    1
    44   113   112   ar
    45    92    93    1
    46   109   108   ar
    47    89    90    1
    48    89    91    1
    49   112   110   ar
    50   108   110   ar
    51   108   107    1
    52   107   104    1
    53   101    99   ar
    54   101   102   ar
    55    93    94    1
    56    93    96    1
    57    99    97   ar
    58   128   130   ar
    59   128   127   ar
    60   103   104    1
    61   102   100   ar
    62   126   127    1
    63   130   132   ar
    64    94    95    2
    65   127   129   ar
    66   104   105    1
    67    97    96    1
    68    97    98   ar
    69   100    98   ar
    70    52    51    2
    71   105   106    2
    72   132   131   ar
    73   129   131   ar
    74    51    50    1
    75   141   142    1
    76   117   116    2
    77   116   115    1
    78   120   119    1
    79   118   119    1
    80   118   115    1
    81    54    56    1
    82    54    53    1
    83   142   145    1
    84   142   143    1
    85   145   146    1
    86    22    20   ar
    87    22    21   ar
    88    55    53    1
    89    50    53    1
    90    50    49    1
    91    20    18   ar
    92   158   157    2
    93   119   121    1
    94   115   114    1
    95    21    19   ar
    96   146   148   ar
    97   146   147   ar
    98   143   144    2
    99   155   156    1
   100   155   152    1
   101   148   150   ar
   102   157   156    1
   103   157   159   am
   104    36    35    1
   105    18    17   ar
   106   151   152    1
   107    47    48    1
   108    47    44    1
   109    19    17   ar
   110   152   153    1
   111   147   149   ar
   112    17    16    1
   113   150   149   ar
   114    35    37    1
   115    35    34    1
   116    44    45    1
   117    44    43    1
   118    46    45    2
   119    34    31    1
   120   153   160   am
   121   153   154    2
   122    16    13    1
   123    33    32    2
   124   160   161    1
   125   202   204   ar
   126   202   200   ar
   127    32    31    1
   128    32    38   am
   129    31    30    1
   130   199   200   ar
   131   199   197   ar
   132    13    14    1
   133    13    12    1
   134    38    39    1
   135   204   203   ar
   136    39    42    1
   137    39    40    1
   138   200   198   ar
   139    15    14    2
   140    41    40    2
   141   166   164    1
   142    14    23   am
   143   197   196   ar
   144   161   164    1
   145   161   162    1
   146   203   201   ar
   147   198   196   ar
   148   198   201   ar
   149   174   172    1
   150   164   165    1
   151   196   195    1
   152   172   173    1
   153   172   171    1
   154   162   163    2
   155    23    24    1
   156     1     2    1
   157   167   168    1
   158     2     3    1
   159     2     5    1
   160     7     9   ar
   161     7     6   ar
   162     4     3    2
   163   195   192    1
   164     9    11   ar
   165    24    25    1
   166    24    27    1
   167     5     6    1
   168   194   193    2
   169   171   168    1
   170   168   169    1
   171    25    26    2
   172   192   193    1
   173   192   191    1
   174     6     8   ar
   175    29    27    1
   176   189   188    1
   177    11    10   ar
   178    27    28    1
   179   190   188    1
   180   169   170    2
   181     8    10   ar
   182   182   180    1
   183   188   187    1
   184   187   184    1
   185   186   185    2
   186   180   179    1
   187   180   181    1
   188   179   176    1
   189   184   185    1
   190   184   183    1
   191   176   175    1
   192   176   177    1
   193   177   178    2
