@<TRIPOS>MOLECULE
tmp/4dk8A00.pdb
 224 213 0 0 0
SMALL
GASTEIGER

@<TRIPOS>ATOM
      1  N         46.5120   60.2760   47.3520 N.3    43  PHE43      -0.1241
      2  CA        46.8620   61.5270   46.6900 C.3    43  PHE43       0.1605
      3  C         47.3990   61.2010   45.3040 C.2    43  PHE43       0.2264
      4  O         47.1360   61.9140   44.3330 O.2    43  PHE43      -0.2867
      5  CB        47.9360   62.2610   47.4900 C.3    43  PHE43       0.0534
      6  CG        48.3720   63.5630   46.8830 C.ar   43  PHE43      -0.0203
      7  CD1       48.0530   64.7630   47.4900 C.ar   43  PHE43      -0.0042
      8  CD2       49.1260   63.5900   45.7290 C.ar   43  PHE43      -0.0042
      9  CE1       48.4780   65.9680   46.9610 C.ar   43  PHE43      -0.0003
     10  CE2       49.5550   64.7920   45.1930 C.ar   43  PHE43      -0.0003
     11  CZ        49.2280   65.9850   45.8150 C.ar   43  PHE43      -0.0000
     12  N         44.6630   59.8310   42.7150 N.3    46  PHE46      -0.1227
     13  CA        43.8860   60.9360   42.1620 C.3    46  PHE46       0.1736
     14  C         44.6760   61.7450   41.1160 C.2    46  PHE46       0.2596
     15  O         44.2900   61.8030   39.9490 O.2    46  PHE46      -0.2718
     16  CB        43.4100   61.8650   43.2920 C.3    46  PHE46       0.0547
     17  CG        42.0150   61.5630   43.8030 C.ar   46  PHE46      -0.0202
     18  CD1       40.9990   62.5010   43.6850 C.ar   46  PHE46      -0.0042
     19  CD2       41.7240   60.3530   44.4210 C.ar   46  PHE46      -0.0042
     20  CE1       39.7250   62.2370   44.1730 C.ar   46  PHE46      -0.0003
     21  CE2       40.4460   60.0880   44.9120 C.ar   46  PHE46      -0.0003
     22  CZ        39.4520   61.0320   44.7850 C.ar   46  PHE46      -0.0000
     23  N         45.7750   62.3650   41.5330 N.am   47  THR47      -0.1953
     24  CA        46.5140   63.2730   40.6610 C.3    47  THR47       0.1897
     25  C         46.8680   62.6130   39.3530 C.2    47  THR47       0.2313
     26  O         46.9330   63.2670   38.3080 O.2    47  THR47      -0.2863
     27  CB        47.8170   63.7220   41.2930 C.3    47  THR47       0.1794
     28  OG1       48.4570   62.5850   41.8810 O.3    47  THR47      -0.2208
     29  CG2       47.5710   64.7830   42.3470 C.3    47  THR47       0.0378
     30  N         45.0590   60.1820   37.8230 N.3    49  LEU49      -0.1231
     31  CA        43.8090   60.2470   37.0660 C.3    49  LEU49       0.1693
     32  C         43.5740   61.6550   36.5170 C.2    49  LEU49       0.2591
     33  O         43.1650   61.8300   35.3700 O.2    49  LEU49      -0.2718
     34  CB        42.6260   59.8440   37.9430 C.3    49  LEU49       0.0284
     35  CG        42.5570   58.3940   38.4280 C.3    49  LEU49       0.0019
     36  CD1       41.2830   58.1960   39.2170 C.3    49  LEU49       0.0001
     37  CD2       42.5840   57.4450   37.2500 C.3    49  LEU49       0.0001
     38  N         43.8470   62.6630   37.3330 N.am   50  ALA50      -0.1980
     39  CA        43.7900   64.0350   36.8600 C.3    50  ALA50       0.1597
     40  C         44.6700   64.2700   35.6150 C.2    50  ALA50       0.2287
     41  O         44.2190   64.8810   34.6380 O.2    50  ALA50      -0.2864
     42  CB        44.1980   64.9650   37.9790 C.3    50  ALA50       0.0319
     43  N         43.0550   62.9290   32.5270 N.3    53  SER53      -0.1217
     44  CA        41.9480   63.7920   32.1340 C.3    53  SER53       0.1889
     45  C         42.4620   65.0170   31.3650 C.2    53  SER53       0.2288
     46  O         41.9790   65.3280   30.2650 O.2    53  SER53      -0.2866
     47  CB        41.1650   64.2280   33.3840 C.3    53  SER53       0.2089
     48  OG        39.7960   64.4620   33.0790 O.3    53  SER53      -0.2183
     49  N         40.1270   72.6730   34.1070 N.3    84  ILE84      -0.1245
     50  CA        39.4400   72.2240   35.2990 C.3    84  ILE84       0.1561
     51  C         37.9320   72.1820   35.0100 C.2    84  ILE84       0.2260
     52  O         37.2130   71.2420   35.4150 O.2    84  ILE84      -0.2867
     53  CB        39.7510   73.1660   36.5020 C.3    84  ILE84       0.0252
     54  CG1       39.0070   72.6880   37.7480 C.3    84  ILE84       0.0019
     55  CG2       39.3810   74.5990   36.1540 C.3    84  ILE84       0.0019
     56  CD1       39.2660   71.2460   38.0840 C.3    84  ILE84       0.0001
     57  N         36.9420   69.4900   33.1080 N.3    87  MET87      -0.1230
     58  CA        37.0900   68.3070   33.9410 C.3    87  MET87       0.1702
     59  C         35.8490   68.0940   34.7810 C.2    87  MET87       0.2592
     60  O         35.3380   66.9710   34.8900 O.2    87  MET87      -0.2718
     61  CB        38.3260   68.4250   34.8290 C.3    87  MET87       0.0401
     62  CG        39.6150   68.2100   34.0640 C.3    87  MET87       0.0596
     63  SD        41.0500   68.6220   35.0440 S.3    87  MET87      -0.1393
     64  CE        41.2150   67.1540   36.0000 C.3    87  MET87       0.0692
     65  N         35.3530   69.1870   35.3540 N.am   88  LEU88      -0.1980
     66  CA        34.1320   69.1440   36.1500 C.3    88  LEU88       0.1596
     67  C         32.9270   68.7510   35.3040 C.2    88  LEU88       0.2287
     68  O         32.0600   68.0080   35.7610 O.2    88  LEU88      -0.2864
     69  CB        33.9070   70.4990   36.7990 C.3    88  LEU88       0.0297
     70  CG        35.0520   70.7540   37.7730 C.3    88  LEU88       0.0022
     71  CD1       35.1060   72.2100   38.2100 C.3    88  LEU88       0.0001
     72  CD2       34.8650   69.8320   38.9480 C.3    88  LEU88       0.0001
     73  N         33.3520   65.1910   34.7320 N.3    91  THR91      -0.1218
     74  CA        33.0410   64.5620   36.0100 C.3    91  THR91       0.1862
     75  C         31.5290   64.4020   36.2040 C.2    91  THR91       0.2287
     76  O         31.0570   63.3850   36.7260 O.2    91  THR91      -0.2866
     77  CB        33.5870   65.3800   37.1910 C.3    91  THR91       0.1770
     78  OG1       35.0130   65.5390   37.0670 O.3    91  THR91      -0.2211
     79  CG2       33.2580   64.6680   38.4880 C.3    91  THR91       0.0375
     80  N         29.9770   61.4460   34.8470 N.3    94  ARG94      -0.1245
     81  CA        30.3040   60.2060   35.5200 C.3    94  ARG94       0.1563
     82  C         29.5140   60.0700   36.8350 C.2    94  ARG94       0.2260
     83  O         29.7460   59.1520   37.6160 O.2    94  ARG94      -0.2867
     84  CB        31.8210   60.1420   35.7760 C.3    94  ARG94       0.0307
     85  CG        32.7270   60.2020   34.5110 C.3    94  ARG94       0.0489
     86  CD        34.2300   60.3220   34.8830 C.3    94  ARG94       0.2205
     87  NE        35.0560   60.7690   33.7580 N.pl3  94  ARG94      -0.0865
     88  CZ        35.8680   61.8290   33.7850 C.cat  94  ARG94       0.5346
     89  NH1       35.9780   62.5610   34.8900 N.pl3  94  ARG94       0.1354
     90  NH2       36.5510   62.1760   32.6930 N.pl3  94  ARG94       0.1354
     91  N         35.2110   56.5700   37.5230 N.3   104  PHE104     -0.1241
     92  CA        36.3720   57.0000   36.7630 C.3   104  PHE104      0.1605
     93  C         37.0180   55.8980   35.9520 C.2   104  PHE104      0.2264
     94  O         37.3580   56.0910   34.7830 O.2   104  PHE104     -0.2867
     95  CB        37.4010   57.6420   37.6890 C.3   104  PHE104      0.0534
     96  CG        37.2330   59.1180   37.8230 C.ar  104  PHE104     -0.0203
     97  CD1       36.6680   59.6670   38.9610 C.ar  104  PHE104     -0.0042
     98  CD2       37.6070   59.9590   36.7930 C.ar  104  PHE104     -0.0042
     99  CE1       36.4760   61.0380   39.0700 C.ar  104  PHE104     -0.0003
    100  CE2       37.4210   61.3260   36.8940 C.ar  104  PHE104     -0.0003
    101  CZ        36.8540   61.8680   38.0340 C.ar  104  PHE104     -0.0000
    102  N         33.8680   56.5680   43.2780 N.3   110  TYR110     -0.1241
    103  CA        34.4010   57.3480   44.3920 C.3   110  TYR110      0.1605
    104  C         33.3110   58.1670   45.0800 C.2   110  TYR110      0.2264
    105  O         32.5950   58.9420   44.4410 O.2   110  TYR110     -0.2867
    106  CB        35.5150   58.2800   43.8980 C.3   110  TYR110      0.0534
    107  CG        36.5920   57.5560   43.1320 C.ar  110  TYR110     -0.0201
    108  CD1       36.2890   56.8790   41.9610 C.ar  110  TYR110     -0.0009
    109  CD2       37.8980   57.5060   43.6010 C.ar  110  TYR110     -0.0009
    110  CE1       37.2470   56.1630   41.2790 C.ar  110  TYR110      0.0417
    111  CE2       38.8710   56.7940   42.9270 C.ar  110  TYR110      0.0417
    112  CZ        38.5390   56.1180   41.7640 C.ar  110  TYR110      0.1957
    113  OH        39.4790   55.3620   41.0890 O.3   110  TYR110     -0.2866
    114  N         37.0350   61.1710   48.1670 N.3   115  PHE115     -0.1241
    115  CA        37.6560   62.4480   47.8440 C.3   115  PHE115      0.1605
    116  C         38.3870   63.0020   49.0670 C.2   115  PHE115      0.2264
    117  O         39.4220   63.6500   48.9420 O.2   115  PHE115     -0.2867
    118  CB        36.5990   63.4600   47.3830 C.3   115  PHE115      0.0534
    119  CG        36.2400   63.3620   45.9220 C.ar  115  PHE115     -0.0203
    120  CD1       35.7700   62.1720   45.3810 C.ar  115  PHE115     -0.0042
    121  CD2       36.3480   64.4730   45.0970 C.ar  115  PHE115     -0.0042
    122  CE1       35.4110   62.0920   44.0390 C.ar  115  PHE115     -0.0003
    123  CE2       35.9950   64.4030   43.7640 C.ar  115  PHE115     -0.0003
    124  CZ        35.5230   63.2080   43.2320 C.ar  115  PHE115     -0.0000
    125  N         41.6240   61.4300   50.2410 N.3   118  ALA118     -0.1231
    126  CA        42.6160   61.6480   49.2010 C.3   118  ALA118      0.1694
    127  C         43.2620   63.0230   49.3080 C.2   118  ALA118      0.2593
    128  O         43.9710   63.4500   48.3940 O.2   118  ALA118     -0.2718
    129  CB        41.9850   61.4700   47.8340 C.3   118  ALA118      0.0304
    130  N         43.0100   63.7160   50.4180 N.am  119  GLY119     -0.1942
    131  CA        43.6720   64.9890   50.6660 C.3   119  GLY119      0.2014
    132  C         42.8790   66.2330   50.3050 C.2   119  GLY119      0.2638
    133  O         43.3990   67.3510   50.3760 O.2   119  GLY119     -0.2714
    134  N         41.6190   66.0540   49.9160 N.am  120  LEU120     -0.1977
    135  CA        40.7950   67.1740   49.4840 C.3   120  LEU120      0.1596
    136  C         39.8930   67.6710   50.5980 C.2   120  LEU120      0.2287
    137  O         39.3070   66.8810   51.3450 O.2   120  LEU120     -0.2864
    138  CB        39.9590   66.7580   48.2830 C.3   120  LEU120      0.0297
    139  CG        40.7740   66.4980   47.0140 C.3   120  LEU120      0.0022
    140  CD1       39.9470   65.6860   46.0220 C.3   120  LEU120      0.0001
    141  CD2       41.2170   67.8280   46.4060 C.3   120  LEU120      0.0001
    142  N         35.9020   72.0700   48.9550 N.3   124  PHE124     -0.1241
    143  CA        36.0730   71.7360   47.5410 C.3   124  PHE124      0.1605
    144  C         35.0510   70.6690   47.1460 C.2   124  PHE124      0.2264
    145  O         34.3680   70.7900   46.1240 O.2   124  PHE124     -0.2867
    146  CB        37.5100   71.2220   47.3000 C.3   124  PHE124      0.0534
    147  CG        37.8280   70.9070   45.8500 C.ar  124  PHE124     -0.0203
    148  CD1       38.0270   71.9300   44.9210 C.ar  124  PHE124     -0.0042
    149  CD2       37.9410   69.5860   45.4180 C.ar  124  PHE124     -0.0042
    150  CE1       38.3310   71.6410   43.5860 C.ar  124  PHE124     -0.0003
    151  CE2       38.2410   69.2900   44.0940 C.ar  124  PHE124     -0.0003
    152  CZ        38.4370   70.3190   43.1740 C.ar  124  PHE124     -0.0000
    153  N         31.9000   70.6320   44.0320 N.3   128  ILE128     -0.1245
    154  CA        32.0810   69.7170   42.9070 C.3   128  ILE128      0.1561
    155  C         30.9070   68.7690   42.8400 C.2   128  ILE128      0.2260
    156  O         30.3510   68.5020   41.7620 O.2   128  ILE128     -0.2867
    157  CB        33.3770   68.8550   43.0480 C.3   128  ILE128      0.0252
    158  CG1       34.5550   69.5690   42.3880 C.3   128  ILE128      0.0019
    159  CG2       33.1660   67.4680   42.4500 C.3   128  ILE128      0.0019
    160  CD1       35.0420   70.7250   43.1960 C.3   128  ILE128      0.0001
    161  N         38.5600   75.7770   42.9270 N.3   210  HIS210     -0.1241
    162  CA        39.6740   74.8970   42.5950 C.3   210  HIS210      0.1621
    163  C         41.0150   75.5630   42.8890 C.2   210  HIS210      0.2264
    164  O         41.9390   74.9170   43.3800 O.2   210  HIS210     -0.2867
    165  CB        39.6240   74.4880   41.1170 C.3   210  HIS210      0.0745
    166  CG        40.7460   73.5800   40.7070 C.ar  210  HIS210      0.0817
    167  ND1       41.8430   74.0220   39.9980 N.ar  210  HIS210     -0.2268
    168  CD2       40.9620   72.2650   40.9510 C.ar  210  HIS210      0.1154
    169  CE1       42.6880   73.0210   39.8280 C.ar  210  HIS210      0.1986
    170  NE2       42.1780   71.9440   40.3980 N.ar  210  HIS210     -0.2212
    171  N         41.6850   75.3350   46.5830 N.3   213  GLN213     -0.1231
    172  CA        42.1820   73.9980   46.8740 C.3   213  GLN213      0.1698
    173  C         43.6610   73.7950   46.5070 C.2   213  GLN213      0.2592
    174  O         44.4250   73.2090   47.2770 O.2   213  GLN213     -0.2718
    175  CB        41.3160   72.9570   46.1520 C.3   213  GLN213      0.0381
    176  CG        41.7580   71.4890   46.3330 C.3   213  GLN213      0.0905
    177  CD        41.7840   71.0240   47.7940 C.2   213  GLN213      0.2608
    178  OE1       40.9330   70.2360   48.2370 O.2   213  GLN213     -0.2717
    179  NE2       42.7720   71.5030   48.5420 N.am  213  GLN213     -0.0878
    180  N         44.0730   74.2730   45.3380 N.am  214  VAL214     -0.1980
    181  CA        45.4300   73.9970   44.8840 C.3   214  VAL214      0.1595
    182  C         46.4340   74.6920   45.7880 C.2   214  VAL214      0.2287
    183  O         47.4350   74.1000   46.2020 O.2   214  VAL214     -0.2864
    184  CB        45.6490   74.4600   43.4290 C.3   214  VAL214      0.0276
    185  CG1       47.1170   74.3450   43.0560 C.3   214  VAL214      0.0022
    186  CG2       44.8310   73.6010   42.4960 C.3   214  VAL214      0.0022
    187  N         47.2170   73.3490   49.1110 N.3   217  LEU217     -0.1245
    188  CA        48.0490   72.1540   49.1370 C.3   217  LEU217      0.1561
    189  C         49.4620   72.4680   49.6080 C.2   217  LEU217      0.2260
    190  O         50.1080   71.6420   50.2540 O.2   217  LEU217     -0.2867
    191  CB        48.1040   71.5060   47.7500 C.3   217  LEU217      0.0270
    192  CG        46.8520   70.7350   47.3180 C.3   217  LEU217      0.0019
    193  CD1       47.0830   70.1370   45.9390 C.3   217  LEU217      0.0001
    194  CD2       46.5290   69.6470   48.3370 C.3   217  LEU217      0.0001
    195  N         52.2050   68.9080   43.4080 N.3   224  LEU224     -0.1245
    196  CA        51.5460   68.3730   42.2290 C.3   224  LEU224      0.1561
    197  C         52.5920   67.8810   41.2290 C.2   224  LEU224      0.2260
    198  O         53.6310   68.5170   41.0470 O.2   224  LEU224     -0.2867
    199  CB        50.6800   69.4560   41.5800 C.3   224  LEU224      0.0270
    200  CG        49.4520   69.9040   42.3670 C.3   224  LEU224      0.0019
    201  CD1       48.6990   70.9360   41.5660 C.3   224  LEU224      0.0001
    202  CD2       48.5770   68.7200   42.6650 C.3   224  LEU224      0.0001
    203  N         50.2200   68.8300   36.0050 N.3   228  LEU228     -0.1245
    204  CA        49.2520   69.5250   36.8310 C.3   228  LEU228      0.1561
    205  C         49.8780   70.8220   37.3330 C.2   228  LEU228      0.2260
    206  O         49.3340   71.9210   37.1350 O.2   228  LEU228     -0.2867
    207  CB        48.8420   68.6440   38.0120 C.3   228  LEU228      0.0270
    208  CG        48.2270   67.2890   37.6390 C.3   228  LEU228      0.0019
    209  CD1       47.7670   66.5770   38.8920 C.3   228  LEU228      0.0001
    210  CD2       47.0460   67.4750   36.6860 C.3   228  LEU228      0.0001
    211  N         48.4190   74.6450   36.8590 N.3   232  TRP232     -0.1241
    212  CA        47.6610   75.1130   38.0110 C.3   232  TRP232      0.1605
    213  C         48.3740   76.0380   38.9980 C.2   232  TRP232      0.2264
    214  O         47.7370   76.9240   39.5730 O.2   232  TRP232     -0.2867
    215  CB        47.0530   73.9250   38.7540 C.3   232  TRP232      0.0550
    216  CG        45.9260   73.2800   37.9890 C.ar  232  TRP232      0.0003
    217  CD1       45.2060   73.8310   36.9610 C.ar  232  TRP232      0.0946
    218  CD2       45.4410   71.9460   38.1460 C.ar  232  TRP232      0.0152
    219  NE1       44.3160   72.9190   36.4690 N.ar  232  TRP232     -0.2442
    220  CE2       44.4380   71.7530   37.1770 C.ar  232  TRP232      0.0810
    221  CE3       45.7600   70.8960   39.0100 C.ar  232  TRP232      0.0012
    222  CZ2       43.7520   70.5510   37.0450 C.ar  232  TRP232      0.0191
    223  CZ3       45.0790   69.7000   38.8810 C.ar  232  TRP232      0.0001
    224  CH2       44.0860   69.5370   37.9040 C.ar  232  TRP232      0.0015
@<TRIPOS>BOND
     1    46    45    2
     2    45    44    1
     3    44    43    1
     4    44    47    1
     5    90    88    1
     6    48    47    1
     7    57    58    1
     8    87    88    2
     9    87    86    1
    10    88    89    1
    11    58    59    1
    12    58    61    1
    13    62    61    1
    14    62    63    1
    15    49    50    1
    16    85    86    1
    17    85    84    1
    18    41    40    2
    19    73    74    1
    20    59    60    2
    21    59    65   am
    22    94    93    2
    23    80    81    1
    24    51    50    1
    25    51    52    2
    26    63    64    1
    27    50    53    1
    28    67    68    2
    29    67    66    1
    30    65    66    1
    31    33    32    2
    32    81    84    1
    33    81    82    1
    34    40    39    1
    35    93    92    1
    36   203   204    1
    37    74    75    1
    38    74    77    1
    39    66    69    1
    40    55    53    1
    41    75    76    2
    42   219   217   ar
    43   219   220   ar
    44    53    54    1
    45    32    31    1
    46    32    38   am
    47   210   208    1
    48    92    91    1
    49    92    95    1
    50    98   100   ar
    51    98    96   ar
    52    69    70    1
    53   204   205    1
    54   204   207    1
    55    82    83    2
    56   211   212    1
    57    39    38    1
    58    39    42    1
    59   100   101   ar
    60   217   216   ar
    61   222   220   ar
    62   222   224   ar
    63    31    30    1
    64    31    34    1
    65    78    77    1
    66   206   205    2
    67   220   218   ar
    68    77    79    1
    69    37    35    1
    70   208   207    1
    71   208   209    1
    72    95    96    1
    73    54    56    1
    74    70    71    1
    75    70    72    1
    76    96    97   ar
    77   224   223   ar
    78    34    35    1
    79   216   218   ar
    80   216   215    1
    81   212   215    1
    82   212   213    1
    83   101    99   ar
    84   218   221   ar
    85    26    25    2
    86    35    36    1
    87   223   221   ar
    88    97    99   ar
    89   213   214    2
    90    25    24    1
    91   169   167   ar
    92   169   170   ar
    93    15    14    2
    94   167   166   ar
    95   170   168   ar
    96    24    27    1
    97    24    23    1
    98   166   168   ar
    99   166   165    1
   100   198   197    2
   101   113   112    1
   102    14    23   am
   103    14    13    1
   104   165   162    1
   105   197   196    1
   106   110   112   ar
   107   110   108   ar
   108    27    28    1
   109    27    29    1
   110   201   200    1
   111   199   196    1
   112   199   200    1
   113   156   155    2
   114   112   111   ar
   115   108   107   ar
   116    13    12    1
   117    13    16    1
   118   196   195    1
   119   200   202    1
   120   158   157    1
   121   158   160    1
   122   159   157    1
   123   186   184    1
   124   162   163    1
   125   162   161    1
   126   155   154    1
   127   163   164    2
   128   154   157    1
   129   154   153    1
   130   111   109   ar
   131   185   184    1
   132   107   109   ar
   133   107   106    1
   134   152   150   ar
   135   152   151   ar
   136   124   123   ar
   137   124   122   ar
   138   102   103    1
   139    16    17    1
   140   184   181    1
   141   150   148   ar
   142    18    17   ar
   143    18    20   ar
   144   123   121   ar
   145    17    19   ar
   146   106   103    1
   147   122   120   ar
   148   151   149   ar
   149    20    22   ar
   150     4     3    2
   151   103   104    1
   152    19    21   ar
   153   105   104    2
   154    22    21   ar
   155   181   180    1
   156   181   182    1
   157   148   147   ar
   158   121   119   ar
   159    10     8   ar
   160    10    11   ar
   161     3     2    1
   162   180   173   am
   163   120   119   ar
   164   149   147   ar
   165     8     6   ar
   166   182   183    2
   167    11     9   ar
   168   147   146    1
   169   119   118    1
   170   193   192    1
   171   140   139    1
   172   145   144    2
   173   175   176    1
   174   175   172    1
   175   176   177    1
   176   141   139    1
   177   173   172    1
   178   173   174    2
   179   171   172    1
   180     2     1    1
   181     2     5    1
   182     6     5    1
   183     6     7   ar
   184     9     7   ar
   185   139   138    1
   186   144   143    1
   187   146   143    1
   188   192   191    1
   189   192   194    1
   190   118   115    1
   191   143   142    1
   192   191   188    1
   193   177   178    2
   194   177   179   am
   195   129   126    1
   196   115   114    1
   197   115   116    1
   198   138   135    1
   199   128   127    2
   200   117   116    2
   201   187   188    1
   202   188   189    1
   203   126   127    1
   204   126   125    1
   205   127   130   am
   206   135   134    1
   207   135   136    1
   208   189   190    2
   209   134   132   am
   210   132   133    2
   211   132   131    1
   212   130   131    1
   213   136   137    2
