@<TRIPOS>MOLECULE
tmp/4dkbA00.pdb
 202 191 0 0 0
SMALL
GASTEIGER

@<TRIPOS>ATOM
      1  N          3.3110   18.9110   12.6130 N.3    15  GLN15      -0.1245
      2  CA         3.2200   18.6770   14.0430 C.3    15  GLN15       0.1566
      3  C          4.2960   19.5180   14.7690 C.2    15  GLN15       0.2260
      4  O          4.0300   20.1550   15.8210 O.2    15  GLN15      -0.2867
      5  CB         3.3550   17.2320   14.3750 C.3    15  GLN15       0.0367
      6  CG         3.1350   16.9330   15.8700 C.3    15  GLN15       0.0905
      7  CD         1.7290   17.2830   16.2820 C.2    15  GLN15       0.2608
      8  OE1        0.7680   16.8850   15.5890 O.2    15  GLN15      -0.2717
      9  NE2        1.5780   17.9970   17.3980 N.am   15  GLN15      -0.0878
     10  N          3.1300   23.1230   14.8590 N.3    18  LEU18      -0.1231
     11  CA         2.0940   23.3430   15.8570 C.3    18  LEU18       0.1693
     12  C          2.7050   23.3390   17.2760 C.2    18  LEU18       0.2592
     13  O          2.3720   24.1930   18.1260 O.2    18  LEU18      -0.2718
     14  CB         1.0150   22.2900   15.7180 C.3    18  LEU18       0.0284
     15  CG        -0.1480   22.3260   16.7320 C.3    18  LEU18       0.0019
     16  CD1       -0.7990   23.7280   16.7180 C.3    18  LEU18       0.0001
     17  CD2       -1.1270   21.2000   16.4490 C.3    18  LEU18       0.0001
     18  N          3.5420   22.3650   17.5420 N.am   19  ASN19      -0.1974
     19  CA         4.2200   22.2990   18.8530 C.3    19  ASN19       0.1688
     20  C          4.9920   23.5790   19.1620 C.2    19  ASN19       0.2292
     21  O          5.0730   23.9950   20.3340 O.2    19  ASN19      -0.2864
     22  CB         5.1340   21.1010   18.9780 C.3    19  ASN19       0.1181
     23  CG         4.3770   19.7690   19.0520 C.2    19  ASN19       0.2629
     24  OD1        3.1490   19.7330   19.1170 O.2    19  ASN19      -0.2716
     25  ND2        5.0960   18.6950   18.9370 N.am   19  ASN19      -0.0877
     26  N          2.6930   26.3980   20.3190 N.3    22  VAL22      -0.1245
     27  CA         2.4560   26.2080   21.7610 C.3    22  VAL22       0.1561
     28  C          3.6570   26.6800   22.5910 C.2    22  VAL22       0.2260
     29  O          3.4920   27.4330   23.5550 O.2    22  VAL22      -0.2867
     30  CB         2.1470   24.6980   22.0560 C.3    22  VAL22       0.0252
     31  CG1        2.0490   24.4550   23.5680 C.3    22  VAL22       0.0019
     32  CG2        0.8650   24.2340   21.3100 C.3    22  VAL22       0.0019
     33  N          9.7420   24.0520   22.4870 N.3    26  TRP26      -0.1241
     34  CA         9.1380   22.8240   22.9780 C.3    26  TRP26       0.1605
     35  C         10.0740   21.6640   23.0470 C.2    26  TRP26       0.2264
     36  O          9.9730   20.8270   23.9140 O.2    26  TRP26      -0.2867
     37  CB         7.9320   22.4560   22.1130 C.3    26  TRP26       0.0550
     38  CG         8.2290   21.8570   20.7530 C.ar   26  TRP26       0.0003
     39  CD1        8.2720   22.5180   19.5290 C.ar   26  TRP26       0.0946
     40  CD2        8.3550   20.4810   20.4560 C.ar   26  TRP26       0.0152
     41  NE1        8.4930   21.6240   18.5330 N.ar   26  TRP26      -0.2442
     42  CE2        8.5450   20.3660   19.0700 C.ar   26  TRP26       0.0810
     43  CE3        8.3420   19.3250   21.2250 C.ar   26  TRP26       0.0012
     44  CZ2        8.6820   19.1470   18.4460 C.ar   26  TRP26       0.0191
     45  CZ3        8.5220   18.1060   20.5920 C.ar   26  TRP26       0.0001
     46  CH2        8.6770   18.0330   19.2250 C.ar   26  TRP26       0.0015
     47  N          9.7840   19.7910   26.6660 N.3    30  ARG30      -0.1245
     48  CA         8.9480   18.5960   26.7230 C.3    30  ARG30       0.1563
     49  C          9.8200   17.4020   26.8490 C.2    30  ARG30       0.2260
     50  O         10.9640   17.4180   26.4140 O.2    30  ARG30      -0.2867
     51  CB         8.0850   18.4870   25.4590 C.3    30  ARG30       0.0307
     52  CG         7.1350   19.6140   25.2960 C.3    30  ARG30       0.0489
     53  CD         5.8080   19.4120   26.0540 C.3    30  ARG30       0.2205
     54  NE         5.9060   19.5330   27.5030 N.pl3  30  ARG30      -0.0865
     55  CZ         5.9720   20.6630   28.1840 C.cat  30  ARG30       0.5346
     56  NH1        6.0220   20.6150   29.5140 N.pl3  30  ARG30       0.1354
     57  NH2        5.9880   21.8650   27.5780 N.pl3  30  ARG30       0.1354
     58  N          4.2610   13.0540   26.4190 N.3    35  TRP35      -0.1241
     59  CA         3.5390   12.5540   25.2650 C.3    35  TRP35       0.1605
     60  C          2.8450   11.2530   25.6310 C.2    35  TRP35       0.2264
     61  O          1.7190   11.0080   25.2140 O.2    35  TRP35      -0.2867
     62  CB         4.4350   12.4100   24.0160 C.3    35  TRP35       0.0550
     63  CG         5.1960   13.6420   23.7240 C.ar   35  TRP35       0.0003
     64  CD1        6.5580   13.8120   23.8870 C.ar   35  TRP35       0.0946
     65  CD2        4.6880   14.9040   23.3010 C.ar   35  TRP35       0.0152
     66  NE1        6.9010   15.0770   23.5990 N.ar   35  TRP35      -0.2442
     67  CE2        5.7850   15.7800   23.2230 C.ar   35  TRP35       0.0810
     68  CE3        3.4190   15.3880   22.9860 C.ar   35  TRP35       0.0012
     69  CZ2        5.6540   17.0720   22.8170 C.ar   35  TRP35       0.0191
     70  CZ3        3.2800   16.6830   22.5880 C.ar   35  TRP35       0.0001
     71  CH2        4.3950   17.5260   22.5060 C.ar   35  TRP35       0.0015
     72  N         -6.0090   11.0300   25.8670 N.3    42  GLU42      -0.1245
     73  CA        -6.8410   10.9500   24.6860 C.3    42  GLU42       0.1567
     74  C         -7.4290    9.5780   24.5150 C.2    42  GLU42       0.2260
     75  O         -8.5580    9.4390   23.9980 O.2    42  GLU42      -0.2867
     76  CB        -6.1040   11.3030   23.3810 C.3    42  GLU42       0.0388
     77  CG        -5.5550   12.7400   23.3020 C.3    42  GLU42       0.1160
     78  CD        -6.6150   13.8150   23.5130 C.2    42  GLU42       0.3649
     79  OE1       -7.7060   13.6740   22.9800 O.co2  42  GLU42      -0.2457
     80  OE2       -6.3160   14.8310   24.1540 O.co2  42  GLU42      -0.2457
     81  N        -10.4510    9.4130   26.4610 N.3    45  GLU45      -0.1245
     82  CA       -11.5270   10.1040   25.7340 C.3    45  GLU45       0.1567
     83  C        -12.1090    9.2120   24.6440 C.2    45  GLU45       0.2260
     84  O        -13.3280    9.1910   24.4410 O.2    45  GLU45      -0.2867
     85  CB       -11.0260   11.4200   25.1250 C.3    45  GLU45       0.0388
     86  CG       -10.7650   12.4570   26.1690 C.3    45  GLU45       0.1160
     87  CD        -9.9590   13.6820   25.6540 C.2    45  GLU45       0.3649
     88  OE1      -10.2140   14.1720   24.5410 O.co2  45  GLU45      -0.2457
     89  OE2       -9.0880   14.1460   26.3890 O.co2  45  GLU45      -0.2457
     90  N        -10.8150   11.5650   18.2820 N.3    70  GLU70      -0.1245
     91  CA        -9.8960   11.1000   19.3430 C.3    70  GLU70       0.1567
     92  C         -8.6700   10.3640   18.7610 C.2    70  GLU70       0.2260
     93  O         -7.5790   10.5610   19.2410 O.2    70  GLU70      -0.2867
     94  CB       -10.6040   10.1720   20.3320 C.3    70  GLU70       0.0388
     95  CG       -11.9060   10.7310   20.9470 C.3    70  GLU70       0.1160
     96  CD       -11.8170   12.0860   21.6380 C.2    70  GLU70       0.3649
     97  OE1      -10.7070   12.6680   21.7320 O.co2  70  GLU70      -0.2457
     98  OE2      -12.8890   12.5490   22.1540 O.co2  70  GLU70      -0.2457
     99  N         -6.3750   12.9600   17.4900 N.3    73  ASP73      -0.1239
    100  CA        -5.6590   13.5880   18.6120 C.3    73  ASP73       0.1674
    101  C         -4.4710   12.7200   19.0660 C.2    73  ASP73       0.2266
    102  O         -3.3710   13.2220   19.3420 O.2    73  ASP73      -0.2867
    103  CB        -6.5710   13.8430   19.7930 C.3    73  ASP73       0.1410
    104  CG        -7.5800   14.9710   19.5290 C.2    73  ASP73       0.3668
    105  OD1       -7.3670   15.8110   18.6260 O.co2  73  ASP73      -0.2456
    106  OD2       -8.6460   14.9760   20.1970 O.co2  73  ASP73      -0.2456
    107  N         -1.5370   13.2350   16.7670 N.3    76  HIS76      -0.1226
    108  CA        -0.7570   14.4460   17.0250 C.3    76  HIS76       0.1752
    109  C          0.2990   14.1570   18.0980 C.2    76  HIS76       0.2596
    110  O          1.4520   14.6120   18.0160 O.2    76  HIS76      -0.2718
    111  CB        -1.6040   15.5990   17.5580 C.3    76  HIS76       0.0759
    112  CG        -2.3820   16.3590   16.5270 C.ar   76  HIS76       0.0818
    113  ND1       -3.4480   15.8100   15.8240 N.ar   76  HIS76      -0.2268
    114  CD2       -2.2960   17.6530   16.1390 C.ar   76  HIS76       0.1154
    115  CE1       -3.9740   16.7480   15.0650 C.ar   76  HIS76       0.1986
    116  NE2       -3.3130   17.8820   15.2570 N.ar   76  HIS76      -0.2212
    117  N         -0.1260   13.4780   19.1540 N.am   77  PHE77      -0.1976
    118  CA         0.7610   13.1920   20.2690 C.3    77  PHE77       0.1639
    119  C          1.7770   12.0890   20.0110 C.2    77  PHE77       0.2290
    120  O          2.8940   12.1580   20.5360 O.2    77  PHE77      -0.2864
    121  CB        -0.0400   12.8690   21.5210 C.3    77  PHE77       0.0560
    122  CG        -0.8050   14.0420   22.0690 C.ar   77  PHE77      -0.0200
    123  CD1       -0.1820   15.2510   22.3880 C.ar   77  PHE77      -0.0042
    124  CD2       -2.1820   13.9340   22.2690 C.ar   77  PHE77      -0.0042
    125  CE1       -0.8970   16.2980   22.9320 C.ar   77  PHE77      -0.0003
    126  CE2       -2.8950   14.9750   22.8210 C.ar   77  PHE77      -0.0003
    127  CZ        -2.2800   16.1600   23.1300 C.ar   77  PHE77      -0.0000
    128  N         -7.8590   19.0360   12.2300 N.3   146  LYS146     -0.1245
    129  CA        -7.7120   19.2240   13.6850 C.3   146  LYS146      0.1561
    130  C         -6.4550   20.0220   13.9880 C.2   146  LYS146      0.2260
    131  O         -6.4340   20.8670   14.9000 O.2   146  LYS146     -0.2867
    132  CB        -7.6980   17.8870   14.4110 C.3   146  LYS146      0.0271
    133  CG        -7.6110   17.9790   15.9620 C.3   146  LYS146      0.0035
    134  CD        -8.6120   18.9750   16.5660 C.3   146  LYS146      0.0206
    135  CE        -8.5630   19.0220   18.1140 C.3   146  LYS146      0.1093
    136  NZ        -9.1130   17.8260   18.7890 N.3   146  LYS146     -0.1314
    137  N         -6.4290   23.2490   16.2260 N.3   150  ASN150     -0.1240
    138  CA        -5.4760   23.4050   17.3200 C.3   150  ASN150      0.1653
    139  C         -4.7820   24.7750   17.3100 C.2   150  ASN150      0.2266
    140  O         -4.5810   25.3870   18.3620 O.2   150  ASN150     -0.2867
    141  CB        -4.4610   22.2930   17.3020 C.3   150  ASN150      0.1155
    142  CG        -5.0170   20.9610   17.8740 C.2   150  ASN150      0.2627
    143  OD1       -5.8190   20.9640   18.7800 O.2   150  ASN150     -0.2716
    144  ND2       -4.6170   19.8540   17.3030 N.am  150  ASN150     -0.0877
    145  N         -7.3560   27.5280   18.3030 N.3   153  ARG153     -0.1231
    146  CA        -7.4620   27.5070   19.7410 C.3   153  ARG153      0.1694
    147  C         -6.3660   28.3080   20.4050 C.2   153  ARG153      0.2591
    148  O         -6.6450   29.1590   21.2750 O.2   153  ARG153     -0.2718
    149  CB        -7.4900   26.0660   20.2590 C.3   153  ARG153      0.0321
    150  CG        -8.8060   25.2940   20.0640 C.3   153  ARG153      0.0489
    151  CD        -8.5870   23.8870   20.4880 C.3   153  ARG153      0.2205
    152  NE        -9.7930   23.0760   20.4660 N.pl3 153  ARG153     -0.0865
    153  CZ        -9.8250   21.7840   20.7840 C.cat 153  ARG153      0.5346
    154  NH1       -8.7250   21.1410   21.1110 N.pl3 153  ARG153      0.1354
    155  NH2      -10.9700   21.1040   20.7160 N.pl3 153  ARG153      0.1354
    156  N         -5.1270   28.1040   19.9620 N.am  154  GLN154     -0.1979
    157  CA        -4.0070   28.8560   20.5370 C.3   154  GLN154      0.1601
    158  C         -4.1340   30.3590   20.2830 C.2   154  GLN154      0.2287
    159  O         -3.7920   31.1470   21.1430 O.2   154  GLN154     -0.2864
    160  CB        -2.6860   28.3400   19.9960 C.3   154  GLN154      0.0394
    161  CG        -2.3030   26.9360   20.4830 C.3   154  GLN154      0.0908
    162  CD        -2.1150   26.8840   21.9480 C.2   154  GLN154      0.2608
    163  OE1       -1.4100   27.7220   22.5180 O.2   154  GLN154     -0.2717
    164  NE2       -2.7820   25.9350   22.5970 N.am  154  GLN154     -0.0878
    165  N         -6.4430   29.6710   24.3360 N.3   158  TYR158     -0.1241
    166  CA        -6.4990   28.3490   24.9260 C.3   158  TYR158      0.1605
    167  C         -5.5500   28.1850   26.1020 C.2   158  TYR158      0.2264
    168  O         -5.9420   27.6450   27.1540 O.2   158  TYR158     -0.2867
    169  CB        -6.2300   27.2850   23.8790 C.3   158  TYR158      0.0534
    170  CG        -6.8880   25.9570   24.1030 C.ar  158  TYR158     -0.0201
    171  CD1       -6.1240   24.8170   24.2820 C.ar  158  TYR158     -0.0009
    172  CD2       -8.2760   25.8080   24.0000 C.ar  158  TYR158     -0.0009
    173  CE1       -6.7170   23.5970   24.4420 C.ar  158  TYR158      0.0417
    174  CE2       -8.8620   24.6070   24.1190 C.ar  158  TYR158      0.0417
    175  CZ        -8.1000   23.4940   24.3850 C.ar  158  TYR158      0.1957
    176  OH        -8.6890   22.2410   24.5610 O.3   158  TYR158     -0.2866
    177  N        -15.0310   25.6490   24.3010 N.3   165  LYS165     -0.1245
    178  CA       -15.0520   24.6010   23.2470 C.3   165  LYS165      0.1561
    179  C        -16.4700   24.3460   22.7250 C.2   165  LYS165      0.2260
    180  O        -16.6740   24.0900   21.5550 O.2   165  LYS165     -0.2867
    181  CB       -14.5260   23.2850   23.8460 C.3   165  LYS165      0.0271
    182  CG       -13.8060   22.3180   22.9290 C.3   165  LYS165      0.0035
    183  CD       -12.9570   21.2860   23.7310 C.3   165  LYS165      0.0206
    184  CE       -13.7660   20.1240   24.2780 C.3   165  LYS165      0.1093
    185  NZ       -12.8610   19.1480   24.9580 N.3   165  LYS165     -0.1314
    186  N        -19.8550   21.4880   19.7510 N.3   171  GLU171     -0.1245
    187  CA       -18.4260   21.4040   20.1280 C.3   171  GLU171      0.1567
    188  C        -17.5680   21.7700   18.9230 C.2   171  GLU171      0.2260
    189  O        -17.8480   21.3210   17.7890 O.2   171  GLU171     -0.2867
    190  CB       -18.1130   19.9840   20.5690 C.3   171  GLU171      0.0388
    191  CG       -16.7140   19.7470   21.1460 C.3   171  GLU171      0.1160
    192  CD       -16.4400   18.2540   21.2610 C.2   171  GLU171      0.3649
    193  OE1      -15.2920   17.8700   21.4930 O.co2 171  GLU171     -0.2457
    194  OE2      -17.3780   17.4490   21.0760 O.co2 171  GLU171     -0.2457
    195  N        -14.8350   20.6220   17.7280 N.3   173  ASN173     -0.1240
    196  CA       -14.4630   19.3990   17.0150 C.3   173  ASN173      0.1653
    197  C        -15.5030   18.9490   16.0180 C.2   173  ASN173      0.2266
    198  O        -15.1690   18.4960   14.9290 O.2   173  ASN173     -0.2867
    199  CB       -14.1530   18.2520   17.9430 C.3   173  ASN173      0.1155
    200  CG       -12.8270   18.4160   18.6540 C.2   173  ASN173      0.2627
    201  OD1      -11.8340   18.6700   18.0140 O.2   173  ASN173     -0.2716
    202  ND2      -12.8170   18.2640   19.9770 N.am  173  ASN173     -0.0877
@<TRIPOS>BOND
     1   128   129    1
     2     1     2    1
     3   129   130    1
     4   129   132    1
     5   130   131    2
     6     2     5    1
     7     2     3    1
     8     5     6    1
     9   132   133    1
    10     3     4    2
    11    10    11    1
    12   198   197    2
    13   115   116   ar
    14   115   113   ar
    15   116   114   ar
    16     8     7    2
    17    14    11    1
    18    14    15    1
    19   113   112   ar
    20    11    12    1
    21     6     7    1
    22   133   134    1
    23   197   196    1
    24   114   112   ar
    25   137   138    1
    26     7     9   am
    27    17    15    1
    28   112   111    1
    29   134   135    1
    30    16    15    1
    31   107   108    1
    32   196   195    1
    33   196   199    1
    34   108   111    1
    35   108   109    1
    36    12    18   am
    37    12    13    2
    38   141   138    1
    39   141   142    1
    40   144   142   am
    41   139   138    1
    42   139   140    2
    43    99   100    1
    44    18    19    1
    45   189   188    2
    46   142   143    2
    47   199   200    1
    48   201   200    2
    49   110   109    2
    50   109   117   am
    51   135   136    1
    52    90    91    1
    53   145   146    1
    54    44    42   ar
    55    44    46   ar
    56    41    42   ar
    57    41    39   ar
    58   100   101    1
    59   100   103    1
    60   105   104   ar
    61   200   202   am
    62    92    93    2
    63    92    91    1
    64    19    22    1
    65    19    20    1
    66   188   187    1
    67    25    23   am
    68    22    23    1
    69    23    24    2
    70   101   102    2
    71    42    40   ar
    72   117   118    1
    73    20    21    2
    74    46    45   ar
    75    91    94    1
    76   104   103    1
    77   104   106   ar
    78    39    38   ar
    79   146   149    1
    80   146   147    1
    81   186   187    1
    82   156   147   am
    83   156   157    1
    84   160   161    1
    85   160   157    1
    86   119   118    1
    87   119   120    2
    88   150   149    1
    89   150   151    1
    90   187   190    1
    91   118   121    1
    92   158   157    1
    93   158   159    2
    94    26    27    1
    95    94    95    1
    96   147   148    2
    97    40    38   ar
    98    40    43   ar
    99   152   151    1
   100   152   153    2
   101   161   162    1
   102   190   191    1
   103    45    43   ar
   104   155   153    1
   105    38    37    1
   106   153   154    1
   107    95    96    1
   108   194   192   ar
   109   191   192    1
   110   192   193   ar
   111    32    30    1
   112   121   122    1
   113   180   179    2
   114    96    97   ar
   115    96    98   ar
   116    27    30    1
   117    27    28    1
   118   162   163    2
   119   162   164   am
   120    30    31    1
   121   122   124   ar
   122   122   123   ar
   123    37    34    1
   124   124   126   ar
   125   123   125   ar
   126    33    34    1
   127    71    70   ar
   128    71    69   ar
   129    70    68   ar
   130    28    29    2
   131   179   178    1
   132    69    67   ar
   133   126   127   ar
   134   182   183    1
   135   182   181    1
   136   125   127   ar
   137    34    35    1
   138    79    78   ar
   139    68    65   ar
   140    35    36    2
   141    67    65   ar
   142    67    66   ar
   143   178   181    1
   144   178   177    1
   145    65    63   ar
   146    77    76    1
   147    77    78    1
   148    76    73    1
   149    78    80   ar
   150    66    64   ar
   151    63    64   ar
   152    63    62    1
   153   183   184    1
   154   169   170    1
   155   169   166    1
   156    75    74    2
   157   172   170   ar
   158   172   174   ar
   159    62    59    1
   160   170   171   ar
   161   174   175   ar
   162   184   185    1
   163   171   173   ar
   164   165   166    1
   165   175   173   ar
   166   175   176    1
   167    84    83    2
   168    74    73    1
   169    88    87   ar
   170    83    82    1
   171    73    72    1
   172   166   167    1
   173    85    82    1
   174    85    86    1
   175    61    60    2
   176    59    60    1
   177    59    58    1
   178    52    51    1
   179    52    53    1
   180    51    48    1
   181    87    86    1
   182    87    89   ar
   183    82    81    1
   184    53    54    1
   185   167   168    2
   186    50    49    2
   187    47    48    1
   188    48    49    1
   189    54    55    2
   190    57    55    1
   191    55    56    1
