@<TRIPOS>MOLECULE
tmp/4dkjA00.pdb
 223 219 0 0 0
SMALL
GASTEIGER

@<TRIPOS>ATOM
      1  N         28.5740   30.4220   45.4490 N.3    12  PHE12      -0.1227
      2  CA        28.2370   29.0780   44.9550 C.3    12  PHE12       0.1736
      3  C         26.7290   29.0200   44.7730 C.2    12  PHE12       0.2595
      4  O         26.0730   28.1270   45.2820 O.2    12  PHE12      -0.2718
      5  CB        28.7180   27.9710   45.9290 C.3    12  PHE12       0.0547
      6  CG        30.1530   28.1390   46.3860 C.ar   12  PHE12      -0.0202
      7  CD1       31.2040   27.8790   45.5180 C.ar   12  PHE12      -0.0042
      8  CD2       30.4430   28.5300   47.6900 C.ar   12  PHE12      -0.0042
      9  CE1       32.5230   28.0390   45.9260 C.ar   12  PHE12      -0.0003
     10  CE2       31.7780   28.6970   48.1150 C.ar   12  PHE12      -0.0003
     11  CZ        32.8120   28.4460   47.2390 C.ar   12  PHE12      -0.0000
     12  N         26.1980   29.9990   44.0410 N.am   13  ALA13      -0.1966
     13  CA        24.7560   30.3170   44.0370 C.3    13  ALA13       0.1728
     14  C         23.8650   29.2210   43.4440 C.2    13  ALA13       0.2617
     15  O         22.6870   29.0950   43.8030 O.2    13  ALA13      -0.2715
     16  CB        24.5200   31.6540   43.2640 C.3    13  ALA13       0.0334
     17  N         24.4160   28.4520   42.5080 N.am   14  GLY14      -0.1940
     18  CA        23.6310   27.4490   41.7740 C.3    14  GLY14       0.2014
     19  C         22.4510   28.0920   41.0690 C.2    14  GLY14       0.2639
     20  O         22.6170   29.0830   40.3710 O.2    14  GLY14      -0.2714
     21  N         21.2580   27.5260   41.2550 N.am   15  ILE15      -0.1963
     22  CA        20.0350   28.0880   40.6730 C.3    15  ILE15       0.1727
     23  C         19.2580   28.9920   41.6540 C.2    15  ILE15       0.2617
     24  O         18.1320   29.3730   41.3810 O.2    15  ILE15      -0.2715
     25  CB        19.1160   26.9890   40.0750 C.3    15  ILE15       0.0290
     26  CG1       18.7020   25.9520   41.1390 C.3    15  ILE15       0.0022
     27  CG2       19.8390   26.3120   38.9150 C.3    15  ILE15       0.0023
     28  CD1       17.5990   24.9700   40.6570 C.3    15  ILE15       0.0001
     29  N         19.8660   29.3240   42.7890 N.am   16  GLY16      -0.1940
     30  CA        19.3330   30.3180   43.7110 C.3    16  GLY16       0.2014
     31  C         18.2190   29.8440   44.6300 C.2    16  GLY16       0.2640
     32  O         17.2310   30.5650   44.8320 O.2    16  GLY16      -0.2714
     33  N         18.3600   28.6420   45.2110 N.am   17  SER17      -0.1935
     34  CA        17.3970   28.1920   46.2250 C.3    17  SER17       0.2055
     35  C         17.2940   29.2050   47.3790 C.2    17  SER17       0.2642
     36  O         16.2300   29.3900   47.9570 O.2    17  SER17      -0.2714
     37  CB        17.7740   26.8060   46.7470 C.3    17  SER17       0.2130
     38  OG        19.1040   26.8160   47.2370 O.3    17  SER17      -0.2179
     39  N         18.4150   29.8650   47.6660 N.am   18  GLN18      -0.1976
     40  CA        18.5310   30.8710   48.7070 C.3    18  GLN18       0.1601
     41  C         17.6990   32.1160   48.3780 C.2    18  GLN18       0.2287
     42  O         16.9100   32.5830   49.1930 O.2    18  GLN18      -0.2864
     43  CB        20.0060   31.2450   48.9080 C.3    18  GLN18       0.0394
     44  CG        20.9390   30.0490   49.1890 C.3    18  GLN18       0.0908
     45  CD        21.6720   29.4740   47.9550 C.2    18  GLN18       0.2608
     46  OE1       22.4490   28.5220   48.0810 O.2    18  GLN18      -0.2717
     47  NE2       21.4570   30.0720   46.7830 N.am   18  GLN18      -0.0878
     48  N         28.1760   34.3800   43.2180 N.3    39  VAL39      -0.1231
     49  CA        29.3370   33.7350   42.6350 C.3    39  VAL39       0.1692
     50  C         28.9200   32.3670   42.1410 C.2    39  VAL39       0.2592
     51  O         28.6210   31.4890   42.9290 O.2    39  VAL39      -0.2718
     52  CB        30.5030   33.6090   43.6280 C.3    39  VAL39       0.0266
     53  CG1       31.7920   33.3590   42.8760 C.3    39  VAL39       0.0020
     54  CG2       30.6300   34.8850   44.4520 C.3    39  VAL39       0.0020
     55  N         28.8670   32.2190   40.8240 N.am   40  GLU40      -0.1966
     56  CA        28.5390   30.9500   40.1830 C.3    40  GLU40       0.1733
     57  C         29.2150   30.9130   38.8260 C.2    40  GLU40       0.2616
     58  O         29.0190   31.8110   38.0190 O.2    40  GLU40      -0.2715
     59  CB        27.0170   30.7790   40.0370 C.3    40  GLU40       0.0429
     60  CG        26.5740   29.4140   39.4370 C.3    40  GLU40       0.1163
     61  CD        27.2190   28.2140   40.1450 C.2    40  GLU40       0.3649
     62  OE1       26.8800   27.9600   41.3130 O.co2  40  GLU40      -0.2457
     63  OE2       28.0790   27.5380   39.5420 O.co2  40  GLU40      -0.2457
     64  N         30.0220   29.8810   38.5900 N.am   41  TRP41      -0.1960
     65  CA        30.7410   29.7330   37.3330 C.3    41  TRP41       0.1771
     66  C         30.1570   28.7200   36.3530 C.2    41  TRP41       0.2619
     67  O         30.6310   28.6330   35.2200 O.2    41  TRP41      -0.2715
     68  CB        32.2230   29.4180   37.6120 C.3    41  TRP41       0.0590
     69  CG        32.5750   27.9920   37.8740 C.ar   41  TRP41       0.0006
     70  CD1       31.7970   27.0420   38.4500 C.ar   41  TRP41       0.0946
     71  CD2       33.8350   27.3720   37.6030 C.ar   41  TRP41       0.0152
     72  NE1       32.4780   25.8650   38.5390 N.ar   41  TRP41      -0.2442
     73  CE2       33.7400   26.0390   38.0320 C.ar   41  TRP41       0.0810
     74  CE3       35.0350   27.8170   37.0280 C.ar   41  TRP41       0.0012
     75  CZ2       34.8040   25.1310   37.9100 C.ar   41  TRP41       0.0191
     76  CZ3       36.0950   26.9220   36.8970 C.ar   41  TRP41       0.0001
     77  CH2       35.9640   25.5820   37.3300 C.ar   41  TRP41       0.0015
     78  N         29.1580   27.9460   36.7980 N.am   42  PHE42      -0.1974
     79  CA        28.6120   26.8110   36.0340 C.3    42  PHE42       0.1639
     80  C         27.5770   27.3080   35.0190 C.2    42  PHE42       0.2290
     81  O         26.5160   27.7820   35.3860 O.2    42  PHE42      -0.2864
     82  CB        28.0280   25.7820   37.0040 C.3    42  PHE42       0.0560
     83  CG        27.4520   24.5280   36.3650 C.ar   42  PHE42      -0.0200
     84  CD1       27.8830   24.0470   35.1360 C.ar   42  PHE42      -0.0042
     85  CD2       26.4610   23.8030   37.0520 C.ar   42  PHE42      -0.0042
     86  CE1       27.3290   22.9150   34.5920 C.ar   42  PHE42      -0.0003
     87  CE2       25.9180   22.6460   36.5180 C.ar   42  PHE42      -0.0003
     88  CZ        26.3510   22.1940   35.3000 C.ar   42  PHE42      -0.0000
     89  N         23.8110   26.3980   35.3910 N.3    45  ALA45      -0.1245
     90  CA        23.2640   27.0130   36.5960 C.3    45  ALA45       0.1562
     91  C         23.0090   28.4980   36.4110 C.2    45  ALA45       0.2260
     92  O         21.9640   29.0100   36.8210 O.2    45  ALA45      -0.2867
     93  CB        24.2070   26.7850   37.7910 C.3    45  ALA45       0.0290
     94  N         30.8560   22.1560   35.4750 N.3    75  SER75      -0.1217
     95  CA        30.8840   22.6070   36.8930 C.3    75  SER75       0.1889
     96  C         32.1740   22.2550   37.6630 C.2    75  SER75       0.2288
     97  O         32.3750   22.7360   38.7850 O.2    75  SER75      -0.2866
     98  CB        29.6390   22.1670   37.7020 C.3    75  SER75       0.2089
     99  OG        29.7450   20.8520   38.2060 O.3    75  SER75      -0.2183
    100  N         31.2870   35.1890   39.2860 N.3   107  PHE107     -0.1227
    101  CA        31.6450   33.9330   38.5990 C.3   107  PHE107      0.1736
    102  C         32.5530   32.9820   39.3740 C.2   107  PHE107      0.2595
    103  O         32.1390   31.8690   39.7210 O.2   107  PHE107     -0.2718
    104  CB        32.2160   34.1970   37.1880 C.3   107  PHE107      0.0547
    105  CG        31.2300   34.8550   36.2660 C.ar  107  PHE107     -0.0202
    106  CD1       30.3260   34.1070   35.5490 C.ar  107  PHE107     -0.0042
    107  CD2       31.1730   36.2340   36.1650 C.ar  107  PHE107     -0.0042
    108  CE1       29.3880   34.7280   34.7120 C.ar  107  PHE107     -0.0003
    109  CE2       30.2590   36.8530   35.3370 C.ar  107  PHE107     -0.0003
    110  CZ        29.3560   36.0940   34.6220 C.ar  107  PHE107     -0.0000
    111  N         33.7860   33.3840   39.6220 N.am  108  ASP108     -0.1960
    112  CA        34.7770   32.4890   40.2230 C.3   108  ASP108      0.1840
    113  C         35.1250   33.0200   41.5990 C.2   108  ASP108      0.2622
    114  O         35.5550   34.1680   41.7150 O.2   108  ASP108     -0.2715
    115  CB        36.0170   32.4010   39.3260 C.3   108  ASP108      0.1450
    116  CG        37.0140   31.3250   39.7760 C.2   108  ASP108      0.3671
    117  OD1       37.0350   30.9450   40.9620 O.co2 108  ASP108     -0.2456
    118  OD2       37.7830   30.8540   38.9200 O.co2 108  ASP108     -0.2456
    119  N         34.9150   32.1880   42.6360 N.am  109  ILE109     -0.1963
    120  CA        35.1660   32.5580   44.0240 C.3   109  ILE109      0.1727
    121  C         36.6190   33.0130   44.2670 C.2   109  ILE109      0.2616
    122  O         36.8870   33.8580   45.1250 O.2   109  ILE109     -0.2715
    123  CB        34.8330   31.3920   44.9960 C.3   109  ILE109      0.0290
    124  CG1       34.6740   31.9080   46.4410 C.3   109  ILE109      0.0022
    125  CG2       35.9100   30.2970   44.9400 C.3   109  ILE109      0.0023
    126  CD1       33.4660   32.8000   46.6850 C.3   109  ILE109      0.0001
    127  N         37.5480   32.4360   43.5100 N.am  110  LYS110     -0.1977
    128  CA        38.9530   32.8070   43.6000 C.3   110  LYS110      0.1596
    129  C         39.2030   34.2510   43.1480 C.2   110  LYS110      0.2287
    130  O         40.1950   34.8510   43.5430 O.2   110  LYS110     -0.2864
    131  CB        39.8150   31.8520   42.7760 C.3   110  LYS110      0.0298
    132  CG        39.7480   30.4140   43.2210 C.3   110  LYS110      0.0038
    133  CD        41.0380   29.6990   42.8500 C.3   110  LYS110      0.0206
    134  CE        40.9440   28.1850   43.0020 C.3   110  LYS110      0.1093
    135  NZ        40.9060   27.4870   41.6800 N.3   110  LYS110     -0.1314
    136  N         26.9490   27.7330   50.0400 N.3   127  SER127     -0.1202
    137  CA        26.7450   26.2960   49.8610 C.3   127  SER127      0.2020
    138  C         27.8750   25.7580   48.9900 C.2   127  SER127      0.2619
    139  O         27.7460   25.5400   47.7770 O.2   127  SER127     -0.2717
    140  CB        25.3710   25.9940   49.2610 C.3   127  SER127      0.2103
    141  OG        25.2180   26.7590   48.0930 O.3   127  SER127     -0.2182
    142  N         28.9960   25.5320   49.6440 N.am  128  PHE128     -0.1962
    143  CA        30.2260   25.2220   48.9420 C.3   128  PHE128      0.1756
    144  C         30.1790   23.7810   48.4140 C.2   128  PHE128      0.2461
    145  O         29.3110   23.0090   48.8150 O.2   128  PHE128     -0.2730
    146  CB        31.4340   25.5400   49.8540 C.3   128  PHE128      0.0574
    147  CG        31.5920   24.6260   51.0360 C.ar  128  PHE128     -0.0200
    148  CD1       30.8790   24.8380   52.2100 C.ar  128  PHE128     -0.0042
    149  CD2       32.5110   23.5870   50.9990 C.ar  128  PHE128     -0.0042
    150  CE1       31.0550   24.0060   53.3260 C.ar  128  PHE128     -0.0003
    151  CE2       32.7010   22.7530   52.1090 C.ar  128  PHE128     -0.0003
    152  CZ        31.9710   22.9650   53.2740 C.ar  128  PHE128     -0.0000
    153  N         31.0600   23.4320   47.4690 N.am  129  PRO129     -0.2716
    154  CA        30.9660   22.0960   46.8440 C.3   129  PRO129      0.1536
    155  C         31.0420   20.8970   47.8070 C.2   129  PRO129      0.2598
    156  O         31.8050   20.9040   48.7700 O.2   129  PRO129     -0.2715
    157  CB        32.1400   22.0950   45.8550 C.3   129  PRO129      0.0310
    158  CG        32.3830   23.5630   45.5400 C.3   129  PRO129      0.0237
    159  CD        32.1280   24.2620   46.8660 C.3   129  PRO129      0.0939
    160  N         30.2410   19.8690   47.5390 N.am  130  CYS130     -0.1968
    161  CA        30.1190   18.7200   48.4590 C.3   130  CYS130      0.1712
    162  C         30.8760   17.4890   48.0080 C.2   130  CYS130      0.2296
    163  O         30.9450   16.4940   48.7230 O.2   130  CYS130     -0.2864
    164  CB        28.6540   18.3300   48.5380 C.3   130  CYS130      0.0983
    165  SG        28.1000   17.5840   47.0140 S.3   130  CYS130     -0.0798
    166  N         37.8630   20.5360   45.5800 N.3   149  ARG149     -0.1245
    167  CA        36.7650   21.4350   45.2500 C.3   149  ARG149      0.1563
    168  C         35.9110   21.7940   46.4790 C.2   149  ARG149      0.2260
    169  O         35.4770   22.9360   46.6120 O.2   149  ARG149     -0.2867
    170  CB        35.9540   20.8750   44.0890 C.3   149  ARG149      0.0307
    171  CG        36.7120   21.0330   42.7700 C.3   149  ARG149      0.0489
    172  CD        35.9710   20.5050   41.5620 C.3   149  ARG149      0.2205
    173  NE        34.5200   20.6690   41.6500 N.pl3 149  ARG149     -0.0865
    174  CZ        33.8670   21.8290   41.5530 C.cat 149  ARG149      0.5346
    175  NH1       32.5400   21.8270   41.6380 N.pl3 149  ARG149      0.1354
    176  NH2       34.5250   22.9840   41.3980 N.pl3 149  ARG149      0.1354
    177  N         37.3610   24.6630   48.5380 N.3   152  LEU152     -0.1245
    178  CA        37.0150   26.0550   48.1930 C.3   152  LEU152      0.1561
    179  C         36.3440   26.7760   49.3480 C.2   152  LEU152      0.2260
    180  O         36.2440   27.9910   49.3330 O.2   152  LEU152     -0.2867
    181  CB        36.1220   26.1390   46.9370 C.3   152  LEU152      0.0270
    182  CG        36.8410   25.8400   45.6150 C.3   152  LEU152      0.0019
    183  CD1       35.8630   25.8050   44.4600 C.3   152  LEU152      0.0001
    184  CD2       37.9680   26.8500   45.3260 C.3   152  LEU152      0.0001
    185  N         25.8620   25.6840   53.8670 N.3   179  GLU179     -0.1245
    186  CA        25.1700   24.4200   53.6730 C.3   179  GLU179      0.1567
    187  C         26.1580   23.4180   53.1140 C.2   179  GLU179      0.2260
    188  O         27.0270   23.7770   52.3090 O.2   179  GLU179     -0.2867
    189  CB        23.9780   24.5720   52.7110 C.3   179  GLU179      0.0388
    190  CG        23.2440   23.2520   52.3450 C.3   179  GLU179      0.1160
    191  CD        23.8000   22.5550   51.0770 C.2   179  GLU179      0.3649
    192  OE1       24.7120   23.0880   50.4180 O.co2 179  GLU179     -0.2457
    193  OE2       23.3240   21.4580   50.7300 O.co2 179  GLU179     -0.2457
    194  N         21.3620   20.2680   38.0780 N.3   366  ILE366     -0.1245
    195  CA        21.2600   21.5170   38.8420 C.3   366  ILE366      0.1561
    196  C         20.2290   21.4450   39.9800 C.2   366  ILE366      0.2260
    197  O         20.4360   22.0520   41.0260 O.2   366  ILE366     -0.2867
    198  CB        21.0220   22.7690   37.9280 C.3   366  ILE366      0.0252
    199  CG1       19.7000   22.6850   37.1790 C.3   366  ILE366      0.0019
    200  CG2       22.1850   22.9400   36.9430 C.3   366  ILE366      0.0019
    201  CD1       19.4790   23.8330   36.1470 C.3   366  ILE366      0.0001
    202  N         21.9940   19.5120   42.8210 N.3   369  ASN369     -0.1225
    203  CA        22.9820   20.3630   43.4850 C.3   369  ASN369      0.1785
    204  C         22.3410   21.3600   44.4610 C.2   369  ASN369      0.2598
    205  O         23.0410   21.9900   45.2530 O.2   369  ASN369     -0.2718
    206  CB        23.7980   21.1590   42.4520 C.3   369  ASN369      0.1169
    207  CG        25.0730   20.4510   42.0080 C.2   369  ASN369      0.2627
    208  OD1       25.5050   19.4580   42.5940 O.2   369  ASN369     -0.2716
    209  ND2       25.6970   20.9870   40.9570 N.am  369  ASN369     -0.0877
    210  N         21.0220   21.5110   44.4070 N.am  370  SER370     -0.1938
    211  CA        20.3580   22.6030   45.0970 C.3   370  SER370      0.2055
    212  C         19.9990   22.2600   46.5440 C.2   370  SER370      0.2642
    213  O         20.4770   21.2860   47.0990 O.2   370  SER370     -0.2714
    214  CB        19.1290   23.0370   44.3150 C.3   370  SER370      0.2130
    215  OG        18.7320   24.3300   44.7260 O.3   370  SER370     -0.2179
    216  N         19.1950   23.1150   47.1610 N.am  371  ILE371     -0.1977
    217  CA        18.7390   22.9300   48.5430 C.3   371  ILE371      0.1596
    218  C         17.2240   23.0190   48.5820 C.2   371  ILE371      0.2287
    219  O         16.6650   23.9670   48.0490 O.2   371  ILE371     -0.2864
    220  CB        19.2840   24.0400   49.4870 C.3   371  ILE371      0.0276
    221  CG1       20.7890   24.2210   49.2990 C.3   371  ILE371      0.0022
    222  CG2       18.8790   23.7200   50.9610 C.3   371  ILE371      0.0022
    223  CD1       21.4290   25.4310   50.0370 C.3   371  ILE371      0.0001
@<TRIPOS>BOND
     1    86    84   ar
     2    86    88   ar
     3   110   108   ar
     4   110   109   ar
     5   108   106   ar
     6    80    81    2
     7    80    79    1
     8    84    83   ar
     9    67    66    2
    10    88    87   ar
    11   109   107   ar
    12    89    90    1
    13    94    95    1
    14   106   105   ar
    15    79    78    1
    16    79    82    1
    17   201   199    1
    18   107   105   ar
    19   105   104    1
    20    66    78   am
    21    66    65    1
    22    83    82    1
    23    83    85   ar
    24    91    90    1
    25    91    92    2
    26    87    85   ar
    27    90    93    1
    28    95    96    1
    29    95    98    1
    30    76    74   ar
    31    76    77   ar
    32   200   198    1
    33    74    71   ar
    34   199   198    1
    35   104   101    1
    36    77    75   ar
    37    65    68    1
    38    65    64    1
    39    71    69   ar
    40    71    73   ar
    41    68    69    1
    42    96    97    2
    43    98    99    1
    44    69    70   ar
    45    75    73   ar
    46   198   195    1
    47    58    57    2
    48    73    72   ar
    49   194   195    1
    50    70    72   ar
    51    64    57   am
    52   101   100    1
    53   101   102    1
    54    57    56    1
    55   195   196    1
    56    27    25    1
    57   118   116   ar
    58   115   116    1
    59   115   112    1
    60   102   111   am
    61   102   103    2
    62    60    59    1
    63    60    61    1
    64    63    61   ar
    65   111   112    1
    66   116   117   ar
    67   196   197    2
    68    59    56    1
    69    25    22    1
    70    25    26    1
    71    61    62   ar
    72    56    55    1
    73   112   113    1
    74    20    19    2
    75    28    26    1
    76    22    21    1
    77    22    23    1
    78    55    50   am
    79   209   207   am
    80    19    21   am
    81    19    18    1
    82    24    23    2
    83   176   174    1
    84   174   175    1
    85   174   173    2
    86   172   173    1
    87   172   171    1
    88   113   114    2
    89   113   119   am
    90    23    29   am
    91   135   134    1
    92    18    17    1
    93   207   206    1
    94   207   208    2
    95    50    49    1
    96    50    51    2
    97   206   203    1
    98    17    14   am
    99    49    48    1
   100    49    52    1
   101   119   120    1
   102   171   170    1
   103   131   132    1
   104   131   128    1
   105    29    30    1
   106   202   203    1
   107   133   134    1
   108   133   132    1
   109    53    52    1
   110   129   130    2
   111   129   128    1
   112    16    13    1
   113    14    15    2
   114    14    13    1
   115   203   204    1
   116   127   128    1
   117   127   121   am
   118    52    54    1
   119    30    31    1
   120   120   121    1
   121   120   123    1
   122    13    12    1
   123    12     3   am
   124   170   167    1
   125   121   122    2
   126   214   215    1
   127   214   211    1
   128   210   204   am
   129   210   211    1
   130   183   182    1
   131   204   205    2
   132    31    32    2
   133    31    33   am
   134     3     2    1
   135     3     4    2
   136   125   123    1
   137     2     1    1
   138     2     5    1
   139   123   124    1
   140   211   212    1
   141    33    34    1
   142   167   166    1
   143   167   168    1
   144   184   182    1
   145     7     9   ar
   146     7     6   ar
   147   158   157    1
   148   158   159    1
   149   182   181    1
   150   157   154    1
   151     9    11   ar
   152     5     6    1
   153    34    37    1
   154    34    35    1
   155     6     8   ar
   156   124   126    1
   157   168   169    2
   158   212   213    2
   159   212   216   am
   160    37    38    1
   161    47    45   am
   162   154   153    1
   163   154   155    1
   164   159   153    1
   165   181   178    1
   166   165   164    1
   167   216   217    1
   168    11    10   ar
   169    35    39   am
   170    35    36    2
   171   153   144   am
   172   160   155   am
   173   160   161    1
   174    39    40    1
   175     8    10   ar
   176   139   138    2
   177   155   156    2
   178    45    46    2
   179    45    44    1
   180   162   161    1
   181   162   163    2
   182   219   218    2
   183   141   140    1
   184   178   177    1
   185   178   179    1
   186    41    40    1
   187    41    42    2
   188   144   145    2
   189   144   143    1
   190   161   164    1
   191   217   218    1
   192   217   220    1
   193    40    43    1
   194    43    44    1
   195   143   142    1
   196   143   146    1
   197   138   142   am
   198   138   137    1
   199   140   137    1
   200   221   220    1
   201   221   223    1
   202   180   179    2
   203   220   222    1
   204   146   147    1
   205   137   136    1
   206   192   191   ar
   207   193   191   ar
   208   149   147   ar
   209   149   151   ar
   210   147   148   ar
   211   191   190    1
   212   151   152   ar
   213   148   150   ar
   214   188   187    2
   215   190   189    1
   216   189   186    1
   217   187   186    1
   218   152   150   ar
   219   186   185    1
