@<TRIPOS>MOLECULE
tmp/4dklA00.pdb
 167 161 0 0 0
SMALL
GASTEIGER

@<TRIPOS>ATOM
      1  N        -19.4370   -9.1900  -13.9380 N.3    83  ASP83      -0.1225
      2  CA       -20.8720   -9.0760  -13.6890 C.3    83  ASP83       0.1805
      3  C        -21.1290   -8.6120  -12.2540 C.2    83  ASP83       0.2597
      4  O        -21.7620   -7.5650  -12.0140 O.2    83  ASP83      -0.2718
      5  CB       -21.5550  -10.4230  -13.9360 C.3    83  ASP83       0.1424
      6  CG       -22.9390  -10.2780  -14.5360 C.2    83  ASP83       0.3668
      7  OD1      -23.1020   -9.4750  -15.4780 O.co2  83  ASP83      -0.2456
      8  OD2      -23.8640  -10.9740  -14.0670 O.co2  83  ASP83      -0.2456
      9  N        -20.6150   -9.3860  -11.3000 N.am   84  TYR84      -0.1976
     10  CA       -20.7850   -9.0530   -9.8860 C.3    84  TYR84       0.1639
     11  C        -20.1840   -7.6930   -9.5160 C.2    84  TYR84       0.2290
     12  O        -20.8200   -6.8930   -8.8210 O.2    84  TYR84      -0.2864
     13  CB       -20.2150  -10.1620   -8.9980 C.3    84  TYR84       0.0560
     14  CG       -21.1530  -11.3370   -8.8370 C.ar   84  TYR84      -0.0198
     15  CD1      -21.2000  -12.3500   -9.7860 C.ar   84  TYR84      -0.0009
     16  CD2      -21.9990  -11.4270   -7.7390 C.ar   84  TYR84      -0.0009
     17  CE1      -22.0620  -13.4240   -9.6430 C.ar   84  TYR84       0.0417
     18  CE2      -22.8630  -12.4950   -7.5880 C.ar   84  TYR84       0.0417
     19  CZ       -22.8900  -13.4900   -8.5420 C.ar   84  TYR84       0.1957
     20  OH       -23.7480  -14.5550   -8.3960 O.3    84  TYR84      -0.2866
     21  N        -19.7530   -5.1490  -11.4090 N.3    86  ASN86      -0.1225
     22  CA       -20.6270   -4.1160  -11.9430 C.3    86  ASN86       0.1785
     23  C        -21.7930   -3.8890  -11.0000 C.2    86  ASN86       0.2597
     24  O        -22.0430   -2.7570  -10.5680 O.2    86  ASN86      -0.2718
     25  CB       -21.1350   -4.4980  -13.3340 C.3    86  ASN86       0.1169
     26  CG       -22.1340   -3.4980  -13.8840 C.2    86  ASN86       0.2627
     27  OD1      -23.2730   -3.8470  -14.1940 O.2    86  ASN86      -0.2716
     28  ND2      -21.7130   -2.2440  -13.9970 N.am   86  ASN86      -0.0877
     29  N        -22.4810   -4.9820  -10.6660 N.am   87  MET87      -0.1979
     30  CA       -23.6290   -4.9210   -9.7640 C.3    87  MET87       0.1605
     31  C        -23.3240   -4.1950   -8.4500 C.2    87  MET87       0.2287
     32  O        -24.1360   -3.4040   -7.9680 O.2    87  MET87      -0.2864
     33  CB       -24.1580   -6.3270   -9.4770 C.3    87  MET87       0.0413
     34  CG       -25.3240   -6.3670   -8.5070 C.3    87  MET87       0.0598
     35  SD       -26.0160   -8.0230   -8.3850 S.3    87  MET87      -0.1393
     36  CE       -24.5150   -8.9740   -8.1600 C.3    87  MET87       0.0692
     37  N        -21.1380  -21.5000  -15.3240 N.3   154  THR154     -0.1218
     38  CA       -21.8380  -21.1870  -14.0870 C.3   154  THR154      0.1862
     39  C        -20.8850  -21.1080  -12.9030 C.2   154  THR154      0.2287
     40  O        -19.7580  -21.5990  -12.9560 O.2   154  THR154     -0.2866
     41  CB       -22.9130  -22.2400  -13.7670 C.3   154  THR154      0.1770
     42  OG1      -22.2990  -23.5300  -13.6540 O.3   154  THR154     -0.2211
     43  CG2      -23.9690  -22.2770  -14.8610 C.3   154  THR154      0.0375
     44  N        -24.9520  -21.2880   -2.5830 N.3   165  GLU165     -0.1245
     45  CA       -25.6360  -20.4910   -3.5930 C.3   165  GLU165      0.1567
     46  C        -26.5310  -19.4510   -2.9270 C.2   165  GLU165      0.2260
     47  O        -26.3420  -18.2440   -3.1090 O.2   165  GLU165     -0.2867
     48  CB       -26.4730  -21.3760   -4.5180 C.3   165  GLU165      0.0388
     49  CG       -27.0020  -20.6460   -5.7440 C.3   165  GLU165      0.1160
     50  CD       -28.3170  -21.2140   -6.2440 C.2   165  GLU165      0.3649
     51  OE1      -28.9700  -21.9660   -5.4900 O.co2 165  GLU165     -0.2457
     52  OE2      -28.7000  -20.9040   -7.3920 O.co2 165  GLU165     -0.2457
     53  N        -26.5720  -15.3650   -2.6240 N.3   169  LYS169     -0.1245
     54  CA       -27.7830  -14.6170   -2.9620 C.3   169  LYS169      0.1561
     55  C        -28.1950  -13.6760   -1.8150 C.2   169  LYS169      0.2260
     56  O        -28.6170  -12.5410   -2.0530 O.2   169  LYS169     -0.2867
     57  CB       -28.9350  -15.5660   -3.3340 C.3   169  LYS169      0.0271
     58  CG       -28.6050  -16.6250   -4.4070 C.3   169  LYS169      0.0035
     59  CD       -28.7010  -16.0970   -5.8440 C.3   169  LYS169      0.0206
     60  CE       -28.2880  -17.1520   -6.8920 C.3   169  LYS169      0.1093
     61  NZ       -29.4370  -17.7290   -7.6750 N.3   169  LYS169     -0.1314
     62  N        -25.4180  -10.6690   -1.5520 N.3   172  VAL172     -0.1245
     63  CA       -25.6500   -9.6820   -2.5990 C.3   172  VAL172      0.1561
     64  C        -26.9660   -8.9500   -2.3570 C.2   172  VAL172      0.2260
     65  O        -27.0600   -7.7420   -2.5710 O.2   172  VAL172     -0.2867
     66  CB       -25.6230  -10.2940   -4.0230 C.3   172  VAL172      0.0252
     67  CG1      -26.5260  -11.4900   -4.1150 C.3   172  VAL172      0.0019
     68  CG2      -26.0390   -9.2640   -5.0450 C.3   172  VAL172      0.0019
     69  N        -32.8890   -2.2310  -11.9430 N.3   383  TRP383     -0.1241
     70  CA       -32.2770   -3.3130  -11.1810 C.3   383  TRP383      0.1605
     71  C        -33.2150   -3.9720  -10.1730 C.2   383  TRP383      0.2264
     72  O        -32.9590   -5.0880   -9.7220 O.2   383  TRP383     -0.2867
     73  CB       -31.0030   -2.8300  -10.4860 C.3   383  TRP383      0.0550
     74  CG       -29.8250   -2.7010  -11.4110 C.ar  383  TRP383      0.0003
     75  CD1      -29.5750   -1.6840  -12.2860 C.ar  383  TRP383      0.0946
     76  CD2      -28.7360   -3.6230  -11.5450 C.ar  383  TRP383      0.0152
     77  NE1      -28.3990   -1.9160  -12.9580 N.ar  383  TRP383     -0.2442
     78  CE2      -27.8640   -3.0990  -12.5210 C.ar  383  TRP383      0.0810
     79  CE3      -28.4130   -4.8390  -10.9340 C.ar  383  TRP383      0.0012
     80  CZ2      -26.6910   -3.7500  -12.9000 C.ar  383  TRP383      0.0191
     81  CZ3      -27.2490   -5.4820  -11.3130 C.ar  383  TRP383      0.0001
     82  CH2      -26.4010   -4.9350  -12.2840 C.ar  383  TRP383      0.0015
     83  N        -34.9690   -7.5840  -11.2290 N.3   386  ILE386     -0.1231
     84  CA       -34.0800   -8.7430  -11.2230 C.3   386  ILE386      0.1692
     85  C        -33.6410   -9.1300   -9.8090 C.2   386  ILE386      0.2592
     86  O        -33.5730  -10.3140   -9.4840 O.2   386  ILE386     -0.2718
     87  CB       -32.8580   -8.5660  -12.1680 C.3   386  ILE386      0.0266
     88  CG1      -32.0210   -9.8470  -12.2070 C.3   386  ILE386      0.0019
     89  CG2      -32.0100   -7.3660  -11.7650 C.3   386  ILE386      0.0020
     90  CD1      -32.8290  -11.1000  -12.4840 C.3   386  ILE386      0.0001
     91  N        -33.3620   -8.1350   -8.9710 N.am  387  HIS387     -0.1976
     92  CA       -32.9910   -8.3950   -7.5860 C.3   387  HIS387      0.1656
     93  C        -34.1020   -9.1370   -6.8510 C.2   387  HIS387      0.2291
     94  O        -33.8390  -10.0080   -6.0210 O.2   387  HIS387     -0.2864
     95  CB       -32.6430   -7.0950   -6.8570 C.3   387  HIS387      0.0771
     96  CG       -31.1830   -6.7610   -6.8790 C.ar  387  HIS387      0.0820
     97  ND1      -30.2510   -7.4540   -6.1370 N.ar  387  HIS387     -0.2267
     98  CD2      -30.4960   -5.8040   -7.5480 C.ar  387  HIS387      0.1154
     99  CE1      -29.0510   -6.9410   -6.3510 C.ar  387  HIS387      0.1986
    100  NE2      -29.1730   -5.9400   -7.2020 N.ar  387  HIS387     -0.2212
    101  N        -34.7250  -12.9660   -8.4720 N.3   390  VAL390     -0.1231
    102  CA       -33.7320  -13.9230   -7.9940 C.3   390  VAL390      0.1692
    103  C        -34.1120  -14.5110   -6.6370 C.2   390  VAL390      0.2591
    104  O        -34.1200  -15.7300   -6.4600 O.2   390  VAL390     -0.2718
    105  CB       -32.3350  -13.2780   -7.9020 C.3   390  VAL390      0.0266
    106  CG1      -31.3840  -14.1770   -7.1390 C.3   390  VAL390      0.0020
    107  CG2      -31.7950  -12.9750   -9.2940 C.3   390  VAL390      0.0020
    108  N        -34.4300  -13.6360   -5.6870 N.am  391  ILE391     -0.1980
    109  CA       -34.8210  -14.0550   -4.3450 C.3   391  ILE391      0.1595
    110  C        -36.0590  -14.9430   -4.3890 C.2   391  ILE391      0.2287
    111  O        -36.1270  -15.9570   -3.6940 O.2   391  ILE391     -0.2864
    112  CB       -35.0930  -12.8400   -3.4340 C.3   391  ILE391      0.0276
    113  CG1      -33.8500  -11.9570   -3.3420 C.3   391  ILE391      0.0022
    114  CG2      -35.5200  -13.2860   -2.0440 C.3   391  ILE391      0.0022
    115  CD1      -32.6370  -12.6680   -2.7880 C.3   391  ILE391      0.0001
    116  N        -37.2000  -16.8750   -6.9320 N.3   393  LYS393     -0.1231
    117  CA       -36.8430  -18.1800   -7.4760 C.3   393  LYS393      0.1693
    118  C        -36.0720  -19.0230   -6.4640 C.2   393  LYS393      0.2591
    119  O        -36.2250  -20.2430   -6.4080 O.2   393  LYS393     -0.2718
    120  CB       -36.0190  -18.0210   -8.7570 C.3   393  LYS393      0.0285
    121  CG       -35.4560  -19.3280   -9.2940 C.3   393  LYS393      0.0035
    122  CD       -34.6660  -19.1210  -10.5750 C.3   393  LYS393      0.0206
    123  CE       -35.5630  -18.6490  -11.7090 C.3   393  LYS393      0.1093
    124  NZ       -34.8190  -18.5480  -12.9960 N.3   393  LYS393     -0.1314
    125  N        -35.2510  -18.3600   -5.6570 N.am  394  ALA394     -0.1980
    126  CA       -34.4160  -19.0480   -4.6820 C.3   394  ALA394      0.1597
    127  C        -35.2340  -19.7800   -3.6250 C.2   394  ALA394      0.2287
    128  O        -34.7660  -20.7620   -3.0480 O.2   394  ALA394     -0.2864
    129  CB       -33.4480  -18.0730   -4.0210 C.3   394  ALA394      0.0319
    130  N        -38.1970  -13.3940  -17.2580 N.3   408  TRP408     -0.1241
    131  CA       -36.8800  -13.5570  -16.6510 C.3   408  TRP408      0.1605
    132  C        -35.7940  -12.8710  -17.4770 C.2   408  TRP408      0.2264
    133  O        -35.1000  -11.9600  -16.9960 O.2   408  TRP408     -0.2867
    134  CB       -36.5610  -15.0460  -16.4970 C.3   408  TRP408      0.0550
    135  CG       -35.1820  -15.3240  -15.9980 C.ar  408  TRP408      0.0003
    136  CD1      -34.0910  -15.6550  -16.7470 C.ar  408  TRP408      0.0946
    137  CD2      -34.7410  -15.2970  -14.6370 C.ar  408  TRP408      0.0152
    138  NE1      -32.9970  -15.8350  -15.9360 N.ar  408  TRP408     -0.2442
    139  CE2      -33.3700  -15.6210  -14.6340 C.ar  408  TRP408      0.0810
    140  CE3      -35.3720  -15.0290  -13.4180 C.ar  408  TRP408      0.0012
    141  CZ2      -32.6190  -15.6850  -13.4640 C.ar  408  TRP408      0.0191
    142  CZ3      -34.6260  -15.0930  -12.2560 C.ar  408  TRP408      0.0001
    143  CH2      -33.2640  -15.4190  -12.2870 C.ar  408  TRP408      0.0015
    144  N        -33.3570   -9.5620  -16.7890 N.3   412  ILE412     -0.1245
    145  CA       -31.9080   -9.5730  -16.9970 C.3   412  ILE412      0.1561
    146  C        -31.5180   -8.5250  -18.0440 C.2   412  ILE412      0.2260
    147  O        -30.5830   -7.7300  -17.8460 O.2   412  ILE412     -0.2867
    148  CB       -31.4190  -10.9540  -17.4740 C.3   412  ILE412      0.0252
    149  CG1      -31.7770  -12.0370  -16.4560 C.3   412  ILE412      0.0019
    150  CG2      -29.9170  -10.9340  -17.7130 C.3   412  ILE412      0.0019
    151  CD1      -30.8740  -12.0570  -15.2530 C.3   412  ILE412      0.0001
    152  N        -31.8690   -4.9510  -16.9330 N.3   415  GLY415     -0.1210
    153  CA       -30.7620   -4.8690  -16.0000 C.3   415  GLY415      0.1956
    154  C        -29.4630   -4.5250  -16.7050 C.2   415  GLY415      0.2611
    155  O        -28.6490   -3.7700  -16.1740 O.2   415  GLY415     -0.2717
    156  N        -29.2630   -5.0730  -17.9020 N.am  416  TYR416     -0.1976
    157  CA       -28.1030   -4.6970  -18.7140 C.3   416  TYR416      0.1639
    158  C        -28.3140   -3.3880  -19.4830 C.2   416  TYR416      0.2290
    159  O        -27.3530   -2.7070  -19.8440 O.2   416  TYR416     -0.2864
    160  CB       -27.7260   -5.8180  -19.6880 C.3   416  TYR416      0.0560
    161  CG       -26.9360   -6.9420  -19.0590 C.ar  416  TYR416     -0.0198
    162  CD1      -25.6350   -6.7390  -18.6150 C.ar  416  TYR416     -0.0009
    163  CD2      -27.4840   -8.2100  -18.9220 C.ar  416  TYR416     -0.0009
    164  CE1      -24.9060   -7.7660  -18.0420 C.ar  416  TYR416      0.0417
    165  CE2      -26.7630   -9.2430  -18.3540 C.ar  416  TYR416      0.0417
    166  CZ       -25.4750   -9.0160  -17.9140 C.ar  416  TYR416      0.1957
    167  OH       -24.7560  -10.0440  -17.3450 O.3   416  TYR416     -0.2866
@<TRIPOS>BOND
     1   159   158    2
     2   160   161    1
     3   160   157    1
     4   158   157    1
     5   161   163   ar
     6   161   162   ar
     7   163   165   ar
     8   157   156    1
     9   162   164   ar
    10   165   166   ar
    11   146   147    2
    12   146   145    1
    13   164   166   ar
    14   166   167    1
    15   156   154   am
    16   150   148    1
    17   132   133    2
    18   132   131    1
    19   148   145    1
    20   148   149    1
    21   130   131    1
    22   145   144    1
    23   152   153    1
    24   136   135   ar
    25   136   138   ar
    26   154   155    2
    27   154   153    1
    28   131   134    1
    29   134   135    1
    30   149   151    1
    31   135   137   ar
    32   138   139   ar
    33     7     6   ar
    34    37    38    1
    35    43    41    1
    36   137   139   ar
    37   137   140   ar
    38   139   141   ar
    39     6     8   ar
    40     6     5    1
    41    27    26    2
    42    38    41    1
    43    38    39    1
    44    28    26   am
    45     1     2    1
    46     5     2    1
    47    26    25    1
    48    41    42    1
    49     2     3    1
    50   141   143   ar
    51   140   142   ar
    52    25    22    1
    53   124   123    1
    54    77    78   ar
    55    77    75   ar
    56    40    39    2
    57    80    78   ar
    58    80    82   ar
    59    78    76   ar
    60    90    88    1
    61   143   142   ar
    62    75    74   ar
    63    82    81   ar
    64     3     4    2
    65     3     9   am
    66    88    87    1
    67    87    89    1
    68    87    84    1
    69    69    70    1
    70    22    21    1
    71    22    23    1
    72   123   122    1
    73    76    74   ar
    74    76    79   ar
    75    74    73    1
    76    81    79   ar
    77     9    10    1
    78    83    84    1
    79    84    85    1
    80    70    73    1
    81    70    71    1
    82    23    29   am
    83    23    24    2
    84    29    30    1
    85   122   121    1
    86    71    72    2
    87    10    11    1
    88    10    13    1
    89    85    86    2
    90    85    91   am
    91    15    17   ar
    92    15    14   ar
    93    30    33    1
    94    30    31    1
    95    17    19   ar
    96    11    12    2
    97    33    34    1
    98   121   120    1
    99   107   105    1
   100    13    14    1
   101    91    92    1
   102    14    16   ar
   103   120   117    1
   104    19    20    1
   105    19    18   ar
   106    34    35    1
   107   101   102    1
   108    31    32    2
   109    35    36    1
   110   102   105    1
   111   102   103    1
   112   105   106    1
   113    16    18   ar
   114    61    60    1
   115    92    95    1
   116    92    93    1
   117    98   100   ar
   118    98    96   ar
   119   117   116    1
   120   117   118    1
   121    52    50   ar
   122   100    99   ar
   123    60    59    1
   124    96    95    1
   125    96    97   ar
   126    93    94    2
   127   103   104    2
   128   103   108   am
   129   118   119    2
   130   118   125   am
   131    99    97   ar
   132    50    49    1
   133    50    51   ar
   134    59    58    1
   135    49    48    1
   136   108   109    1
   137   125   126    1
   138    68    66    1
   139   126   129    1
   140   126   127    1
   141    48    45    1
   142    58    57    1
   143   110   109    1
   144   110   111    2
   145   109   112    1
   146    67    66    1
   147    66    63    1
   148   127   128    2
   149    45    46    1
   150    45    44    1
   151   112   113    1
   152   112   114    1
   153   113   115    1
   154    57    54    1
   155    47    46    2
   156    54    53    1
   157    54    55    1
   158    63    64    1
   159    63    62    1
   160    65    64    2
   161    56    55    2
