@<TRIPOS>MOLECULE
tmp/4dklA02.pdb
 105 99 0 0 0
SMALL
GASTEIGER

@<TRIPOS>ATOM
      1  N        -14.0670   12.8410  -19.4380 N.3    29  ILE29      -0.1231
      2  CA       -13.6580   13.1220  -18.0630 C.3    29  ILE29       0.1692
      3  C        -12.1370   13.2050  -17.9430 C.2    29  ILE29       0.2591
      4  O        -11.6040   14.1230  -17.3180 O.2    29  ILE29      -0.2718
      5  CB       -14.1910   12.0590  -17.0800 C.3    29  ILE29       0.0266
      6  CG1      -15.7180   12.0110  -17.1190 C.3    29  ILE29       0.0019
      7  CG2      -13.7080   12.3450  -15.6650 C.3    29  ILE29       0.0020
      8  CD1      -16.3710   13.3550  -16.9130 C.3    29  ILE29       0.0001
      9  N        -11.4450   12.2470  -18.5550 N.am   30  VAL30      -0.1980
     10  CA        -9.9870   12.1950  -18.4930 C.3    30  VAL30       0.1595
     11  C         -9.3140   13.3700  -19.2130 C.2    30  VAL30       0.2287
     12  O         -8.3450   13.9470  -18.7170 O.2    30  VAL30      -0.2864
     13  CB        -9.4530   10.8610  -19.0650 C.3    30  VAL30       0.0276
     14  CG1       -7.9360   10.8810  -19.1660 C.3    30  VAL30       0.0022
     15  CG2       -9.9160    9.6940  -18.2060 C.3    30  VAL30       0.0022
     16  N        -13.0080   17.6990  -14.6120 N.3    36  LYS36      -0.1245
     17  CA       -12.5330   17.0060  -13.4180 C.3    36  LYS36       0.1561
     18  C        -13.1340   17.5680  -12.1310 C.2    36  LYS36       0.2260
     19  O        -12.5740   18.4740  -11.5140 O.2    36  LYS36      -0.2867
     20  CB       -11.0040   17.0350  -13.3470 C.3    36  LYS36       0.0271
     21  CG       -10.3230   15.9490  -14.1670 C.3    36  LYS36       0.0035
     22  CD        -8.8130   16.1230  -14.1620 C.3    36  LYS36       0.0206
     23  CE        -8.2990   16.5650  -15.5240 C.3    36  LYS36       0.1093
     24  NZ        -8.3690   15.4670  -16.5300 N.3    36  LYS36      -0.1314
     25  N        -15.9460   12.3970  -11.1760 N.3    41  ILE41      -0.1245
     26  CA       -15.1090   11.2600  -10.8080 C.3    41  ILE41       0.1561
     27  C        -16.0030   10.0570  -10.5220 C.2    41  ILE41       0.2260
     28  O        -15.7720    8.9460  -11.0320 O.2    41  ILE41      -0.2867
     29  CB       -14.2350   11.5590   -9.5740 C.3    41  ILE41       0.0252
     30  CG1      -13.2510   12.6930   -9.8710 C.3    41  ILE41       0.0019
     31  CG2      -13.4800   10.3130   -9.1410 C.3    41  ILE41       0.0019
     32  CD1      -12.3240   12.4160  -11.0330 C.3    41  ILE41       0.0001
     33  N        -17.3260    8.8240  -13.6070 N.3    44  PHE44      -0.1227
     34  CA       -16.2900    8.0540  -14.2840 C.3    44  PHE44       0.1736
     35  C        -16.3070    6.6090  -13.8100 C.2    44  PHE44       0.2595
     36  O        -16.2370    5.6850  -14.6230 O.2    44  PHE44      -0.2718
     37  CB       -14.9040    8.6660  -14.0570 C.3    44  PHE44       0.0547
     38  CG       -13.7850    7.8920  -14.7040 C.ar   44  PHE44      -0.0202
     39  CD1      -13.3430    8.2180  -15.9740 C.ar   44  PHE44      -0.0042
     40  CD2      -13.1780    6.8350  -14.0420 C.ar   44  PHE44      -0.0042
     41  CE1      -12.3160    7.5050  -16.5700 C.ar   44  PHE44      -0.0003
     42  CE2      -12.1530    6.1200  -14.6330 C.ar   44  PHE44      -0.0003
     43  CZ       -11.7210    6.4560  -15.8970 C.ar   44  PHE44      -0.0000
     44  N        -16.3820    6.4150  -12.4940 N.am   45  ASN45      -0.1974
     45  CA       -16.4440    5.0620  -11.9400 C.3    45  ASN45       0.1688
     46  C        -17.6240    4.2800  -12.5210 C.2    45  ASN45       0.2292
     47  O        -17.4820    3.1300  -12.9880 O.2    45  ASN45      -0.2864
     48  CB       -16.5550    5.1160  -10.4150 C.3    45  ASN45       0.1181
     49  CG       -15.8650    3.9480   -9.7390 C.2    45  ASN45       0.2629
     50  OD1      -14.7730    3.5420  -10.1400 O.2    45  ASN45      -0.2716
     51  ND2      -16.5000    3.3990   -8.7110 N.am   45  ASN45      -0.0877
     52  N        -17.0930    3.3370  -16.0980 N.3    48  LEU48      -0.1245
     53  CA       -16.1300    2.2450  -16.1630 C.3    48  LEU48       0.1561
     54  C        -16.8330    0.9050  -15.9840 C.2    48  LEU48       0.2260
     55  O        -16.7080    0.0010  -16.8290 O.2    48  LEU48      -0.2867
     56  CB       -15.0590    2.4240  -15.0860 C.3    48  LEU48       0.0270
     57  CG       -14.0710    1.2720  -14.8960 C.3    48  LEU48       0.0019
     58  CD1      -13.2770    1.0250  -16.1700 C.3    48  LEU48       0.0001
     59  CD2      -13.1420    1.5510  -13.7230 C.3    48  LEU48       0.0001
     60  N        -17.4130   -2.1880  -18.7210 N.3    52  LEU52      -0.1245
     61  CA       -17.0010   -3.5750  -18.5030 C.3    52  LEU52       0.1561
     62  C        -18.1330   -4.5830  -18.7490 C.2    52  LEU52       0.2260
     63  O        -17.9550   -5.5700  -19.4830 O.2    52  LEU52      -0.2867
     64  CB       -16.4200   -3.7470  -17.0970 C.3    52  LEU52       0.0270
     65  CG       -14.9910   -3.2370  -16.9090 C.3    52  LEU52       0.0019
     66  CD1      -14.6140   -3.2270  -15.4360 C.3    52  LEU52       0.0001
     67  CD2      -14.0170   -4.0900  -17.7070 C.3    52  LEU52       0.0001
     68  N        -11.6500   10.0490   -5.8540 N.3   121  LYS121     -0.1245
     69  CA       -10.8200    8.9670   -6.3790 C.3   121  LYS121      0.1561
     70  C        -10.5200    7.9260   -5.2980 C.2   121  LYS121      0.2260
     71  O        -10.5920    6.7180   -5.5470 O.2   121  LYS121     -0.2867
     72  CB        -9.5240    9.5280   -6.9740 C.3   121  LYS121      0.0271
     73  CG        -9.7370   10.2910   -8.2750 C.3   121  LYS121      0.0035
     74  CD        -8.6650   11.3480   -8.5110 C.3   121  LYS121      0.0206
     75  CE        -7.3010   10.7310   -8.7710 C.3   121  LYS121      0.1093
     76  NZ        -6.3110   11.7640   -9.1890 N.3   121  LYS121     -0.1314
     77  N        -13.5750    5.9660   -4.5080 N.3   124  ASN124     -0.1225
     78  CA       -13.7660    5.0500   -5.6320 C.3   124  ASN124      0.1785
     79  C        -12.8960    3.8000   -5.4880 C.2   124  ASN124      0.2597
     80  O        -13.3560    2.6700   -5.7100 O.2   124  ASN124     -0.2718
     81  CB       -13.4780    5.7520   -6.9600 C.3   124  ASN124      0.1169
     82  CG       -14.6850    6.4910   -7.5030 C.2   124  ASN124      0.2627
     83  OD1      -15.7350    6.5440   -6.8630 O.2   124  ASN124     -0.2716
     84  ND2      -14.5400    7.0710   -8.6900 N.am  124  ASN124     -0.0877
     85  N        -11.6370    4.0120   -5.1150 N.am  125  VAL125     -0.1980
     86  CA       -10.7250    2.9070   -4.8360 C.3   125  VAL125      0.1595
     87  C        -11.2960    1.9920   -3.7540 C.2   125  VAL125      0.2287
     88  O        -11.3640    0.7710   -3.9280 O.2   125  VAL125     -0.2864
     89  CB        -9.3380    3.4150   -4.3970 C.3   125  VAL125      0.0276
     90  CG1       -8.4870    2.2660   -3.8770 C.3   125  VAL125      0.0022
     91  CG2       -8.6430    4.1270   -5.5480 C.3   125  VAL125      0.0022
     92  N        -14.0320   -0.1130   -4.9600 N.3   128  TRP128     -0.1241
     93  CA       -13.5230   -1.2740   -5.6810 C.3   128  TRP128      0.1605
     94  C        -12.9110   -2.3460   -4.7780 C.2   128  TRP128      0.2264
     95  O        -12.8910   -3.5230   -5.1380 O.2   128  TRP128     -0.2867
     96  CB       -12.5380   -0.8470   -6.7690 C.3   128  TRP128      0.0550
     97  CG       -13.2290   -0.3460   -7.9960 C.ar  128  TRP128      0.0003
     98  CD1      -13.5190    0.9500   -8.3040 C.ar  128  TRP128      0.0946
     99  CD2      -13.7370   -1.1390   -9.0750 C.ar  128  TRP128      0.0152
    100  NE1      -14.1690    1.0140   -9.5130 N.ar  128  TRP128     -0.2442
    101  CE2      -14.3150   -0.2570  -10.0070 C.ar  128  TRP128      0.0810
    102  CE3      -13.7540   -2.5120   -9.3450 C.ar  128  TRP128      0.0012
    103  CZ2      -14.9050   -0.6990  -11.1890 C.ar  128  TRP128      0.0191
    104  CZ3      -14.3390   -2.9500  -10.5180 C.ar  128  TRP128      0.0001
    105  CH2      -14.9070   -2.0460  -11.4250 C.ar  128  TRP128      0.0015
@<TRIPOS>BOND
     1    63    62    2
     2     1     2    1
     3    11    12    2
     4    11    10    1
     5    14    13    1
     6    13    10    1
     7    13    15    1
     8    62    61    1
     9    60    61    1
    10     9    10    1
    11     9     3   am
    12    61    64    1
    13     2     3    1
    14     2     5    1
    15     3     4    2
    16    67    65    1
    17     6     5    1
    18     6     8    1
    19    64    65    1
    20     5     7    1
    21    65    66    1
    22    55    54    2
    23    41    39   ar
    24    41    43   ar
    25    24    23    1
    26    58    57    1
    27    53    52    1
    28    53    54    1
    29    53    56    1
    30    39    38   ar
    31    43    42   ar
    32    23    22    1
    33    56    57    1
    34    57    59    1
    35    38    37    1
    36    38    40   ar
    37    42    40   ar
    38    36    35    2
    39    16    17    1
    40    34    37    1
    41    34    35    1
    42    34    33    1
    43    21    22    1
    44    21    20    1
    45    35    44   am
    46    17    20    1
    47    17    18    1
    48    47    46    2
    49    46    45    1
    50    44    45    1
    51    18    19    2
    52    45    48    1
    53   105   103   ar
    54   105   104   ar
    55   103   101   ar
    56    25    26    1
    57    32    30    1
    58    28    27    2
    59    26    27    1
    60    26    29    1
    61   104   102   ar
    62    48    49    1
    63    50    49    2
    64   101   100   ar
    65   101    99   ar
    66    30    29    1
    67    49    51   am
    68    29    31    1
    69   100    98   ar
    70   102    99   ar
    71    76    75    1
    72    99    97   ar
    73    75    74    1
    74    84    82   am
    75    74    73    1
    76    98    97   ar
    77    73    72    1
    78    97    96    1
    79    82    81    1
    80    82    83    2
    81    72    69    1
    82    81    78    1
    83    96    93    1
    84    69    68    1
    85    69    70    1
    86    80    79    2
    87    93    92    1
    88    93    94    1
    89    78    79    1
    90    78    77    1
    91    91    89    1
    92    71    70    2
    93    79    85   am
    94    95    94    2
    95    85    86    1
    96    86    89    1
    97    86    87    1
    98    89    90    1
    99    88    87    2
