@<TRIPOS>MOLECULE
tmp/4dklA01.pdb
 119 113 0 0 0
SMALL
GASTEIGER

@<TRIPOS>ATOM
      1  N        -32.7540    2.2180  -10.1670 N.3   380  ILE380     -0.1231
      2  CA       -33.6860    1.4450   -9.3480 C.3   380  ILE380      0.1692
      3  C        -34.7240    0.7480  -10.2270 C.2   380  ILE380      0.2591
      4  O        -34.9970   -0.4430  -10.0520 O.2   380  ILE380     -0.2718
      5  CB       -34.3640    2.3130   -8.2560 C.3   380  ILE380      0.0266
      6  CG1      -33.6330    2.1570   -6.9200 C.3   380  ILE380      0.0019
      7  CG2      -35.8200    1.9150   -8.0610 C.3   380  ILE380      0.0020
      8  CD1      -32.1460    2.4260   -6.9880 C.3   380  ILE380      0.0001
      9  N        -35.2730    1.4880  -11.1880 N.am  381  VAL381     -0.1980
     10  CA       -36.2440    0.9260  -12.1200 C.3   381  VAL381      0.1595
     11  C        -35.6490   -0.2550  -12.8970 C.2   381  VAL381      0.2287
     12  O        -36.3350   -1.2430  -13.1650 O.2   381  VAL381     -0.2864
     13  CB       -36.7750    2.0010  -13.0990 C.3   381  VAL381      0.0276
     14  CG1      -37.6380    1.3740  -14.1850 C.3   381  VAL381      0.0022
     15  CG2      -37.5580    3.0640  -12.3410 C.3   381  VAL381      0.0022
     16  N        -34.2950   -3.2840   -9.8140 N.3   384  THR384     -0.1204
     17  CA       -35.2510   -3.8470   -8.8590 C.3   384  THR384      0.1979
     18  C        -35.9200   -5.1620   -9.3030 C.2   384  THR384      0.2459
     19  O        -35.9540   -6.1150   -8.5230 O.2   384  THR384     -0.2732
     20  CB       -36.3160   -2.8160   -8.4120 C.3   384  THR384      0.1783
     21  OG1      -35.6670   -1.6960   -7.7980 O.3   384  THR384     -0.2211
     22  CG2      -37.2820   -3.4410   -7.4170 C.3   384  THR384      0.0376
     23  N        -36.4490   -5.2270  -10.5450 N.am  385  PRO385     -0.2728
     24  CA       -37.1290   -6.4680  -10.9400 C.3   385  PRO385      0.1401
     25  C        -36.2450   -7.7120  -10.8760 C.2   385  PRO385      0.2269
     26  O        -36.7340   -8.7760  -10.4990 O.2   385  PRO385     -0.2865
     27  CB       -37.5410   -6.1940  -12.3900 C.3   385  PRO385      0.0296
     28  CG       -37.6580   -4.7200  -12.4700 C.3   385  PRO385      0.0237
     29  CD       -36.5630   -4.1950  -11.5940 C.3   385  PRO385      0.0939
     30  N        -35.3460   -8.7970   -7.1740 N.3   388  ILE388     -0.1231
     31  CA       -36.5030   -9.4530   -6.5780 C.3   388  ILE388      0.1692
     32  C        -36.7270  -10.8480   -7.1620 C.2   388  ILE388      0.2592
     33  O        -36.9410  -11.8120   -6.4240 O.2   388  ILE388     -0.2718
     34  CB       -37.7780   -8.6010   -6.7550 C.3   388  ILE388      0.0266
     35  CG1      -37.7140   -7.3630   -5.8600 C.3   388  ILE388      0.0019
     36  CG2      -39.0210   -9.4160   -6.4400 C.3   388  ILE388      0.0020
     37  CD1      -38.9470   -6.4900   -5.9280 C.3   388  ILE388      0.0001
     38  N        -36.6700  -10.9430   -8.4890 N.am  389  TYR389     -0.1976
     39  CA       -36.9030  -12.1950   -9.2050 C.3   389  TYR389      0.1639
     40  C        -35.9870  -13.3110   -8.7050 C.2   389  TYR389      0.2290
     41  O        -36.4190  -14.4520   -8.5280 O.2   389  TYR389     -0.2864
     42  CB       -36.6950  -11.9810  -10.7070 C.3   389  TYR389      0.0560
     43  CG       -37.5960  -12.8080  -11.5980 C.ar  389  TYR389     -0.0198
     44  CD1      -38.1350  -12.2670  -12.7590 C.ar  389  TYR389     -0.0009
     45  CD2      -37.9010  -14.1270  -11.2880 C.ar  389  TYR389     -0.0009
     46  CE1      -38.9570  -13.0130  -13.5830 C.ar  389  TYR389      0.0417
     47  CE2      -38.7210  -14.8830  -12.1080 C.ar  389  TYR389      0.0417
     48  CZ       -39.2480  -14.3190  -13.2530 C.ar  389  TYR389      0.1957
     49  OH       -40.0650  -15.0650  -14.0710 O.3   389  TYR389     -0.2866
     50  N        -37.0260  -14.5530   -5.2150 N.3   392  ILE392     -0.1245
     51  CA       -38.2550  -15.3190   -5.3980 C.3   392  ILE392      0.1561
     52  C        -37.9640  -16.7460   -5.8500 C.2   392  ILE392      0.2260
     53  O        -38.4190  -17.7060   -5.2290 O.2   392  ILE392     -0.2867
     54  CB       -39.1810  -14.6520   -6.4340 C.3   392  ILE392      0.0252
     55  CG1      -39.7500  -13.3440   -5.8790 C.3   392  ILE392      0.0019
     56  CG2      -40.3050  -15.5950   -6.8340 C.3   392  ILE392      0.0019
     57  CD1      -40.7210  -12.6600   -6.8130 C.3   392  ILE392      0.0001
     58  N        -39.0730  -20.2970   -3.8920 N.3   396  ILE396     -0.1245
     59  CA       -40.2490  -21.0430   -4.3710 C.3   396  ILE396      0.1561
     60  C        -40.0990  -21.5620   -5.8010 C.2   396  ILE396      0.2260
     61  O        -39.1880  -21.1700   -6.5310 O.2   396  ILE396     -0.2867
     62  CB       -41.5870  -20.2510   -4.2930 C.3   396  ILE396      0.0252
     63  CG1      -41.6020  -19.0950   -5.2940 C.3   396  ILE396      0.0019
     64  CG2      -41.8950  -19.7890   -2.8740 C.3   396  ILE396      0.0019
     65  CD1      -42.9930  -18.5550   -5.5590 C.3   396  ILE396      0.0001
     66  N        -41.5580  -21.9890   -9.6360 N.3   398  ILE398     -0.1231
     67  CA       -42.3750  -21.2470  -10.5880 C.3   398  ILE398      0.1678
     68  C        -42.8780  -22.1620  -11.7040 C.2   398  ILE398      0.2434
     69  O        -42.0920  -22.8930  -12.3090 O.2   398  ILE398     -0.2733
     70  CB       -41.5760  -20.0760  -11.1910 C.3   398  ILE398      0.0265
     71  CG1      -40.8030  -19.3440  -10.0920 C.3   398  ILE398      0.0019
     72  CG2      -42.4920  -19.1190  -11.9250 C.3   398  ILE398      0.0020
     73  CD1      -40.1510  -18.0560  -10.5500 C.3   398  ILE398      0.0001
     74  N        -44.1960  -22.1310  -11.9700 N.am  399  PRO399     -0.2729
     75  CA       -44.7940  -22.9610  -13.0230 C.3   399  PRO399      0.1401
     76  C        -44.1750  -22.6410  -14.3760 C.2   399  PRO399      0.2269
     77  O        -44.4630  -21.5900  -14.9480 O.2   399  PRO399     -0.2865
     78  CB       -46.2670  -22.5410  -13.0100 C.3   399  PRO399      0.0296
     79  CG       -46.4930  -21.9610  -11.6580 C.3   399  PRO399      0.0237
     80  CD       -45.2030  -21.3000  -11.2870 C.3   399  PRO399      0.0939
     81  N        -43.5040  -21.8420  -17.7860 N.3   401  THR401     -0.1218
     82  CA       -44.1890  -21.4800  -19.0150 C.3   401  THR401      0.1862
     83  C        -43.2300  -20.6160  -19.8160 C.2   401  THR401      0.2287
     84  O        -42.1820  -20.2170  -19.3070 O.2   401  THR401     -0.2866
     85  CB       -45.4710  -20.6790  -18.7320 C.3   401  THR401      0.1770
     86  OG1      -45.1540  -19.5350  -17.9290 O.3   401  THR401     -0.2211
     87  CG2      -46.4890  -21.5380  -17.9980 C.3   401  THR401      0.0375
     88  N        -43.8480  -17.6650  -20.6330 N.3   403  PHE403     -0.1227
     89  CA       -43.9630  -16.3680  -19.9710 C.3   403  PHE403      0.1736
     90  C        -42.9040  -16.1830  -18.8890 C.2   403  PHE403      0.2595
     91  O        -42.3690  -15.0870  -18.7170 O.2   403  PHE403     -0.2718
     92  CB       -45.3610  -16.1950  -19.3660 C.3   403  PHE403      0.0547
     93  CG       -45.5450  -14.8990  -18.6220 C.ar  403  PHE403     -0.0202
     94  CD1      -45.3220  -14.8280  -17.2550 C.ar  403  PHE403     -0.0042
     95  CD2      -45.9400  -13.7520  -19.2910 C.ar  403  PHE403     -0.0042
     96  CE1      -45.4860  -13.6370  -16.5710 C.ar  403  PHE403     -0.0003
     97  CE2      -46.1080  -12.5590  -18.6120 C.ar  403  PHE403     -0.0003
     98  CZ       -45.8800  -12.5020  -17.2500 C.ar  403  PHE403     -0.0000
     99  N        -42.6120  -17.2550  -18.1580 N.am  404  GLN404     -0.1979
    100  CA       -41.6340  -17.2050  -17.0750 C.3   404  GLN404      0.1601
    101  C        -40.2530  -16.8480  -17.6110 C.2   404  GLN404      0.2287
    102  O        -39.5860  -15.9510  -17.0910 O.2   404  GLN404     -0.2864
    103  CB       -41.5850  -18.5460  -16.3390 C.3   404  GLN404      0.0394
    104  CG       -40.8290  -18.5150  -15.0160 C.3   404  GLN404      0.0908
    105  CD       -39.3430  -18.7840  -15.1670 C.2   404  GLN404      0.2608
    106  OE1      -38.5590  -18.5190  -14.2540 O.2   404  GLN404     -0.2717
    107  NE2      -38.9490  -19.3220  -16.3160 N.am  404  GLN404     -0.0878
    108  N        -40.2080  -13.2070  -19.1720 N.3   407  SER407     -0.1217
    109  CA       -40.1210  -12.2020  -18.1150 C.3   407  SER407      0.1889
    110  C        -38.7400  -12.1980  -17.4680 C.2   407  SER407      0.2288
    111  O        -38.1840  -11.1370  -17.1690 O.2   407  SER407     -0.2866
    112  CB       -41.1930  -12.4550  -17.0540 C.3   407  SER407      0.2089
    113  OG       -41.0440  -13.7400  -16.4740 O.3   407  SER407     -0.2183
    114  N        -36.0710   -9.1730  -17.6020 N.3   411  CYS411     -0.1235
    115  CA       -35.5240   -8.5240  -16.4150 C.3   411  CYS411      0.1677
    116  C        -34.0000   -8.4390  -16.4740 C.2   411  CYS411      0.2270
    117  O        -33.4230   -7.3670  -16.2420 O.2   411  CYS411     -0.2867
    118  CB       -35.9750   -9.2480  -15.1440 C.3   411  CYS411      0.0956
    119  SG       -37.7300   -9.0280  -14.7560 S.3   411  CYS411     -0.0801
@<TRIPOS>BOND
     1    88    89    1
     2    89    92    1
     3    89    90    1
     4    83    84    2
     5    83    82    1
     6    92    93    1
     7    95    93   ar
     8    95    97   ar
     9   108   109    1
    10    82    85    1
    11    82    81    1
    12    90    91    2
    13    90    99   am
    14    85    87    1
    15    85    86    1
    16    93    94   ar
    17    97    98   ar
    18    99   100    1
    19   109   110    1
    20   109   112    1
    21   101   102    2
    22   101   100    1
    23   114   115    1
    24   110   111    2
    25    94    96   ar
    26    98    96   ar
    27   100   103    1
    28   112   113    1
    29   116   115    1
    30   116   117    2
    31   115   118    1
    32   103   104    1
    33   107   105   am
    34   105   104    1
    35   105   106    2
    36   118   119    1
    37    77    76    2
    38    76    75    1
    39    14    13    1
    40    49    48    1
    41    46    48   ar
    42    46    44   ar
    43    48    47   ar
    44    12    11    2
    45    13    15    1
    46    13    10    1
    47    75    78    1
    48    75    74    1
    49    78    79    1
    50    11    10    1
    51    44    43   ar
    52    28    27    1
    53    28    29    1
    54    27    24    1
    55    69    68    2
    56    10     9    1
    57    47    45   ar
    58    74    68   am
    59    74    80    1
    60    72    70    1
    61    68    67    1
    62    79    80    1
    63    43    45   ar
    64    43    42    1
    65    29    23    1
    66    70    67    1
    67    70    71    1
    68     9     3   am
    69    24    25    1
    70    24    23    1
    71    25    26    2
    72    42    39    1
    73    67    66    1
    74    73    71    1
    75    23    18   am
    76     3     4    2
    77     3     2    1
    78     1     2    1
    79    16    17    1
    80     2     5    1
    81    18    17    1
    82    18    19    2
    83    39    40    1
    84    39    38    1
    85    17    20    1
    86    40    41    2
    87    38    32   am
    88    20    21    1
    89    20    22    1
    90     5     7    1
    91     5     6    1
    92    30    31    1
    93    32    31    1
    94    32    33    2
    95     8     6    1
    96    56    54    1
    97    57    55    1
    98    34    31    1
    99    34    36    1
   100    34    35    1
   101    61    60    2
   102    54    55    1
   103    54    51    1
   104    37    35    1
   105    52    51    1
   106    52    53    2
   107    60    59    1
   108    65    63    1
   109    51    50    1
   110    63    62    1
   111    59    62    1
   112    59    58    1
   113    62    64    1
