@<TRIPOS>MOLECULE
tmp/4dklA03.pdb
 90 87 0 0 0
SMALL
GASTEIGER

@<TRIPOS>ATOM
      1  N        -30.3770  -11.1750  -28.7640 N.3     8  MET8       -0.1245
      2  CA       -29.1620  -10.8380  -29.5020 C.3     8  MET8        0.1570
      3  C        -29.2130   -9.4260  -30.0910 C.2     8  MET8        0.2261
      4  O        -28.2400   -8.6720  -30.0110 O.2     8  MET8       -0.2867
      5  CB       -28.9080  -11.8550  -30.6140 C.3     8  MET8        0.0387
      6  CG       -27.6660  -11.5630  -31.4350 C.3     8  MET8        0.0595
      7  SD       -27.6510  -12.4240  -33.0140 S.3     8  MET8       -0.1393
      8  CE       -29.1920  -11.8460  -33.7210 C.3     8  MET8        0.0692
      9  N        -29.3510   -6.7770  -27.2550 N.3    11  TYR11      -0.1227
     10  CA       -28.0210   -6.7610  -26.6630 C.3    11  TYR11       0.1736
     11  C        -26.9940   -6.1450  -27.5970 C.2    11  TYR11       0.2596
     12  O        -25.9630   -5.6740  -27.1400 O.2    11  TYR11      -0.2718
     13  CB       -27.5770   -8.1740  -26.2830 C.3    11  TYR11       0.0548
     14  CG       -28.0280   -8.6150  -24.9120 C.ar   11  TYR11      -0.0200
     15  CD1      -29.3410   -8.4360  -24.4980 C.ar   11  TYR11      -0.0009
     16  CD2      -27.1410   -9.2180  -24.0330 C.ar   11  TYR11      -0.0009
     17  CE1      -29.7570   -8.8380  -23.2430 C.ar   11  TYR11       0.0417
     18  CE2      -27.5460   -9.6250  -22.7780 C.ar   11  TYR11       0.0417
     19  CZ       -28.8540   -9.4330  -22.3870 C.ar   11  TYR11       0.1957
     20  OH       -29.2590   -9.8390  -21.1350 O.3    11  TYR11      -0.2866
     21  N        -27.2580   -6.1680  -28.9010 N.am   12  SER12      -0.1952
     22  CA       -26.3590   -5.5340  -29.8530 C.3    12  SER12       0.1924
     23  C        -26.4910   -4.0270  -29.7540 C.2    12  SER12       0.2314
     24  O        -25.4920   -3.3050  -29.7460 O.2    12  SER12      -0.2863
     25  CB       -26.6840   -5.9660  -31.2790 C.3    12  SER12       0.2116
     26  OG       -26.4420   -7.3460  -31.4350 O.3    12  SER12      -0.2180
     27  N        -25.0020   -3.0520  -26.4470 N.3    15  CYS15      -0.1221
     28  CA       -23.5520   -3.2020  -26.4730 C.3    15  CYS15       0.1808
     29  C        -22.8850   -2.0690  -27.2430 C.2    15  CYS15       0.2601
     30  O        -21.9360   -1.4590  -26.7570 O.2    15  CYS15      -0.2717
     31  CB       -23.1470   -4.5460  -27.0760 C.3    15  CYS15       0.0970
     32  SG       -21.3800   -4.8890  -26.9830 S.3    15  CYS15      -0.0800
     33  N        -23.3830   -1.7940  -28.4430 N.am   16  VAL16      -0.1979
     34  CA       -22.7990   -0.7540  -29.2850 C.3    16  VAL16       0.1595
     35  C        -22.9200    0.6250  -28.6400 C.2    16  VAL16       0.2287
     36  O        -21.9110    1.2980  -28.4030 O.2    16  VAL16      -0.2864
     37  CB       -23.4350   -0.7320  -30.6900 C.3    16  VAL16       0.0276
     38  CG1      -22.9910    0.5050  -31.4560 C.3    16  VAL16       0.0022
     39  CG2      -23.0740   -1.9970  -31.4560 C.3    16  VAL16       0.0022
     40  N        -21.0780    0.7230  -25.0440 N.3    19  LEU19      -0.1231
     41  CA       -19.6340    0.8760  -25.1800 C.3    19  LEU19       0.1693
     42  C        -19.2850    2.2740  -25.6760 C.2    19  LEU19       0.2592
     43  O        -18.5250    2.9880  -25.0280 O.2    19  LEU19      -0.2718
     44  CB       -19.0580   -0.1860  -26.1190 C.3    19  LEU19       0.0284
     45  CG       -18.9600   -1.5980  -25.5380 C.3    19  LEU19       0.0019
     46  CD1      -18.6230   -2.6090  -26.6190 C.3    19  LEU19       0.0001
     47  CD2      -17.9290   -1.6470  -24.4220 C.3    19  LEU19       0.0001
     48  N        -19.8590    2.6600  -26.8130 N.am   20  PHE20      -0.1976
     49  CA       -19.6230    3.9810  -27.3930 C.3    20  PHE20       0.1639
     50  C        -19.8150    5.1000  -26.3670 C.2    20  PHE20       0.2290
     51  O        -18.9120    5.9130  -26.1380 O.2    20  PHE20      -0.2864
     52  CB       -20.5480    4.1950  -28.5940 C.3    20  PHE20       0.0560
     53  CG       -20.4370    5.5580  -29.2140 C.ar   20  PHE20      -0.0200
     54  CD1      -19.3110    5.9160  -29.9370 C.ar   20  PHE20      -0.0042
     55  CD2      -21.4660    6.4780  -29.0880 C.ar   20  PHE20      -0.0042
     56  CE1      -19.2070    7.1690  -30.5120 C.ar   20  PHE20      -0.0003
     57  CE2      -21.3700    7.7320  -29.6630 C.ar   20  PHE20      -0.0003
     58  CZ       -20.2390    8.0780  -30.3760 C.ar   20  PHE20      -0.0000
     59  N        -17.3070    4.8140  -23.1440 N.3    23  PHE23      -0.1241
     60  CA       -15.9630    5.1680  -23.5900 C.3    23  PHE23       0.1605
     61  C        -15.8700    6.6730  -23.8130 C.2    23  PHE23       0.2264
     62  O        -14.8940    7.3140  -23.4130 O.2    23  PHE23      -0.2867
     63  CB       -15.6000    4.4240  -24.8800 C.3    23  PHE23       0.0534
     64  CG       -15.0250    3.0500  -24.6520 C.ar   23  PHE23      -0.0203
     65  CD1      -13.6850    2.8880  -24.3490 C.ar   23  PHE23      -0.0042
     66  CD2      -15.8220    1.9220  -24.7560 C.ar   23  PHE23      -0.0042
     67  CE1      -13.1540    1.6260  -24.1440 C.ar   23  PHE23      -0.0003
     68  CE2      -15.2980    0.6610  -24.5530 C.ar   23  PHE23      -0.0003
     69  CZ       -13.9630    0.5120  -24.2470 C.ar   23  PHE23      -0.0000
     70  N        -21.0220   -8.4570  -22.6260 N.3    57  LEU57      -0.1231
     71  CA       -22.2370   -8.7980  -23.3900 C.3    57  LEU57       0.1678
     72  C        -22.1010   -9.7550  -24.6030 C.2    57  LEU57       0.2434
     73  O        -22.8050  -10.7640  -24.6580 O.2    57  LEU57      -0.2733
     74  CB       -23.0210   -7.5420  -23.7990 C.3    57  LEU57       0.0284
     75  CG       -23.9340   -6.9190  -22.7450 C.3    57  LEU57       0.0019
     76  CD1      -25.0050   -6.0690  -23.4130 C.3    57  LEU57       0.0001
     77  CD2      -24.5590   -7.9930  -21.8670 C.3    57  LEU57       0.0001
     78  N        -21.2160   -9.4420  -25.5740 N.am   58  PRO58      -0.2729
     79  CA       -21.1710  -10.2300  -26.8180 C.3    58  PRO58       0.1401
     80  C        -20.8750  -11.7160  -26.6150 C.2    58  PRO58       0.2269
     81  O        -21.3320  -12.5450  -27.4030 O.2    58  PRO58      -0.2865
     82  CB       -20.0190   -9.5880  -27.5990 C.3    58  PRO58       0.0296
     83  CG       -19.8810   -8.2320  -27.0310 C.3    58  PRO58       0.0237
     84  CD       -20.2100   -8.3650  -25.5870 C.3    58  PRO58       0.0939
     85  N        -24.2520  -13.4970  -25.6690 N.3    61  SER61      -0.1217
     86  CA       -25.2110  -13.6820  -26.7530 C.3    61  SER61       0.1889
     87  C        -24.9250  -14.9290  -27.5870 C.2    61  SER61       0.2288
     88  O        -25.8470  -15.6380  -27.9910 O.2    61  SER61      -0.2866
     89  CB       -25.2540  -12.4450  -27.6530 C.3    61  SER61       0.2089
     90  OG       -23.9700  -12.1460  -28.1690 O.3    61  SER61      -0.2183
@<TRIPOS>BOND
     1     8     7    1
     2     7     6    1
     3    38    37    1
     4    39    37    1
     5     6     5    1
     6    26    25    1
     7    25    22    1
     8    37    34    1
     9     5     2    1
    10    56    58   ar
    11    56    54   ar
    12    58    57   ar
    13     3     4    2
    14     3     2    1
    15    54    53   ar
    16    22    23    1
    17    22    21    1
    18    23    24    2
    19    57    55   ar
    20     2     1    1
    21    34    35    1
    22    34    33    1
    23    53    55   ar
    24    53    52    1
    25    21    11   am
    26    35    36    2
    27    52    49    1
    28    33    29   am
    29    90    89    1
    30    88    87    2
    31    89    86    1
    32    82    83    1
    33    82    79    1
    34    11    12    2
    35    11    10    1
    36    87    86    1
    37    81    80    2
    38    49    48    1
    39    49    50    1
    40     9    10    1
    41    29    30    2
    42    29    28    1
    43    31    32    1
    44    31    28    1
    45    83    84    1
    46    79    80    1
    47    79    78    1
    48    48    42   am
    49    86    85    1
    50    10    13    1
    51    46    45    1
    52    28    27    1
    53    50    51    2
    54    13    14    1
    55    44    45    1
    56    44    41    1
    57    42    41    1
    58    42    43    2
    59    84    78    1
    60    78    72   am
    61    45    47    1
    62    41    40    1
    63    14    15   ar
    64    14    16   ar
    65    63    64    1
    66    63    60    1
    67    66    64   ar
    68    66    68   ar
    69    73    72    2
    70    64    65   ar
    71    72    71    1
    72    68    69   ar
    73    15    17   ar
    74    65    67   ar
    75    69    67   ar
    76    16    18   ar
    77    61    60    1
    78    61    62    2
    79    74    71    1
    80    74    75    1
    81    60    59    1
    82    76    75    1
    83    71    70    1
    84    17    19   ar
    85    18    19   ar
    86    75    77    1
    87    19    20    1
