@<TRIPOS>MOLECULE
tmp/4dkoA00.pdb
 186 183 0 0 0
SMALL
GASTEIGER

@<TRIPOS>ATOM
      1  N         29.4600   -3.5180   46.3850 N.3    69  TRP69      -0.1241
      2  CA        30.0320   -4.8030   46.7680 C.3    69  TRP69       0.1605
      3  C         31.5480   -4.7290   46.9320 C.2    69  TRP69       0.2264
      4  O         32.1150   -5.3780   47.8100 O.2    69  TRP69      -0.2867
      5  CB        29.6450   -5.8850   45.7560 C.3    69  TRP69       0.0550
      6  CG        28.2940   -6.4690   46.0190 C.ar   69  TRP69       0.0003
      7  CD1       27.1120   -5.7930   46.0990 C.ar   69  TRP69       0.0946
      8  CD2       27.9840   -7.8480   46.2420 C.ar   69  TRP69       0.0152
      9  NE1       26.0850   -6.6660   46.3600 N.ar   69  TRP69      -0.2442
     10  CE2       26.5930   -7.9340   46.4510 C.ar   69  TRP69       0.0810
     11  CE3       28.7470   -9.0190   46.2840 C.ar   69  TRP69       0.0012
     12  CZ2       25.9500   -9.1440   46.6990 C.ar   69  TRP69       0.0191
     13  CZ3       28.1040  -10.2200   46.5280 C.ar   69  TRP69       0.0001
     14  CH2       26.7200  -10.2730   46.7320 C.ar   69  TRP69       0.0015
     15  N         21.1670   -9.3250   44.5190 N.3   139  VAL139     -0.1231
     16  CA        21.9170  -10.1570   43.5880 C.3   139  VAL139      0.1692
     17  C         21.5310  -11.6190   43.7630 C.2   139  VAL139      0.2593
     18  O         21.7280  -12.1990   44.8310 O.2   139  VAL139     -0.2718
     19  CB        23.4350  -10.0100   43.7950 C.3   139  VAL139      0.0266
     20  CG1       24.1930  -10.9450   42.8610 C.3   139  VAL139      0.0020
     21  CG2       23.8630   -8.5670   43.5770 C.3   139  VAL139      0.0020
     22  N         20.9760  -12.2110   42.7110 N.am  140  SER140     -0.1938
     23  CA        20.5630  -13.6070   42.7580 C.3   140  SER140      0.2055
     24  C         20.5210  -14.2250   41.3690 C.2   140  SER140      0.2643
     25  O         20.5810  -13.5230   40.3600 O.2   140  SER140     -0.2714
     26  CB        19.1870  -13.7330   43.4110 C.3   140  SER140      0.2130
     27  OG        18.1880  -13.1390   42.6000 O.3   140  SER140     -0.2179
     28  N         20.4200  -15.5500   41.3270 N.am  141  THR141     -0.1950
     29  CA        20.2160  -16.2620   40.0760 C.3   141  THR141      0.1897
     30  C         18.9640  -17.1280   40.1660 C.2   141  THR141      0.2313
     31  O         18.4750  -17.4060   41.2620 O.2   141  THR141     -0.2863
     32  CB        21.4220  -17.1420   39.7200 C.3   141  THR141      0.1794
     33  OG1       21.6220  -18.1220   40.7470 O.3   141  THR141     -0.2208
     34  CG2       22.6800  -16.2940   39.5790 C.3   141  THR141      0.0378
     35  N         28.2160  -23.4730   35.5480 N.3   229  ASP229     -0.1239
     36  CA        28.6830  -23.1200   36.8830 C.3   229  ASP229      0.1674
     37  C         27.5640  -23.2480   37.9130 C.2   229  ASP229      0.2266
     38  O         26.3830  -23.1640   37.5710 O.2   229  ASP229     -0.2867
     39  CB        29.2610  -21.7040   36.8950 C.3   229  ASP229      0.1410
     40  CG        30.4810  -21.5650   36.0060 C.2   229  ASP229      0.3668
     41  OD1       31.1670  -22.5830   35.7760 O.co2 229  ASP229     -0.2456
     42  OD2       30.7540  -20.4400   35.5390 O.co2 229  ASP229     -0.2456
     43  N         26.5600  -21.2710   40.0860 N.3   231  GLU231     -0.1231
     44  CA        25.7660  -20.0560   40.1960 C.3   231  GLU231      0.1699
     45  C         24.5990  -20.0770   39.2150 C.2   231  GLU231      0.2592
     46  O         23.6190  -19.3600   39.3920 O.2   231  GLU231     -0.2718
     47  CB        26.6330  -18.8140   39.9680 C.3   231  GLU231      0.0402
     48  CG        27.6990  -18.5850   41.0340 C.3   231  GLU231      0.1161
     49  CD        28.9350  -19.4420   40.8310 C.2   231  GLU231      0.3649
     50  OE1       29.0750  -20.0380   39.7430 O.co2 231  GLU231     -0.2457
     51  OE2       29.7680  -19.5170   41.7610 O.co2 231  GLU231     -0.2457
     52  N         24.7050  -20.9130   38.1880 N.am  232  ILE232     -0.1980
     53  CA        23.6700  -21.0070   37.1650 C.3   232  ILE232      0.1595
     54  C         22.7510  -22.2050   37.4000 C.2   232  ILE232      0.2287
     55  O         21.5310  -22.1010   37.2640 O.2   232  ILE232     -0.2864
     56  CB        24.2850  -21.1230   35.7570 C.3   232  ILE232      0.0276
     57  CG1       25.4360  -20.1270   35.5900 C.3   232  ILE232      0.0022
     58  CG2       23.2210  -20.9190   34.6890 C.3   232  ILE232      0.0022
     59  CD1       25.0210  -18.6790   35.7340 C.3   232  ILE232      0.0001
     60  N         21.3270  -19.1990   43.5230 N.3   236  SER236     -0.1202
     61  CA        22.3050  -18.5900   44.4110 C.3   236  SER236      0.2020
     62  C         21.8510  -17.1950   44.8140 C.2   236  SER236      0.2619
     63  O         21.2390  -16.4760   44.0260 O.2   236  SER236     -0.2717
     64  CB        23.6900  -18.5370   43.7600 C.3   236  SER236      0.2103
     65  OG        23.7220  -17.6120   42.6890 O.3   236  SER236     -0.2182
     66  N         22.1480  -16.8280   46.0530 N.am  237  PHE237     -0.1961
     67  CA        21.7850  -15.5260   46.5890 C.3   237  PHE237      0.1771
     68  C         22.6340  -15.2550   47.8180 C.2   237  PHE237      0.2619
     69  O         23.3380  -16.1420   48.3010 O.2   237  PHE237     -0.2715
     70  CB        20.2940  -15.4750   46.9420 C.3   237  PHE237      0.0574
     71  CG        19.8740  -16.4910   47.9710 C.ar  237  PHE237     -0.0200
     72  CD1       19.6010  -17.8000   47.6030 C.ar  237  PHE237     -0.0042
     73  CD2       19.7370  -16.1330   49.3030 C.ar  237  PHE237     -0.0042
     74  CE1       19.2120  -18.7330   48.5440 C.ar  237  PHE237     -0.0003
     75  CE2       19.3490  -17.0620   50.2490 C.ar  237  PHE237     -0.0003
     76  CZ        19.0830  -18.3630   49.8700 C.ar  237  PHE237     -0.0000
     77  N         22.5760  -14.0300   48.3220 N.am  238  ASN238     -0.1972
     78  CA        23.3510  -13.6780   49.5000 C.3   238  ASN238      0.1688
     79  C         22.4560  -13.3490   50.6880 C.2   238  ASN238      0.2292
     80  O         21.6300  -12.4380   50.6270 O.2   238  ASN238     -0.2864
     81  CB        24.3020  -12.5200   49.2010 C.3   238  ASN238      0.1181
     82  CG        25.2790  -12.2670   50.3310 C.2   238  ASN238      0.2629
     83  OD1       24.9090  -11.7250   51.3700 O.2   238  ASN238     -0.2716
     84  ND2       26.5320  -12.6610   50.1360 N.am  238  ASN238     -0.0877
     85  N         26.9410  -16.4890   51.2380 N.3   243  PHE243     -0.1241
     86  CA        26.5060  -16.9210   49.9130 C.3   243  PHE243      0.1605
     87  C         25.8190  -18.2820   49.9560 C.2   243  PHE243      0.2264
     88  O         26.4510  -19.2970   50.2430 O.2   243  PHE243     -0.2867
     89  CB        27.6910  -16.9600   48.9450 C.3   243  PHE243      0.0534
     90  CG        28.2540  -15.6040   48.6200 C.ar  243  PHE243     -0.0203
     91  CD1       29.2490  -15.0450   49.4060 C.ar  243  PHE243     -0.0042
     92  CD2       27.7880  -14.8900   47.5270 C.ar  243  PHE243     -0.0042
     93  CE1       29.7720  -13.7980   49.1090 C.ar  243  PHE243     -0.0003
     94  CE2       28.3070  -13.6420   47.2230 C.ar  243  PHE243     -0.0003
     95  CZ        29.3000  -13.0960   48.0160 C.ar  243  PHE243     -0.0000
     96  N         23.6890  -21.3970   48.1140 N.3   245  TYR245     -0.1241
     97  CA        23.4800  -22.0820   46.8440 C.3   245  TYR245      0.1605
     98  C         22.4460  -23.1780   47.0520 C.2   245  TYR245      0.2264
     99  O         22.6960  -24.1420   47.7740 O.2   245  TYR245     -0.2867
    100  CB        24.7870  -22.6950   46.3410 C.3   245  TYR245      0.0534
    101  CG        25.7600  -21.6920   45.7660 C.ar  245  TYR245     -0.0201
    102  CD1       26.4550  -20.8160   46.5900 C.ar  245  TYR245     -0.0009
    103  CD2       25.9900  -21.6280   44.3980 C.ar  245  TYR245     -0.0009
    104  CE1       27.3460  -19.8990   46.0650 C.ar  245  TYR245      0.0417
    105  CE2       26.8800  -20.7170   43.8660 C.ar  245  TYR245      0.0417
    106  CZ        27.5550  -19.8550   44.7040 C.ar  245  TYR245      0.1957
    107  OH        28.4410  -18.9470   44.1780 O.3   245  TYR245     -0.2866
    108  N         33.6050  -18.7370   45.3700 N.3   271  ILE271     -0.1231
    109  CA        32.5530  -18.3150   44.4560 C.3   271  ILE271      0.1692
    110  C         33.1250  -17.6880   43.1880 C.2   271  ILE271      0.2592
    111  O         34.1420  -16.9950   43.2320 O.2   271  ILE271     -0.2718
    112  CB        31.6180  -17.2920   45.1550 C.3   271  ILE271      0.0266
    113  CG1       30.8350  -17.9640   46.2820 C.3   271  ILE271      0.0019
    114  CG2       30.6540  -16.6460   44.1760 C.3   271  ILE271      0.0020
    115  CD1       31.1640  -17.4180   47.6440 C.3   271  ILE271      0.0001
    116  N         32.4800  -17.9560   42.0550 N.am  272  ASN272     -0.1960
    117  CA        32.7120  -17.1750   40.8500 C.3   272  ASN272      0.1819
    118  C         32.0070  -15.8310   41.0010 C.2   272  ASN272      0.2621
    119  O         30.7800  -15.7740   41.0890 O.2   272  ASN272     -0.2715
    120  CB        32.1850  -17.9090   39.6170 C.3   272  ASN272      0.1195
    121  CG        32.8530  -19.2520   39.4090 C.2   272  ASN272      0.2630
    122  OD1       33.9700  -19.3300   38.8990 O.2   272  ASN272     -0.2716
    123  ND2       32.1680  -20.3210   39.8000 N.am  272  ASN272     -0.0877
    124  N         32.7870  -14.7550   41.0420 N.am  273  MET273     -0.1963
    125  CA        32.2430  -13.4220   41.2820 C.3   273  MET273      0.1736
    126  C         31.3180  -12.9720   40.1580 C.2   273  MET273      0.2616
    127  O         31.6830  -13.0230   38.9840 O.2   273  MET273     -0.2715
    128  CB        33.3770  -12.4120   41.4670 C.3   273  MET273      0.0427
    129  CG        34.3700  -12.7980   42.5480 C.3   273  MET273      0.0599
    130  SD        35.6240  -11.5360   42.8310 S.3   273  MET273     -0.1393
    131  CE        34.6260  -10.2290   43.5440 C.3   273  MET273      0.0692
    132  N         30.1200  -12.5280   40.5260 N.am  274  TRP274     -0.1960
    133  CA        29.1470  -12.0560   39.5460 C.3   274  TRP274      0.1771
    134  C         29.6170  -10.7870   38.8410 C.2   274  TRP274      0.2620
    135  O         29.1350  -10.4570   37.7590 O.2   274  TRP274     -0.2715
    136  CB        27.7820  -11.8230   40.2020 C.3   274  TRP274      0.0590
    137  CG        27.7790  -10.7410   41.2380 C.ar  274  TRP274      0.0006
    138  CD1       27.9800  -10.8910   42.5800 C.ar  274  TRP274      0.0946
    139  CD2       27.5560   -9.3430   41.0190 C.ar  274  TRP274      0.0152
    140  NE1       27.8990   -9.6720   43.2090 N.ar  274  TRP274     -0.2442
    141  CE2       27.6390   -8.7060   42.2730 C.ar  274  TRP274      0.0810
    142  CE3       27.2960   -8.5690   39.8850 C.ar  274  TRP274      0.0012
    143  CZ2       27.4710   -7.3320   42.4240 C.ar  274  TRP274      0.0191
    144  CZ3       27.1290   -7.2040   40.0370 C.ar  274  TRP274      0.0001
    145  CH2       27.2180   -6.6000   41.2970 C.ar  274  TRP274      0.0015
    146  N         30.5570  -10.0770   39.4580 N.am  275  GLN275     -0.1963
    147  CA        31.1100   -8.8650   38.8610 C.3   275  GLN275      0.1733
    148  C         31.9340   -9.1860   37.6160 C.2   275  GLN275      0.2616
    149  O         32.1780   -8.3150   36.7820 O.2   275  GLN275     -0.2715
    150  CB        31.9690   -8.0990   39.8710 C.3   275  GLN275      0.0408
    151  CG        31.2340   -7.6630   41.1330 C.3   275  GLN275      0.0908
    152  CD        31.3260   -8.6850   42.2510 C.2   275  GLN275      0.2608
    153  OE1       31.3250   -9.8910   42.0070 O.2   275  GLN275     -0.2717
    154  NE2       31.4160   -8.2050   43.4860 N.am  275  GLN275     -0.0878
    155  N         32.3630  -10.4400   37.4990 N.am  276  GLY276     -0.1955
    156  CA        33.1450  -10.8790   36.3580 C.3   276  GLY276      0.1869
    157  C         34.6370  -10.8060   36.6060 C.2   276  GLY276      0.2309
    158  O         35.4370  -10.8900   35.6740 O.2   276  GLY276     -0.2863
    159  N         36.4810  -12.9290   38.1120 N.3   278  GLY278     -0.1225
    160  CA        37.0550  -14.2470   38.3130 C.3   278  GLY278      0.1811
    161  C         36.5160  -14.9840   39.5240 C.2   278  GLY278      0.2280
    162  O         35.3040  -15.0730   39.7230 O.2   278  GLY278     -0.2866
    163  N         20.1100  -17.9410   33.6800 N.3   319  GLY319     -0.1210
    164  CA        20.5110  -16.5500   33.7720 C.3   319  GLY319      0.1956
    165  C         21.9710  -16.4140   34.1560 C.2   319  GLY319      0.2612
    166  O         22.8320  -17.1060   33.6120 O.2   319  GLY319     -0.2717
    167  N         22.2490  -15.5270   35.1060 N.am  320  GLY320     -0.1942
    168  CA        23.6100  -15.2810   35.5440 C.3   320  GLY320      0.2014
    169  C         24.0120  -13.8380   35.3190 C.2   320  GLY320      0.2639
    170  O         24.7780  -13.2690   36.0970 O.2   320  GLY320     -0.2714
    171  N         23.4980  -13.2450   34.2460 N.am  321  ASN321     -0.1958
    172  CA        23.7350  -11.8350   33.9740 C.3   321  ASN321      0.1819
    173  C         22.9240  -10.9700   34.9290 C.2   321  ASN321      0.2621
    174  O         21.7200  -10.7800   34.7480 O.2   321  ASN321     -0.2715
    175  CB        23.4070  -11.4950   32.5200 C.3   321  ASN321      0.1195
    176  CG        23.8140  -10.0820   32.1450 C.2   321  ASN321      0.2630
    177  OD1       24.4870   -9.3920   32.9120 O.2   321  ASN321     -0.2716
    178  ND2       23.4140   -9.6480   30.9550 N.am  321  ASN321     -0.0877
    179  N         23.6030  -10.4520   35.9470 N.am  322  ILE322     -0.1977
    180  CA        22.9670   -9.6860   37.0170 C.3   322  ILE322      0.1596
    181  C         22.2320   -8.4440   36.5070 C.2   322  ILE322      0.2287
    182  O         21.2820   -7.9770   37.1350 O.2   322  ILE322     -0.2864
    183  CB        24.0000   -9.3070   38.1020 C.3   322  ILE322      0.0276
    184  CG1       24.6950  -10.5660   38.6160 C.3   322  ILE322      0.0022
    185  CG2       23.3420   -8.5920   39.2650 C.3   322  ILE322      0.0022
    186  CD1       23.7390  -11.5830   39.2060 C.3   322  ILE322      0.0001
@<TRIPOS>BOND
     1   178   176   am
     2   176   175    1
     3   176   177    2
     4   175   172    1
     5   166   165    2
     6   163   164    1
     7   164   165    1
     8   172   171    1
     9   172   173    1
    10   165   167   am
    11   171   169   am
    12    58    56    1
    13   174   173    2
    14   173   179   am
    15   167   168    1
    16   169   168    1
    17   169   170    2
    18    42    40   ar
    19    35    36    1
    20    57    59    1
    21    57    56    1
    22   158   157    2
    23    56    53    1
    24    41    40   ar
    25   179   180    1
    26    40    39    1
    27   156   157    1
    28   156   155    1
    29   181   180    1
    30   181   182    2
    31   149   148    2
    32    36    39    1
    33    36    37    1
    34   180   183    1
    35    53    54    1
    36    53    52    1
    37    55    54    2
    38   155   148   am
    39    38    37    2
    40   148   147    1
    41   135   134    2
    42   183   184    1
    43   183   185    1
    44   159   160    1
    45    52    45   am
    46   160   161    1
    47   184   186    1
    48   134   146   am
    49   134   133    1
    50   147   146    1
    51   147   150    1
    52   122   121    2
    53   127   126    2
    54    45    46    2
    55    45    44    1
    56   121   120    1
    57   121   123   am
    58   161   162    2
    59   133   136    1
    60   133   132    1
    61    34    32    1
    62   120   117    1
    63    32    29    1
    64    32    33    1
    65    50    49   ar
    66   150   151    1
    67   142   144   ar
    68   142   139   ar
    69    47    44    1
    70    47    48    1
    71   144   145   ar
    72    29    30    1
    73    29    28    1
    74    43    44    1
    75   126   132   am
    76   126   125    1
    77    30    31    2
    78   136   137    1
    79    25    24    2
    80    49    48    1
    81    49    51   ar
    82   117   118    1
    83   117   116    1
    84   118   124   am
    85   118   119    2
    86   139   137   ar
    87   139   141   ar
    88   124   125    1
    89   151   152    1
    90   137   138   ar
    91   125   128    1
    92   145   143   ar
    93    28    24   am
    94    24    23    1
    95   128   129    1
    96   153   152    2
    97   116   110   am
    98   152   154   am
    99   141   143   ar
   100   141   140   ar
   101   129   130    1
   102   138   140   ar
   103    27    26    1
   104    65    64    1
   105    22    23    1
   106    22    17   am
   107    23    26    1
   108   130   131    1
   109    20    19    1
   110   110   111    2
   111   110   109    1
   112    60    61    1
   113    21    19    1
   114    16    17    1
   115    16    19    1
   116    16    15    1
   117    64    61    1
   118    17    18    2
   119   105   103   ar
   120   105   106   ar
   121    63    62    2
   122   114   112    1
   123   107   106    1
   124   103   101   ar
   125    61    62    1
   126   109   112    1
   127   109   108    1
   128   106   104   ar
   129    62    66   am
   130   112   113    1
   131     5     6    1
   132     5     2    1
   133   101   100    1
   134   101   102   ar
   135     6     7   ar
   136     6     8   ar
   137    66    67    1
   138   104   102   ar
   139     7     9   ar
   140     8    11   ar
   141     8    10   ar
   142   113   115    1
   143    11    13   ar
   144   100    97    1
   145     9    10   ar
   146     1     2    1
   147    10    12   ar
   148    13    14   ar
   149    67    70    1
   150    67    68    1
   151    12    14   ar
   152     2     3    1
   153    97    98    1
   154    97    96    1
   155     3     4    2
   156    70    71    1
   157    98    99    2
   158    94    92   ar
   159    94    95   ar
   160    92    90   ar
   161    72    71   ar
   162    72    74   ar
   163    68    69    2
   164    68    77   am
   165    71    73   ar
   166    95    93   ar
   167    77    78    1
   168    74    76   ar
   169    90    89    1
   170    90    91   ar
   171    89    86    1
   172    93    91   ar
   173    81    78    1
   174    81    82    1
   175    73    75   ar
   176    78    79    1
   177    76    75   ar
   178    86    87    1
   179    86    85    1
   180    87    88    2
   181    84    82   am
   182    82    83    2
   183    80    79    2
