@<TRIPOS>MOLECULE
tmp/4dkpA00.pdb
 184 183 0 0 0
SMALL
GASTEIGER

@<TRIPOS>ATOM
      1  N         29.0520   -3.3770   46.5270 N.3    69  TRP69      -0.1241
      2  CA        29.6070   -4.6660   46.9300 C.3    69  TRP69       0.1605
      3  C         31.1220   -4.6110   47.1140 C.2    69  TRP69       0.2264
      4  O         31.6600   -5.1930   48.0570 O.2    69  TRP69      -0.2867
      5  CB        29.2260   -5.7570   45.9240 C.3    69  TRP69       0.0550
      6  CG        27.8590   -6.3330   46.1570 C.ar   69  TRP69       0.0003
      7  CD1       26.6810   -5.6490   46.2200 C.ar   69  TRP69       0.0946
      8  CD2       27.5310   -7.7150   46.3530 C.ar   69  TRP69       0.0152
      9  NE1       25.6400   -6.5170   46.4470 N.ar   69  TRP69      -0.2442
     10  CE2       26.1350   -7.7900   46.5320 C.ar   69  TRP69       0.0810
     11  CE3       28.2820   -8.8940   46.3950 C.ar   69  TRP69       0.0012
     12  CZ2       25.4740   -8.9990   46.7480 C.ar   69  TRP69       0.0191
     13  CZ3       27.6240  -10.0920   46.6100 C.ar   69  TRP69       0.0001
     14  CH2       26.2350  -10.1350   46.7840 C.ar   69  TRP69       0.0015
     15  N         20.7290   -9.2340   44.6440 N.3   139  VAL139     -0.1231
     16  CA        21.4990  -10.0370   43.7030 C.3   139  VAL139      0.1692
     17  C         21.1640  -11.5130   43.8660 C.2   139  VAL139      0.2593
     18  O         21.4170  -12.1040   44.9160 O.2   139  VAL139     -0.2718
     19  CB        23.0150   -9.8340   43.8950 C.3   139  VAL139      0.0266
     20  CG1       23.7950  -10.6780   42.8980 C.3   139  VAL139      0.0020
     21  CG2       23.3760   -8.3640   43.7520 C.3   139  VAL139      0.0020
     22  N         20.5880  -12.1080   42.8270 N.am  140  SER140     -0.1938
     23  CA        20.2140  -13.5150   42.8850 C.3   140  SER140      0.2055
     24  C         20.2120  -14.1670   41.5110 C.2   140  SER140      0.2643
     25  O         20.3130  -13.4930   40.4850 O.2   140  SER140     -0.2714
     26  CB        18.8330  -13.6770   43.5240 C.3   140  SER140      0.2130
     27  OG        17.8250  -13.0890   42.7170 O.3   140  SER140     -0.2179
     28  N         20.1060  -15.4910   41.5040 N.am  141  THR141     -0.1950
     29  CA        19.9180  -16.2290   40.2640 C.3   141  THR141      0.1897
     30  C         18.6610  -17.0910   40.3250 C.2   141  THR141      0.2313
     31  O         18.1570  -17.3880   41.4090 O.2   141  THR141     -0.2863
     32  CB        21.1380  -17.1010   39.9070 C.3   141  THR141      0.1794
     33  OG1       21.3210  -18.1160   40.9030 O.3   141  THR141     -0.2208
     34  CG2       22.3960  -16.2500   39.8030 C.3   141  THR141      0.0378
     35  N         28.0280  -23.3230   35.6720 N.3   229  ASP229     -0.1239
     36  CA        28.4590  -22.9560   37.0150 C.3   229  ASP229      0.1674
     37  C         27.3470  -23.1610   38.0390 C.2   229  ASP229      0.2266
     38  O         26.1640  -23.1670   37.6920 O.2   229  ASP229     -0.2867
     39  CB        28.9490  -21.5060   37.0460 C.3   229  ASP229      0.1410
     40  CG        30.2400  -21.3110   36.2750 C.2   229  ASP229      0.3668
     41  OD1       31.0670  -22.2470   36.2510 O.co2 229  ASP229     -0.2456
     42  OD2       30.4290  -20.2220   35.6940 O.co2 229  ASP229     -0.2456
     43  N         26.3590  -21.1740   40.2300 N.3   231  GLU231     -0.1231
     44  CA        25.5660  -19.9570   40.3370 C.3   231  GLU231      0.1699
     45  C         24.3820  -19.9820   39.3750 C.2   231  GLU231      0.2592
     46  O         23.4010  -19.2720   39.5740 O.2   231  GLU231     -0.2718
     47  CB        26.4330  -18.7200   40.0810 C.3   231  GLU231      0.0402
     48  CG        27.4960  -18.4610   41.1430 C.3   231  GLU231      0.1161
     49  CD        28.7210  -19.3450   40.9890 C.2   231  GLU231      0.3649
     50  OE1       28.8970  -19.9370   39.9040 O.co2 231  GLU231     -0.2457
     51  OE2       29.5080  -19.4460   41.9540 O.co2 231  GLU231     -0.2457
     52  N         24.4740  -20.8120   38.3410 N.am  232  ILE232     -0.1980
     53  CA        23.4310  -20.8920   37.3240 C.3   232  ILE232      0.1595
     54  C         22.5220  -22.1050   37.5220 C.2   232  ILE232      0.2287
     55  O         21.3100  -22.0270   37.3110 O.2   232  ILE232     -0.2864
     56  CB        24.0390  -20.9410   35.9080 C.3   232  ILE232      0.0276
     57  CG1       25.0630  -19.8180   35.7300 C.3   232  ILE232      0.0022
     58  CG2       22.9500  -20.8530   34.8490 C.3   232  ILE232      0.0022
     59  CD1       24.4990  -18.4350   35.9640 C.3   232  ILE232      0.0001
     60  N         20.9940  -19.0660   43.6800 N.3   236  SER236     -0.1202
     61  CA        21.9860  -18.4360   44.5380 C.3   236  SER236      0.2020
     62  C         21.5150  -17.0550   44.9670 C.2   236  SER236      0.2619
     63  O         20.8940  -16.3280   44.1940 O.2   236  SER236     -0.2717
     64  CB        23.3450  -18.3510   43.8400 C.3   236  SER236      0.2103
     65  OG        23.3060  -17.4550   42.7460 O.3   236  SER236     -0.2182
     66  N         21.8050  -16.7070   46.2130 N.am  237  PHE237     -0.1961
     67  CA        21.4190  -15.4140   46.7580 C.3   237  PHE237      0.1771
     68  C         22.2550  -15.1250   47.9910 C.2   237  PHE237      0.2619
     69  O         22.9850  -15.9920   48.4710 O.2   237  PHE237     -0.2715
     70  CB        19.9250  -15.3860   47.1010 C.3   237  PHE237      0.0574
     71  CG        19.5050  -16.4320   48.0990 C.ar  237  PHE237     -0.0200
     72  CD1       19.2430  -17.7320   47.6940 C.ar  237  PHE237     -0.0042
     73  CD2       19.3550  -16.1110   49.4400 C.ar  237  PHE237     -0.0042
     74  CE1       18.8530  -18.6930   48.6060 C.ar  237  PHE237     -0.0003
     75  CE2       18.9640  -17.0690   50.3580 C.ar  237  PHE237     -0.0003
     76  CZ        18.7100  -18.3610   49.9390 C.ar  237  PHE237     -0.0000
     77  N         22.1560  -13.9040   48.5000 N.am  238  ASN238     -0.1972
     78  CA        22.9140  -13.5310   49.6840 C.3   238  ASN238      0.1688
     79  C         22.0020  -13.2320   50.8660 C.2   238  ASN238      0.2292
     80  O         21.1360  -12.3580   50.7960 O.2   238  ASN238     -0.2864
     81  CB        23.8310  -12.3420   49.3930 C.3   238  ASN238      0.1181
     82  CG        24.8310  -12.0970   50.5060 C.2   238  ASN238      0.2629
     83  OD1       24.4710  -11.6170   51.5780 O.2   238  ASN238     -0.2716
     84  ND2       26.0930  -12.4300   50.2570 N.am  238  ASN238     -0.0877
     85  N         26.5830  -16.3400   51.3710 N.3   243  PHE243     -0.1227
     86  CA        26.1630  -16.7840   50.0450 C.3   243  PHE243      0.1736
     87  C         25.4750  -18.1440   50.0950 C.2   243  PHE243      0.2595
     88  O         26.1020  -19.1560   50.4020 O.2   243  PHE243     -0.2718
     89  CB        27.3560  -16.8340   49.0880 C.3   243  PHE243      0.0547
     90  CG        27.9230  -15.4830   48.7570 C.ar  243  PHE243     -0.0202
     91  CD1       27.4240  -14.7500   47.6920 C.ar  243  PHE243     -0.0042
     92  CD2       28.9540  -14.9470   49.5090 C.ar  243  PHE243     -0.0042
     93  CE1       27.9430  -13.5060   47.3850 C.ar  243  PHE243     -0.0003
     94  CE2       29.4780  -13.7030   49.2070 C.ar  243  PHE243     -0.0003
     95  CZ        28.9720  -12.9830   48.1420 C.ar  243  PHE243     -0.0000
     96  N         24.1800  -18.1560   49.7910 N.am  244  PHE244     -0.1962
     97  CA        23.4010  -19.3870   49.7830 C.3   244  PHE244      0.1771
     98  C         23.2730  -19.9390   48.3680 C.2   244  PHE244      0.2619
     99  O         23.0890  -19.1850   47.4140 O.2   244  PHE244     -0.2715
    100  CB        22.0020  -19.1370   50.3500 C.3   244  PHE244      0.0574
    101  CG        21.9380  -19.1280   51.8520 C.ar  244  PHE244     -0.0200
    102  CD1       22.5680  -18.1350   52.5840 C.ar  244  PHE244     -0.0042
    103  CD2       21.2230  -20.1020   52.5300 C.ar  244  PHE244     -0.0042
    104  CE1       22.4990  -18.1240   53.9670 C.ar  244  PHE244     -0.0003
    105  CE2       21.1500  -20.0960   53.9110 C.ar  244  PHE244     -0.0003
    106  CZ        21.7890  -19.1050   54.6300 C.ar  244  PHE244     -0.0000
    107  N         23.3700  -21.2590   48.2450 N.am  245  TYR245     -0.1974
    108  CA        23.1660  -21.9480   46.9740 C.3   245  TYR245      0.1639
    109  C         22.1440  -23.0600   47.1790 C.2   245  TYR245      0.2290
    110  O         22.4100  -24.0230   47.8960 O.2   245  TYR245     -0.2864
    111  CB        24.4800  -22.5510   46.4760 C.3   245  TYR245      0.0560
    112  CG        25.4510  -21.5490   45.8960 C.ar  245  TYR245     -0.0198
    113  CD1       26.1710  -20.6900   46.7180 C.ar  245  TYR245     -0.0009
    114  CD2       25.6590  -21.4720   44.5250 C.ar  245  TYR245     -0.0009
    115  CE1       27.0630  -19.7770   46.1890 C.ar  245  TYR245      0.0417
    116  CE2       26.5490  -20.5640   43.9880 C.ar  245  TYR245      0.0417
    117  CZ        27.2470  -19.7190   44.8230 C.ar  245  TYR245      0.1957
    118  OH        28.1320  -18.8140   44.2890 O.3   245  TYR245     -0.2866
    119  N         33.1610  -18.6380   45.5100 N.3   271  ILE271     -0.1231
    120  CA        32.1660  -18.4020   44.4760 C.3   271  ILE271      0.1692
    121  C         32.7690  -17.7320   43.2490 C.2   271  ILE271      0.2592
    122  O         33.8760  -17.1940   43.2970 O.2   271  ILE271     -0.2718
    123  CB        31.0220  -17.5030   44.9900 C.3   271  ILE271      0.0266
    124  CG1       31.4940  -16.0540   45.1120 C.3   271  ILE271      0.0019
    125  CG2       30.4870  -18.0090   46.3240 C.3   271  ILE271      0.0020
    126  CD1       30.3730  -15.0720   45.3610 C.3   271  ILE271      0.0001
    127  N         32.0320  -17.7840   42.1450 N.am  272  ASN272     -0.1960
    128  CA        32.3410  -16.9700   40.9810 C.3   272  ASN272      0.1819
    129  C         31.6600  -15.6200   41.1510 C.2   272  ASN272      0.2621
    130  O         30.4400  -15.5490   41.2920 O.2   272  ASN272     -0.2715
    131  CB        31.8560  -17.6510   39.7020 C.3   272  ASN272      0.1195
    132  CG        32.6150  -18.9270   39.3990 C.2   272  ASN272      0.2630
    133  OD1       33.8380  -18.9800   39.5220 O.2   272  ASN272     -0.2716
    134  ND2       31.8890  -19.9660   39.0040 N.am  272  ASN272     -0.0877
    135  N         32.4510  -14.5530   41.1540 N.am  273  MET273     -0.1963
    136  CA        31.9250  -13.2160   41.4040 C.3   273  MET273      0.1736
    137  C         30.9880  -12.7710   40.2880 C.2   273  MET273      0.2616
    138  O         31.3390  -12.8330   39.1100 O.2   273  MET273     -0.2715
    139  CB        33.0690  -12.2150   41.5680 C.3   273  MET273      0.0427
    140  CG        34.0780  -12.6110   42.6330 C.3   273  MET273      0.0599
    141  SD        35.3970  -11.4020   42.8330 S.3   273  MET273     -0.1393
    142  CE        34.5010  -10.0440   43.5830 C.3   273  MET273      0.0692
    143  N         29.7950  -12.3230   40.6670 N.am  274  TRP274     -0.1974
    144  CA        28.8100  -11.8600   39.6950 C.3   274  TRP274      0.1640
    145  C         29.2780  -10.6080   38.9660 C.2   274  TRP274      0.2290
    146  O         28.8120  -10.3080   37.8680 O.2   274  TRP274     -0.2864
    147  CB        27.4530  -11.6160   40.3600 C.3   274  TRP274      0.0576
    148  CG        27.4430  -10.5230   41.3770 C.ar  274  TRP274      0.0006
    149  CD1       27.6460  -10.6510   42.7200 C.ar  274  TRP274      0.0946
    150  CD2       27.1980   -9.1340   41.1380 C.ar  274  TRP274      0.0152
    151  NE1       27.5490   -9.4250   43.3310 N.ar  274  TRP274     -0.2442
    152  CE2       27.2760   -8.4760   42.3810 C.ar  274  TRP274      0.0810
    153  CE3       26.9260   -8.3800   39.9920 C.ar  274  TRP274      0.0012
    154  CZ2       27.0900   -7.1020   42.5110 C.ar  274  TRP274      0.0191
    155  CZ3       26.7410   -7.0160   40.1230 C.ar  274  TRP274      0.0001
    156  CH2       26.8250   -6.3910   41.3730 C.ar  274  TRP274      0.0015
    157  N         31.8560  -10.3060   37.5150 N.3   276  GLY276     -0.1225
    158  CA        32.5630  -10.7660   36.3340 C.3   276  GLY276      0.1811
    159  C         34.0630  -10.8420   36.5390 C.2   276  GLY276      0.2280
    160  O         34.8090  -11.1830   35.6210 O.2   276  GLY276     -0.2866
    161  N         19.6330  -17.6140   34.0430 N.3   319  GLY319     -0.1210
    162  CA        19.9990  -16.2140   34.1570 C.3   319  GLY319      0.1956
    163  C         21.4600  -16.0780   34.5370 C.2   319  GLY319      0.2612
    164  O         22.3260  -16.6930   33.9160 O.2   319  GLY319     -0.2717
    165  N         21.7390  -15.2830   35.5650 N.am  320  GLY320     -0.1942
    166  CA        23.1050  -15.0750   36.0080 C.3   320  GLY320      0.2014
    167  C         23.5880  -13.6760   35.6880 C.2   320  GLY320      0.2639
    168  O         24.3100  -13.0630   36.4740 O.2   320  GLY320     -0.2714
    169  N         23.1980  -13.1750   34.5200 N.am  321  ASN321     -0.1958
    170  CA        23.4680  -11.7890   34.1740 C.3   321  ASN321      0.1819
    171  C         22.6320  -10.9020   35.0780 C.2   321  ASN321      0.2621
    172  O         21.4340  -10.7200   34.8580 O.2   321  ASN321     -0.2715
    173  CB        23.1570  -11.5150   32.7040 C.3   321  ASN321      0.1195
    174  CG        23.5310  -10.1060   32.2800 C.2   321  ASN321      0.2630
    175  OD1       24.1560   -9.3600   33.0360 O.2   321  ASN321     -0.2716
    176  ND2       23.1560   -9.7370   31.0610 N.am  321  ASN321     -0.0877
    177  N         23.2780  -10.3610   36.1040 N.am  322  ILE322     -0.1977
    178  CA        22.5980   -9.6150   37.1550 C.3   322  ILE322      0.1596
    179  C         21.8920   -8.3630   36.6300 C.2   322  ILE322      0.2287
    180  O         20.9530   -7.8660   37.2500 O.2   322  ILE322     -0.2864
    181  CB        23.5810   -9.2670   38.2980 C.3   322  ILE322      0.0276
    182  CG1       24.2990  -10.5340   38.7620 C.3   322  ILE322      0.0022
    183  CG2       22.8600   -8.6350   39.4730 C.3   322  ILE322      0.0022
    184  CD1       23.3540  -11.6260   39.2360 C.3   322  ILE322      0.0001
@<TRIPOS>BOND
     1   176   174   am
     2   174   173    1
     3   174   175    2
     4   173   170    1
     5   164   163    2
     6   161   162    1
     7   162   163    1
     8   170   169    1
     9   170   171    1
    10   169   167   am
    11   163   165   am
    12    58    56    1
    13   172   171    2
    14   171   177   am
    15   165   166    1
    16   160   159    2
    17    35    36    1
    18   167   166    1
    19   167   168    2
    20    42    40   ar
    21    57    56    1
    22    57    59    1
    23    56    53    1
    24   177   178    1
    25    41    40   ar
    26    40    39    1
    27   158   159    1
    28   158   157    1
    29   179   178    1
    30   179   180    2
    31    36    39    1
    32    36    37    1
    33   178   181    1
    34    55    54    2
    35    53    54    1
    36    53    52    1
    37    38    37    2
    38   146   145    2
    39   181   182    1
    40   181   183    1
    41    52    45   am
    42   182   184    1
    43   145   144    1
    44   134   132   am
    45   138   137    2
    46    45    46    2
    47    45    44    1
    48   132   133    2
    49   132   131    1
    50   144   147    1
    51   144   143    1
    52   131   128    1
    53    34    32    1
    54    50    49   ar
    55    32    29    1
    56    32    33    1
    57   153   155   ar
    58   153   150   ar
    59    47    44    1
    60    47    48    1
    61   155   156   ar
    62    43    44    1
    63    29    30    1
    64    29    28    1
    65   137   143   am
    66   137   136    1
    67    30    31    2
    68   147   148    1
    69    25    24    2
    70   128   129    1
    71   128   127    1
    72    49    48    1
    73    49    51   ar
    74   150   148   ar
    75   150   152   ar
    76   129   135   am
    77   129   130    2
    78   135   136    1
    79   156   154   ar
    80   148   149   ar
    81   136   139    1
    82    28    24   am
    83    24    23    1
    84   139   140    1
    85   127   121   am
    86   152   154   ar
    87   152   151   ar
    88   140   141    1
    89    27    26    1
    90   149   151   ar
    91    65    64    1
    92    22    23    1
    93    22    17   am
    94   141   142    1
    95    23    26    1
    96    20    19    1
    97   121   122    2
    98   121   120    1
    99    60    61    1
   100    16    17    1
   101    16    19    1
   102    16    15    1
   103    21    19    1
   104    64    61    1
   105    17    18    2
   106   116   114   ar
   107   116   117   ar
   108    63    62    2
   109   118   117    1
   110   120   123    1
   111   120   119    1
   112   114   112   ar
   113    61    62    1
   114   117   115   ar
   115    62    66   am
   116   123   124    1
   117   123   125    1
   118   124   126    1
   119   112   111    1
   120   112   113   ar
   121     5     6    1
   122     5     2    1
   123     6     7   ar
   124     6     8   ar
   125   115   113   ar
   126    66    67    1
   127     7     9   ar
   128     8    11   ar
   129     8    10   ar
   130    11    13   ar
   131     9    10   ar
   132   111   108    1
   133     1     2    1
   134    10    12   ar
   135    13    14   ar
   136    12    14   ar
   137    67    70    1
   138    67    68    1
   139     2     3    1
   140   108   109    1
   141   108   107    1
   142    70    71    1
   143     3     4    2
   144   109   110    2
   145    93    91   ar
   146    93    95   ar
   147    99    98    2
   148    91    90   ar
   149    72    71   ar
   150    72    74   ar
   151    68    69    2
   152    68    77   am
   153    71    73   ar
   154    95    94   ar
   155   107    98   am
   156    98    97    1
   157    77    78    1
   158    74    76   ar
   159    90    89    1
   160    90    92   ar
   161    89    86    1
   162    94    92   ar
   163    81    78    1
   164    81    82    1
   165    73    75   ar
   166    78    79    1
   167    97    96    1
   168    97   100    1
   169    96    87   am
   170    76    75   ar
   171    86    87    1
   172    86    85    1
   173    87    88    2
   174    84    82   am
   175   100   101    1
   176    82    83    2
   177    80    79    2
   178   101   103   ar
   179   101   102   ar
   180   103   105   ar
   181   102   104   ar
   182   105   106   ar
   183   104   106   ar
