@<TRIPOS>MOLECULE
tmp/4dkpB01.pdb
 99 98 0 0 0
SMALL
GASTEIGER

@<TRIPOS>ATOM
      1  N        -16.5120   -7.3810    2.0910 N.3     8  THR8       -0.1203
      2  CA       -15.1180   -7.7950    2.1420 C.3     8  THR8        0.1994
      3  C        -14.5520   -7.6190    3.5460 C.2     8  THR8        0.2618
      4  O        -14.4010   -6.4970    4.0280 O.2     8  THR8       -0.2717
      5  CB       -14.2700   -6.9870    1.1550 C.3     8  THR8        0.1784
      6  OG1      -14.5770   -5.5950    1.3020 O.3     8  THR8       -0.2211
      7  CG2      -14.5700   -7.4120   -0.2740 C.3     8  THR8        0.0376
      8  N        -14.2470   -8.7350    4.1970 N.am    9  LEU9       -0.1965
      9  CA       -13.6720   -8.7090    5.5340 C.3     9  LEU9        0.1728
     10  C        -12.1600   -8.5620    5.4470 C.2     9  LEU9        0.2616
     11  O        -11.5600   -8.8560    4.4130 O.2     9  LEU9       -0.2715
     12  CB       -14.0120   -9.9990    6.2810 C.3     9  LEU9        0.0311
     13  CG       -15.4800  -10.4250    6.3060 C.3     9  LEU9        0.0022
     14  CD1      -15.6300  -11.7800    6.9780 C.3     9  LEU9        0.0001
     15  CD2      -16.3290   -9.3790    7.0070 C.3     9  LEU9        0.0001
     16  N        -11.5470   -8.0970    6.5290 N.am   10  PHE10      -0.1960
     17  CA       -10.0950   -8.1210    6.6350 C.3    10  PHE10       0.1771
     18  C         -9.6910   -9.0120    7.8030 C.2    10  PHE10       0.2619
     19  O        -10.5080   -9.3110    8.6730 O.2    10  PHE10      -0.2715
     20  CB        -9.5090   -6.7100    6.7700 C.3    10  PHE10       0.0574
     21  CG        -9.8150   -6.0330    8.0800 C.ar   10  PHE10      -0.0200
     22  CD1      -10.9760   -5.2960    8.2400 C.ar   10  PHE10      -0.0042
     23  CD2       -8.9250   -6.1110    9.1400 C.ar   10  PHE10      -0.0042
     24  CE1      -11.2530   -4.6630    9.4390 C.ar   10  PHE10      -0.0003
     25  CE2       -9.1960   -5.4810   10.3420 C.ar   10  PHE10      -0.0003
     26  CZ       -10.3600   -4.7540   10.4900 C.ar   10  PHE10      -0.0000
     27  N         -8.4370   -9.4470    7.8160 N.am   11  CYS11      -0.1968
     28  CA        -7.9740  -10.3440    8.8670 C.3    11  CYS11       0.1712
     29  C         -6.9970   -9.6630    9.8180 C.2    11  CYS11       0.2296
     30  O         -6.3150   -8.7050    9.4510 O.2    11  CYS11      -0.2864
     31  CB        -7.3560  -11.6150    8.2730 C.3    11  CYS11       0.0983
     32  SG        -5.9060  -11.3470    7.2250 S.3    11  CYS11      -0.0798
     33  N          2.5950  -15.0470    5.8210 N.3    26  TRP26      -0.1241
     34  CA         1.3590  -14.6640    5.1440 C.3    26  TRP26       0.1605
     35  C          0.6020  -13.6000    5.9320 C.2    26  TRP26       0.2264
     36  O          0.2120  -12.5710    5.3840 O.2    26  TRP26      -0.2867
     37  CB         0.4610  -15.8810    4.9070 C.3    26  TRP26       0.0550
     38  CG        -0.8240  -15.5330    4.2090 C.ar   26  TRP26       0.0003
     39  CD1       -1.0210  -15.4160    2.8650 C.ar   26  TRP26       0.0946
     40  CD2       -2.0870  -15.2460    4.8250 C.ar   26  TRP26       0.0152
     41  NE1       -2.3270  -15.0770    2.6040 N.ar   26  TRP26      -0.2442
     42  CE2       -3.0020  -14.9670    3.7900 C.ar   26  TRP26       0.0810
     43  CE3       -2.5320  -15.2000    6.1500 C.ar   26  TRP26       0.0012
     44  CZ2       -4.3360  -14.6490    4.0390 C.ar   26  TRP26       0.0191
     45  CZ3       -3.8560  -14.8840    6.3950 C.ar   26  TRP26       0.0001
     46  CH2       -4.7420  -14.6120    5.3450 C.ar   26  TRP26       0.0015
     47  N          1.8950   -9.8650    5.8490 N.3    29  HIS29      -0.1226
     48  CA         1.6060   -9.0010    4.7070 C.3    29  HIS29       0.1752
     49  C          0.1230   -8.9530    4.3330 C.2    29  HIS29       0.2595
     50  O         -0.3090   -8.0520    3.6140 O.2    29  HIS29      -0.2718
     51  CB         2.4610   -9.3870    3.4910 C.3    29  HIS29       0.0759
     52  CG         2.1100  -10.7130    2.8910 C.ar   29  HIS29       0.0818
     53  ND1        0.9550  -10.9220    2.1660 N.ar   29  HIS29      -0.2268
     54  CD2        2.7690  -11.8950    2.8930 C.ar   29  HIS29       0.1154
     55  CE1        0.9140  -12.1770    1.7570 C.ar   29  HIS29       0.1986
     56  NE2        2.0040  -12.7890    2.1850 N.ar   29  HIS29      -0.2212
     57  N         -0.6550   -9.9110    4.8280 N.am   30  ALA30      -0.1980
     58  CA        -2.0690   -9.9960    4.4670 C.3    30  ALA30       0.1597
     59  C         -3.0170   -9.5990    5.5980 C.2    30  ALA30       0.2287
     60  O         -4.2070   -9.3870    5.3670 O.2    30  ALA30      -0.2864
     61  CB        -2.4070  -11.3930    3.9570 C.3    30  ALA30       0.0319
     62  N        -15.0230  -16.7740    2.5010 N.3    60  GLN60      -0.1245
     63  CA       -13.9130  -15.8300    2.5670 C.3    60  GLN60       0.1566
     64  C        -12.6970  -16.4140    3.2860 C.2    60  GLN60       0.2260
     65  O        -11.5580  -16.1730    2.8850 O.2    60  GLN60      -0.2867
     66  CB       -14.3500  -14.5120    3.2130 C.3    60  GLN60       0.0367
     67  CG       -15.3520  -13.7230    2.3800 C.3    60  GLN60       0.0905
     68  CD       -15.4810  -12.2810    2.8290 C.2    60  GLN60       0.2608
     69  OE1      -14.4820  -11.6000    3.0640 O.2    60  GLN60      -0.2717
     70  NE2      -16.7150  -11.8080    2.9540 N.am   60  GLN60      -0.0878
     71  N        -11.0150  -18.8530    0.8930 N.3    63  GLU63      -0.1231
     72  CA       -10.2020  -18.1460   -0.0900 C.3    63  GLU63       0.1699
     73  C         -8.8350  -17.7650    0.4790 C.2    63  GLU63       0.2592
     74  O         -7.8230  -17.8450   -0.2180 O.2    63  GLU63      -0.2718
     75  CB       -10.9410  -16.9060   -0.6040 C.3    63  GLU63       0.0402
     76  CG       -12.1760  -17.2300   -1.4390 C.3    63  GLU63       0.1161
     77  CD       -13.0570  -16.0200   -1.6910 C.2    63  GLU63       0.3649
     78  OE1      -12.6360  -14.8900   -1.3640 O.co2  63  GLU63      -0.2457
     79  OE2      -14.1780  -16.2010   -2.2140 O.co2  63  GLU63      -0.2457
     80  N         -8.8130  -17.3630    1.7470 N.am   64  ASP64      -0.1974
     81  CA        -7.5670  -17.0090    2.4270 C.3    64  ASP64       0.1709
     82  C         -6.6380  -18.2060    2.6080 C.2    64  ASP64       0.2293
     83  O         -5.4410  -18.1200    2.3320 O.2    64  ASP64      -0.2864
     84  CB        -7.8510  -16.3960    3.8010 C.3    64  ASP64       0.1436
     85  CG        -8.2570  -14.9410    3.7250 C.2    64  ASP64       0.3671
     86  OD1       -8.1750  -14.3440    2.6290 O.co2  64  ASP64      -0.2456
     87  OD2       -8.6420  -14.3910    4.7750 O.co2  64  ASP64      -0.2456
     88  N        -11.1760  -12.6140   11.9930 N.3   101  TYR101     -0.1241
     89  CA       -11.8570  -12.0030   10.8540 C.3   101  TYR101      0.1605
     90  C        -12.7210  -10.8240   11.2900 C.2   101  TYR101      0.2264
     91  O        -13.5380  -10.9440   12.2020 O.2   101  TYR101     -0.2867
     92  CB       -12.6710  -13.0430   10.0830 C.3   101  TYR101      0.0534
     93  CG       -11.8010  -13.9240    9.2200 C.ar  101  TYR101     -0.0201
     94  CD1      -11.4590  -13.5390    7.9310 C.ar  101  TYR101     -0.0009
     95  CD2      -11.2970  -15.1250    9.7010 C.ar  101  TYR101     -0.0009
     96  CE1      -10.6550  -14.3300    7.1400 C.ar  101  TYR101      0.0417
     97  CE2      -10.4890  -15.9260    8.9150 C.ar  101  TYR101      0.0417
     98  CZ       -10.1710  -15.5210    7.6350 C.ar  101  TYR101      0.1957
     99  OH        -9.3670  -16.3070    6.8430 O.3   101  TYR101     -0.2866
@<TRIPOS>BOND
     1    79    77   ar
     2    77    76    1
     3    77    78   ar
     4    76    75    1
     5    75    72    1
     6     7     5    1
     7    74    73    2
     8    72    73    1
     9    72    71    1
    10    73    80   am
    11     5     6    1
    12     5     2    1
    13    80    81    1
    14    55    53   ar
    15    55    56   ar
    16     1     2    1
    17     2     3    1
    18    53    52   ar
    19    56    54   ar
    20    83    82    2
    21    67    68    1
    22    67    66    1
    23    81    82    1
    24    81    84    1
    25    62    63    1
    26    63    66    1
    27    63    64    1
    28    41    39   ar
    29    41    42   ar
    30    86    85   ar
    31    68    70   am
    32    68    69    2
    33    39    38   ar
    34    65    64    2
    35    52    54   ar
    36    52    51    1
    37    51    48    1
    38     3     4    2
    39     3     8   am
    40    50    49    2
    41    85    84    1
    42    85    87   ar
    43    42    44   ar
    44    42    40   ar
    45    61    58    1
    46    44    46   ar
    47     8     9    1
    48    38    40   ar
    49    38    37    1
    50    49    48    1
    51    49    57   am
    52    11    10    2
    53    58    57    1
    54    58    59    1
    55    48    47    1
    56    40    43   ar
    57    37    34    1
    58    34    33    1
    59    34    35    1
    60    46    45   ar
    61    60    59    2
    62    36    35    2
    63    10     9    1
    64    10    16   am
    65     9    12    1
    66    43    45   ar
    67    12    13    1
    68    13    14    1
    69    13    15    1
    70    16    17    1
    71    17    20    1
    72    17    18    1
    73    20    21    1
    74    99    98    1
    75    96    98   ar
    76    96    94   ar
    77    32    31    1
    78    98    97   ar
    79    18    27   am
    80    18    19    2
    81    27    28    1
    82    94    93   ar
    83    21    22   ar
    84    21    23   ar
    85    22    24   ar
    86    31    28    1
    87    28    29    1
    88    97    95   ar
    89    23    25   ar
    90    93    95   ar
    91    93    92    1
    92    24    26   ar
    93    30    29    2
    94    92    89    1
    95    25    26   ar
    96    89    90    1
    97    89    88    1
    98    90    91    2
