@<TRIPOS>MOLECULE
tmp/4dkqA00.pdb
 177 173 0 0 0
SMALL
GASTEIGER

@<TRIPOS>ATOM
      1  N         -2.2960   -4.2430   21.2770 N.3    69  TRP69      -0.1241
      2  CA        -1.6700   -5.5300   21.5950 C.3    69  TRP69       0.1605
      3  C         -0.1450   -5.4190   21.6980 C.2    69  TRP69       0.2264
      4  O          0.4830   -6.1260   22.4820 O.2    69  TRP69      -0.2867
      5  CB        -2.0640   -6.5970   20.5690 C.3    69  TRP69       0.0550
      6  CG        -3.4040   -7.2260   20.8410 C.ar   69  TRP69       0.0003
      7  CD1       -4.6020   -6.5810   20.9510 C.ar   69  TRP69       0.0946
      8  CD2       -3.6810   -8.6190   21.0230 C.ar   69  TRP69       0.0152
      9  NE1       -5.6070   -7.4860   21.1980 N.ar   69  TRP69      -0.2442
     10  CE2       -5.0660   -8.7480   21.2440 C.ar   69  TRP69       0.0810
     11  CE3       -2.8910   -9.7750   21.0170 C.ar   69  TRP69       0.0012
     12  CZ2       -5.6810   -9.9770   21.4630 C.ar   69  TRP69       0.0191
     13  CZ3       -3.5000  -10.9990   21.2350 C.ar   69  TRP69       0.0001
     14  CH2       -4.8810  -11.0930   21.4520 C.ar   69  TRP69       0.0015
     15  N        -10.4780  -10.3730   19.3380 N.3   139  VAL139     -0.1231
     16  CA        -9.6790  -11.1420   18.3980 C.3   139  VAL139      0.1692
     17  C        -10.0060  -12.6230   18.5460 C.2   139  VAL139      0.2593
     18  O         -9.8680  -13.1960   19.6280 O.2   139  VAL139     -0.2718
     19  CB        -8.1750  -10.9220   18.6410 C.3   139  VAL139      0.0266
     20  CG1       -7.3450  -11.7680   17.6790 C.3   139  VAL139      0.0020
     21  CG2       -7.8300   -9.4580   18.4900 C.3   139  VAL139      0.0020
     22  N        -10.4500  -13.2420   17.4580 N.am  140  SER140     -0.1938
     23  CA       -10.7470  -14.6700   17.4730 C.3   140  SER140      0.2055
     24  C        -10.6900  -15.2390   16.0670 C.2   140  SER140      0.2643
     25  O        -10.6810  -14.4930   15.0830 O.2   140  SER140     -0.2714
     26  CB       -12.1440  -14.9130   18.0390 C.3   140  SER140      0.2130
     27  OG       -13.1300  -14.4490   17.1250 O.3   140  SER140     -0.2179
     28  N        -10.6500  -16.5650   15.9780 N.am  141  THR141     -0.1950
     29  CA       -10.8370  -17.2480   14.7010 C.3   141  THR141      0.1897
     30  C        -12.0600  -18.1660   14.7560 C.2   141  THR141      0.2313
     31  O        -12.5350  -18.5110   15.8390 O.2   141  THR141     -0.2863
     32  CB        -9.6140  -18.0890   14.3170 C.3   141  THR141      0.1794
     33  OG1       -9.4890  -19.1830   15.2320 O.3   141  THR141     -0.2208
     34  CG2       -8.3510  -17.2440   14.3530 C.3   141  THR141      0.0378
     35  N         -2.2010  -23.5540   10.3970 N.3   229  ASP229     -0.1239
     36  CA        -1.7470  -23.3190   11.7600 C.3   229  ASP229      0.1674
     37  C         -2.8590  -23.6190   12.7560 C.2   229  ASP229      0.2266
     38  O         -4.0420  -23.5350   12.4230 O.2   229  ASP229     -0.2867
     39  CB        -1.2840  -21.8700   11.9320 C.3   229  ASP229      0.1410
     40  CG         0.0500  -21.5980   11.2630 C.2   229  ASP229      0.3668
     41  OD1        0.8360  -22.5530   11.0780 O.co2 229  ASP229     -0.2456
     42  OD2        0.3140  -20.4230   10.9330 O.co2 229  ASP229     -0.2456
     43  N         -3.9410  -21.9050   15.1210 N.3   231  GLU231     -0.1231
     44  CA        -4.7830  -20.7430   15.3640 C.3   231  GLU231      0.1699
     45  C         -5.9930  -20.7260   14.4300 C.2   231  GLU231      0.2592
     46  O         -7.0240  -20.1390   14.7500 O.2   231  GLU231     -0.2718
     47  CB        -3.9700  -19.4530   15.2250 C.3   231  GLU231      0.0402
     48  CG        -2.9150  -19.2550   16.3260 C.3   231  GLU231      0.1161
     49  CD        -1.6800  -20.1320   16.1520 C.2   231  GLU231      0.3649
     50  OE1       -1.4650  -20.6650   15.0450 O.co2 231  GLU231     -0.2457
     51  OE2       -0.9140  -20.2840   17.1300 O.co2 231  GLU231     -0.2457
     52  N         -5.8600  -21.3880   13.2840 N.am  232  ILE232     -0.1980
     53  CA        -6.9150  -21.4190   12.2700 C.3   232  ILE232      0.1595
     54  C         -7.7340  -22.7040   12.3130 C.2   232  ILE232      0.2287
     55  O         -8.9530  -22.6860   12.1280 O.2   232  ILE232     -0.2864
     56  CB        -6.3260  -21.3020   10.8490 C.3   232  ILE232      0.0276
     57  CG1       -5.3170  -20.1550   10.7790 C.3   232  ILE232      0.0022
     58  CG2       -7.4360  -21.1400    9.8210 C.3   232  ILE232      0.0022
     59  CD1       -5.8490  -18.8610   11.3170 C.3   232  ILE232      0.0001
     60  N         -9.5790  -20.0650   18.1140 N.3   236  SER236     -0.1202
     61  CA        -8.6700  -19.4210   19.0480 C.3   236  SER236      0.2020
     62  C         -9.1880  -18.0560   19.4830 C.2   236  SER236      0.2619
     63  O         -9.8000  -17.3260   18.7030 O.2   236  SER236     -0.2717
     64  CB        -7.2530  -19.3210   18.4730 C.3   236  SER236      0.2103
     65  OG        -7.2420  -18.6590   17.2240 O.3   236  SER236     -0.2182
     66  N         -8.9500  -17.7300   20.7450 N.am  237  PHE237     -0.1961
     67  CA        -9.3790  -16.4600   21.3040 C.3   237  PHE237      0.1771
     68  C         -8.5890  -16.2250   22.5720 C.2   237  PHE237      0.2619
     69  O         -7.8560  -17.1020   23.0230 O.2   237  PHE237     -0.2715
     70  CB       -10.8770  -16.4840   21.6140 C.3   237  PHE237      0.0574
     71  CG       -11.2890  -17.6040   22.5240 C.ar  237  PHE237     -0.0200
     72  CD1      -11.4490  -18.8870   22.0320 C.ar  237  PHE237     -0.0042
     73  CD2      -11.5240  -17.3730   23.8700 C.ar  237  PHE237     -0.0042
     74  CE1      -11.8310  -19.9220   22.8710 C.ar  237  PHE237     -0.0003
     75  CE2      -11.9070  -18.4060   24.7140 C.ar  237  PHE237     -0.0003
     76  CZ       -12.0580  -19.6770   24.2140 C.ar  237  PHE237     -0.0000
     77  N         -8.7350  -15.0400   23.1450 N.am  238  ASN238     -0.1972
     78  CA        -8.0590  -14.7290   24.3920 C.3   238  ASN238      0.1688
     79  C         -9.0680  -14.5240   25.5150 C.2   238  ASN238      0.2292
     80  O         -9.9950  -13.7270   25.3890 O.2   238  ASN238     -0.2864
     81  CB        -7.1720  -13.4930   24.2370 C.3   238  ASN238      0.1181
     82  CG        -6.2700  -13.2840   25.4270 C.2   238  ASN238      0.2629
     83  OD1       -6.7410  -12.9910   26.5240 O.2   238  ASN238     -0.2716
     84  ND2       -4.9630  -13.4520   25.2250 N.am  238  ASN238     -0.0877
     85  N         -4.4000  -17.5310   26.0840 N.3   243  PHE243     -0.1241
     86  CA        -4.7780  -17.9300   24.7290 C.3   243  PHE243      0.1605
     87  C         -5.3990  -19.3200   24.6880 C.2   243  PHE243      0.2264
     88  O         -4.7130  -20.3210   24.9050 O.2   243  PHE243     -0.2867
     89  CB        -3.5750  -17.8540   23.7820 C.3   243  PHE243      0.0534
     90  CG        -3.0730  -16.4510   23.5550 C.ar  243  PHE243     -0.0203
     91  CD1       -3.6360  -15.6500   22.5740 C.ar  243  PHE243     -0.0042
     92  CD2       -2.0400  -15.9380   24.3210 C.ar  243  PHE243     -0.0042
     93  CE1       -3.1760  -14.3540   22.3590 C.ar  243  PHE243     -0.0003
     94  CE2       -1.5810  -14.6450   24.1190 C.ar  243  PHE243     -0.0003
     95  CZ        -2.1520  -13.8520   23.1340 C.ar  243  PHE243     -0.0000
     96  N         -7.2680  -22.4340   22.7160 N.3   245  TYR245     -0.1241
     97  CA        -7.4350  -23.1070   21.4310 C.3   245  TYR245      0.1605
     98  C         -8.4540  -24.2230   21.6080 C.2   245  TYR245      0.2264
     99  O         -8.2070  -25.1730   22.3530 O.2   245  TYR245     -0.2867
    100  CB        -6.1120  -23.7090   20.9590 C.3   245  TYR245      0.0534
    101  CG        -5.0720  -22.6970   20.5290 C.ar  245  TYR245     -0.0201
    102  CD1       -4.5580  -21.7750   21.4350 C.ar  245  TYR245     -0.0009
    103  CD2       -4.5960  -22.6710   19.2230 C.ar  245  TYR245     -0.0009
    104  CE1       -3.6020  -20.8530   21.0540 C.ar  245  TYR245      0.0417
    105  CE2       -3.6340  -21.7480   18.8290 C.ar  245  TYR245      0.0417
    106  CZ        -3.1420  -20.8440   19.7530 C.ar  245  TYR245      0.1957
    107  OH        -2.1890  -19.9190   19.3830 O.3   245  TYR245     -0.2866
    108  N          2.4650  -18.9950   20.4600 N.3   271  ILE271     -0.1231
    109  CA         1.4230  -18.5780   19.5350 C.3   271  ILE271      0.1692
    110  C          1.9540  -18.0310   18.2160 C.2   271  ILE271      0.2592
    111  O          2.9990  -17.3900   18.1740 O.2   271  ILE271     -0.2718
    112  CB         0.5530  -17.4770   20.1710 C.3   271  ILE271      0.0266
    113  CG1        0.1660  -17.8590   21.6000 C.3   271  ILE271      0.0019
    114  CG2       -0.6780  -17.2070   19.3220 C.3   271  ILE271      0.0020
    115  CD1       -0.7410  -19.0620   21.6840 C.3   271  ILE271      0.0001
    116  N          1.2100  -18.2760   17.1440 N.am  272  ASN272     -0.1960
    117  CA         1.4500  -17.6180   15.8710 C.3   272  ASN272      0.1819
    118  C          0.6780  -16.3110   15.8900 C.2   272  ASN272      0.2621
    119  O         -0.5470  -16.3110   15.9730 O.2   272  ASN272     -0.2715
    120  CB         0.9770  -18.4860   14.7080 C.3   272  ASN272      0.1195
    121  CG         1.9120  -19.6400   14.4250 C.2   272  ASN272      0.2630
    122  OD1        3.1150  -19.4530   14.2640 O.2   272  ASN272     -0.2716
    123  ND2        1.3610  -20.8420   14.3640 N.am  272  ASN272     -0.0877
    124  N          1.3930  -15.1970   15.8350 N.am  273  MET273     -0.1963
    125  CA         0.7590  -13.8990   16.0290 C.3   273  MET273      0.1736
    126  C         -0.1610  -13.5060   14.8790 C.2   273  MET273      0.2616
    127  O          0.2090  -13.6260   13.7190 O.2   273  MET273     -0.2715
    128  CB         1.8130  -12.8250   16.2790 C.3   273  MET273      0.0427
    129  CG         2.5140  -12.9570   17.6340 C.3   273  MET273      0.0599
    130  SD         3.6970  -11.6360   17.7690 S.3   273  MET273     -0.1393
    131  CE         2.5730  -10.2630   17.8750 C.3   273  MET273      0.0692
    132  N         -1.3680  -13.0480   15.2140 N.am  274  TRP274     -0.1974
    133  CA        -2.3340  -12.6340   14.1960 C.3   274  TRP274      0.1640
    134  C         -1.8610  -11.4040   13.4290 C.2   274  TRP274      0.2290
    135  O         -2.3750  -11.0880   12.3500 O.2   274  TRP274     -0.2864
    136  CB        -3.7200  -12.3880   14.8040 C.3   274  TRP274      0.0576
    137  CG        -3.7580  -11.3510   15.8990 C.ar  274  TRP274      0.0006
    138  CD1       -3.6500  -11.5740   17.2430 C.ar  274  TRP274      0.0946
    139  CD2       -3.9360   -9.9390   15.7400 C.ar  274  TRP274      0.0152
    140  NE1       -3.7410  -10.3890   17.9280 N.ar  274  TRP274     -0.2442
    141  CE2       -3.9110   -9.3690   17.0300 C.ar  274  TRP274      0.0810
    142  CE3       -4.1020   -9.1010   14.6330 C.ar  274  TRP274      0.0012
    143  CZ2       -4.0560   -7.9980   17.2420 C.ar  274  TRP274      0.0191
    144  CZ3       -4.2430   -7.7390   14.8450 C.ar  274  TRP274      0.0001
    145  CH2       -4.2140   -7.2000   16.1400 C.ar  274  TRP274      0.0015
    146  N          0.8140  -11.3220   12.0530 N.3   276  GLY276     -0.1225
    147  CA         1.5390  -11.9060   10.9370 C.3   276  GLY276      0.1811
    148  C          3.0440  -11.7740   11.0630 C.2   276  GLY276      0.2280
    149  O          3.7790  -12.0230   10.1100 O.2   276  GLY276     -0.2866
    150  N          5.2080  -13.3550   13.3030 N.3   278  GLY278     -0.1225
    151  CA         5.9890  -14.4880   13.7840 C.3   278  GLY278      0.1811
    152  C          5.4010  -15.1830   14.9980 C.2   278  GLY278      0.2280
    153  O          4.1800  -15.2860   15.1250 O.2   278  GLY278     -0.2866
    154  N        -10.8720  -18.2560    9.0980 N.3   319  GLY319     -0.1210
    155  CA       -10.5240  -16.9820    9.6940 C.3   319  GLY319      0.1956
    156  C         -9.0200  -16.8480    9.7750 C.2   319  GLY319      0.2612
    157  O         -8.2910  -17.5450    9.0690 O.2   319  GLY319     -0.2717
    158  N         -8.5480  -15.9430   10.6240 N.am  320  GLY320     -0.1942
    159  CA        -7.1220  -15.7240   10.7740 C.3   320  GLY320      0.2014
    160  C         -6.6870  -14.3630   10.2700 C.2   320  GLY320      0.2639
    161  O         -5.6360  -13.8580   10.6680 O.2   320  GLY320     -0.2714
    162  N         -7.4740  -13.7870    9.3600 N.am  321  ASN321     -0.1958
    163  CA        -7.2880  -12.4000    8.9610 C.3   321  ASN321      0.1819
    164  C         -8.1990  -11.5630    9.8350 C.2   321  ASN321      0.2621
    165  O         -9.3930  -11.4550    9.5610 O.2   321  ASN321     -0.2715
    166  CB        -7.6380  -12.1920    7.4840 C.3   321  ASN321      0.1195
    167  CG        -7.4850  -10.7470    7.0460 C.2   321  ASN321      0.2630
    168  OD1       -7.0880   -9.8870    7.8320 O.2   321  ASN321     -0.2716
    169  ND2       -7.8010  -10.4730    5.7870 N.am  321  ASN321     -0.0877
    170  N         -7.6410  -11.0010   10.9020 N.am  322  ILE322     -0.1977
    171  CA        -8.4480  -10.3170   11.9130 C.3   322  ILE322      0.1596
    172  C         -9.1630   -9.0820   11.3520 C.2   322  ILE322      0.2287
    173  O        -10.1310   -8.5900   11.9360 O.2   322  ILE322     -0.2864
    174  CB        -7.6000   -9.9560   13.1490 C.3   322  ILE322      0.0276
    175  CG1       -6.8970  -11.2110   13.6700 C.3   322  ILE322      0.0022
    176  CG2       -8.4640   -9.3570   14.2480 C.3   322  ILE322      0.0022
    177  CD1       -7.8540  -12.3620   13.9840 C.3   322  ILE322      0.0001
@<TRIPOS>BOND
     1   169   167   am
     2   167   166    1
     3   167   168    2
     4   166   163    1
     5   163   162    1
     6   163   164    1
     7   157   156    2
     8   154   155    1
     9   162   160   am
    10   165   164    2
    11   155   156    1
    12   156   158   am
    13    58    56    1
    14   164   170   am
    15   149   148    2
    16   160   161    2
    17   160   159    1
    18    35    36    1
    19   158   159    1
    20    57    56    1
    21    57    59    1
    22    56    53    1
    23   170   171    1
    24    42    40   ar
    25   147   148    1
    26   147   146    1
    27    41    40   ar
    28    40    39    1
    29   172   171    1
    30   172   173    2
    31    36    39    1
    32    36    37    1
    33   171   174    1
    34    55    54    2
    35    53    54    1
    36    53    52    1
    37   135   134    2
    38    38    37    2
    39   174   175    1
    40   174   176    1
    41    52    45   am
    42   150   151    1
    43   134   133    1
    44   175   177    1
    45   127   126    2
    46   151   152    1
    47   133   136    1
    48   133   132    1
    49   122   121    2
    50    32    34    1
    51    32    29    1
    52    32    33    1
    53   123   121   am
    54   121   120    1
    55    45    46    2
    56    45    44    1
    57   142   144   ar
    58   142   139   ar
    59    29    30    1
    60    29    28    1
    61   120   117    1
    62    30    31    2
    63   136   137    1
    64   144   145   ar
    65   126   132   am
    66   126   125    1
    67   152   153    2
    68    50    49   ar
    69    25    24    2
    70    43    44    1
    71    47    44    1
    72    47    48    1
    73   139   137   ar
    74   139   141   ar
    75   124   118   am
    76   124   125    1
    77   117   118    1
    78   117   116    1
    79   118   119    2
    80   137   138   ar
    81    28    24   am
    82   125   128    1
    83    24    23    1
    84   145   143   ar
    85    49    48    1
    86    49    51   ar
    87   128   129    1
    88   141   143   ar
    89   141   140   ar
    90    27    26    1
    91   116   110   am
    92    65    64    1
    93   138   140   ar
    94    22    23    1
    95    22    17   am
    96    23    26    1
    97   129   130    1
    98    20    19    1
    99   130   131    1
   100    60    61    1
   101   111   110    2
   102   110   109    1
   103    16    17    1
   104    16    19    1
   105    16    15    1
   106    64    61    1
   107    21    19    1
   108    17    18    2
   109    63    62    2
   110   105   103   ar
   111   105   106   ar
   112    61    62    1
   113   103   101   ar
   114   114   112    1
   115   107   106    1
   116    62    66   am
   117   109   112    1
   118   109   108    1
   119   106   104   ar
   120   112   113    1
   121   101   100    1
   122   101   102   ar
   123     5     6    1
   124     5     2    1
   125    66    67    1
   126     6     7   ar
   127     6     8   ar
   128     7     9   ar
   129   100    97    1
   130    11     8   ar
   131    11    13   ar
   132     8    10   ar
   133   104   102   ar
   134     9    10   ar
   135    13    14   ar
   136    10    12   ar
   137     1     2    1
   138    67    70    1
   139    67    68    1
   140    97    98    1
   141    97    96    1
   142    14    12   ar
   143     2     3    1
   144   113   115    1
   145    98    99    2
   146    70    71    1
   147     3     4    2
   148    72    71   ar
   149    72    74   ar
   150    93    91   ar
   151    93    95   ar
   152    71    73   ar
   153    68    69    2
   154    68    77   am
   155    91    90   ar
   156    74    76   ar
   157    95    94   ar
   158    77    78    1
   159    90    89    1
   160    90    92   ar
   161    89    86    1
   162    73    75   ar
   163    94    92   ar
   164    76    75   ar
   165    81    78    1
   166    81    82    1
   167    78    79    1
   168    87    86    1
   169    87    88    2
   170    86    85    1
   171    84    82   am
   172    80    79    2
   173    82    83    2
