@<TRIPOS>MOLECULE
tmp/4dktA00.pdb
 155 148 0 0 0
SMALL
GASTEIGER

@<TRIPOS>ATOM
      1  N        -31.2820   23.1540  -15.2030 N.3   317  ASP317     -0.1225
      2  CA       -30.9970   22.7450  -16.6000 C.3   317  ASP317      0.1805
      3  C        -30.2740   21.3960  -16.8120 C.2   317  ASP317      0.2598
      4  O        -30.1130   20.9520  -17.9500 O.2   317  ASP317     -0.2718
      5  CB       -30.3480   23.8870  -17.4440 C.3   317  ASP317      0.1424
      6  CG       -28.8100   23.9860  -17.2920 C.2   317  ASP317      0.3668
      7  OD1      -28.1510   23.0430  -16.7980 O.co2 317  ASP317     -0.2456
      8  OD2      -28.2510   25.0310  -17.6930 O.co2 317  ASP317     -0.2456
      9  N        -29.8560   20.7420  -15.7330 N.am  318  ASP318     -0.1960
     10  CA       -29.0860   19.4960  -15.8430 C.3   318  ASP318      0.1840
     11  C        -29.9640   18.2410  -15.7330 C.2   318  ASP318      0.2622
     12  O        -30.4890   17.9440  -14.6620 O.2   318  ASP318     -0.2715
     13  CB       -27.9910   19.4790  -14.7680 C.3   318  ASP318      0.1450
     14  CG       -27.1890   18.1830  -14.7460 C.2   318  ASP318      0.3671
     15  OD1      -27.1760   17.4530  -15.7610 O.co2 318  ASP318     -0.2456
     16  OD2      -26.5510   17.9080  -13.7060 O.co2 318  ASP318     -0.2456
     17  N        -30.1090   17.5010  -16.8320 N.am  319  GLN319     -0.1963
     18  CA       -30.9760   16.3150  -16.8520 C.3   319  GLN319      0.1733
     19  C        -30.2760   14.9670  -16.6600 C.2   319  GLN319      0.2616
     20  O        -30.9320   13.9230  -16.7110 O.2   319  GLN319     -0.2715
     21  CB       -31.8380   16.2700  -18.1200 C.3   319  GLN319      0.0408
     22  CG       -31.5710   17.3860  -19.1100 C.3   319  GLN319      0.0908
     23  CD       -31.0670   16.8760  -20.4410 C.2   319  GLN319      0.2608
     24  OE1      -31.7720   16.1640  -21.1600 O.2   319  GLN319     -0.2717
     25  NE2      -29.8370   17.2390  -20.7780 N.am  319  GLN319     -0.0878
     26  N        -28.9620   14.9730  -16.4410 N.am  320  TRP320     -0.1974
     27  CA       -28.2280   13.7120  -16.3200 C.3   320  TRP320      0.1640
     28  C        -27.9350   13.3720  -14.8690 C.2   320  TRP320      0.2290
     29  O        -27.0420   13.9510  -14.2500 O.2   320  TRP320     -0.2864
     30  CB       -26.9160   13.7870  -17.0980 C.3   320  TRP320      0.0576
     31  CG       -27.0770   14.4280  -18.4350 C.ar  320  TRP320      0.0006
     32  CD1      -26.7700   15.7130  -18.7670 C.ar  320  TRP320      0.0946
     33  CD2      -27.6080   13.8190  -19.6200 C.ar  320  TRP320      0.0152
     34  NE1      -27.0690   15.9420  -20.0890 N.ar  320  TRP320     -0.2442
     35  CE2      -27.5840   14.7970  -20.6330 C.ar  320  TRP320      0.0810
     36  CE3      -28.0980   12.5450  -19.9190 C.ar  320  TRP320      0.0012
     37  CZ2      -28.0310   14.5370  -21.9270 C.ar  320  TRP320      0.0191
     38  CZ3      -28.5370   12.2900  -21.2030 C.ar  320  TRP320      0.0001
     39  CH2      -28.5030   13.2810  -22.1910 C.ar  320  TRP320      0.0015
     40  N        -24.6070   10.7850  -14.3250 N.3   323  ASP323     -0.1239
     41  CA       -23.2550   11.3270  -14.3660 C.3   323  ASP323      0.1674
     42  C        -22.7450   11.9430  -13.0550 C.2   323  ASP323      0.2266
     43  O        -21.5460   11.9080  -12.7820 O.2   323  ASP323     -0.2867
     44  CB       -23.1510   12.3470  -15.5030 C.3   323  ASP323      0.1410
     45  CG       -23.3780   11.7240  -16.8780 C.2   323  ASP323      0.3668
     46  OD1      -23.6240   10.5000  -16.9630 O.co2 323  ASP323     -0.2456
     47  OD2      -23.3190   12.4680  -17.8800 O.co2 323  ASP323     -0.2456
     48  N        -17.5630   16.4210  -11.1340 N.3   345  ARG345     -0.1245
     49  CA       -17.9420   17.1580  -12.3430 C.3   345  ARG345      0.1563
     50  C        -18.7510   18.4350  -12.0710 C.2   345  ARG345      0.2260
     51  O        -18.5410   19.4530  -12.7340 O.2   345  ARG345     -0.2867
     52  CB       -18.6650   16.2520  -13.3480 C.3   345  ARG345      0.0307
     53  CG       -20.1200   15.9840  -13.0350 C.3   345  ARG345      0.0489
     54  CD       -20.8860   15.6570  -14.3100 C.3   345  ARG345      0.2205
     55  NE       -22.2970   16.0180  -14.1940 N.pl3 345  ARG345     -0.0865
     56  CZ       -23.1700   15.9770  -15.1950 C.cat 345  ARG345      0.5346
     57  NH1      -22.7890   15.5880  -16.4050 N.pl3 345  ARG345      0.1354
     58  NH2      -24.4300   16.3290  -14.9820 N.pl3 345  ARG345      0.1354
     59  N        -22.1200   20.0750  -12.2080 N.3   347  ARG347     -0.1245
     60  CA       -22.7400   20.9870  -13.1630 C.3   347  ARG347      0.1563
     61  C        -24.0990   21.5530  -12.7360 C.2   347  ARG347      0.2260
     62  O        -24.1600   22.6610  -12.1990 O.2   347  ARG347     -0.2867
     63  CB       -22.8290   20.3180  -14.5390 C.3   347  ARG347      0.0307
     64  CG       -21.4710   20.1470  -15.2080 C.3   347  ARG347      0.0489
     65  CD       -21.5390   19.1940  -16.3860 C.3   347  ARG347      0.2205
     66  NE       -22.4630   19.6470  -17.4210 N.pl3 347  ARG347     -0.0865
     67  CZ       -22.9080   18.8750  -18.4070 C.cat 347  ARG347      0.5346
     68  NH1      -22.5160   17.6100  -18.4840 N.pl3 347  ARG347      0.1354
     69  NH2      -23.7490   19.3620  -19.3140 N.pl3 347  ARG347      0.1354
     70  N        -21.2040    8.2220  -15.6880 N.3   381  GLY381     -0.1225
     71  CA       -21.5310    7.4620  -16.8710 C.3   381  GLY381      0.1811
     72  C        -20.3460    6.5450  -17.1240 C.2   381  GLY381      0.2280
     73  O        -20.4940    5.4420  -17.6470 O.2   381  GLY381     -0.2866
     74  N        -18.4870   11.5140  -25.8640 N.3   442  VAL442     -0.1245
     75  CA       -18.6920   11.6780  -24.4320 C.3   442  VAL442      0.1561
     76  C        -17.6760   10.8350  -23.6680 C.2   442  VAL442      0.2260
     77  O        -17.1070   11.2870  -22.6750 O.2   442  VAL442     -0.2867
     78  CB       -20.1270   11.2880  -24.0280 C.3   442  VAL442      0.0252
     79  CG1      -20.2570   11.1800  -22.5210 C.3   442  VAL442      0.0019
     80  CG2      -21.1190   12.3010  -24.5740 C.3   442  VAL442      0.0019
     81  N        -18.0260    7.4830  -22.3300 N.3   444  HIS444     -0.1241
     82  CA       -18.4570    6.6600  -21.2030 C.3   444  HIS444      0.1621
     83  C        -18.6010    5.1890  -21.5660 C.2   444  HIS444      0.2264
     84  O        -19.0280    4.8560  -22.6660 O.2   444  HIS444     -0.2867
     85  CB       -19.7650    7.1940  -20.6270 C.3   444  HIS444      0.0745
     86  CG       -19.6580    8.5760  -20.0930 C.ar  444  HIS444      0.0817
     87  ND1      -20.7260    9.2610  -19.5440 N.ar  444  HIS444     -0.2268
     88  CD2      -18.6010    9.4260  -20.0150 C.ar  444  HIS444      0.1154
     89  CE1      -20.3360   10.4510  -19.1600 C.ar  444  HIS444      0.1986
     90  NE2      -19.0470   10.5830  -19.4340 N.ar  444  HIS444     -0.2212
     91  N        -20.6830    3.0080  -20.4610 N.3   446  ASP446     -0.1225
     92  CA       -22.0780    2.6090  -20.5860 C.3   446  ASP446      0.1805
     93  C        -22.5980    2.8770  -21.9980 C.2   446  ASP446      0.2597
     94  O        -23.6580    2.3920  -22.3830 O.2   446  ASP446     -0.2718
     95  CB       -22.9430    3.3110  -19.5290 C.3   446  ASP446      0.1424
     96  CG       -23.1350    4.7980  -19.8110 C.2   446  ASP446      0.3668
     97  OD1      -22.3900    5.3480  -20.6550 O.co2 446  ASP446     -0.2456
     98  OD2      -24.0310    5.4180  -19.1850 O.co2 446  ASP446     -0.2456
     99  N        -21.8360    3.6470  -22.7670 N.am  447  GLU447     -0.1979
    100  CA       -22.1930    3.9300  -24.1490 C.3   447  GLU447      0.1602
    101  C        -22.0450    2.6920  -25.0330 C.2   447  GLU447      0.2287
    102  O        -22.8820    2.4590  -25.8980 O.2   447  GLU447     -0.2864
    103  CB       -21.3710    5.0940  -24.7140 C.3   447  GLU447      0.0415
    104  CG       -21.7120    6.4650  -24.1360 C.3   447  GLU447      0.1163
    105  CD       -20.8780    7.5910  -24.7460 C.2   447  GLU447      0.3649
    106  OE1      -21.1870    8.0300  -25.8740 O.co2 447  GLU447     -0.2457
    107  OE2      -19.9100    8.0400  -24.0950 O.co2 447  GLU447     -0.2457
    108  N        -27.4630    1.3380  -23.9220 N.3   561  ASN561     -0.1240
    109  CA       -27.4560    2.2640  -22.8090 C.3   561  ASN561      0.1653
    110  C        -28.9020    2.3070  -22.3360 C.2   561  ASN561      0.2266
    111  O        -29.7150    3.0620  -22.8600 O.2   561  ASN561     -0.2867
    112  CB       -27.0390    3.6290  -23.3680 C.3   561  ASN561      0.1155
    113  CG       -26.6610    4.6290  -22.2990 C.2   561  ASN561      0.2627
    114  OD1      -27.1240    4.5570  -21.1670 O.2   561  ASN561     -0.2716
    115  ND2      -25.8220    5.5870  -22.6660 N.am  561  ASN561     -0.0877
    116  N        -29.2170   15.3390  -27.4360 N.3   612  ARG612     -0.1231
    117  CA       -28.3040   15.9590  -26.4740 C.3   612  ARG612      0.1694
    118  C        -27.0860   15.0710  -26.2510 C.2   612  ARG612      0.2592
    119  O        -26.2750   15.3330  -25.3580 O.2   612  ARG612     -0.2718
    120  CB       -28.9960   16.2200  -25.1370 C.3   612  ARG612      0.0321
    121  CG       -30.0760   17.2920  -25.1720 C.3   612  ARG612      0.0489
    122  CD       -29.5020   18.6560  -25.5300 C.3   612  ARG612      0.2205
    123  NE       -30.2910   19.7760  -25.0060 N.pl3 612  ARG612     -0.0865
    124  CZ       -31.6110   19.7730  -24.8150 C.cat 612  ARG612      0.5346
    125  NH1      -32.2090   20.8570  -24.3350 N.pl3 612  ARG612      0.1354
    126  NH2      -32.3440   18.7020  -25.1040 N.pl3 612  ARG612      0.1354
    127  N        -26.9820   14.0100  -27.0520 N.am  613  HIS613     -0.1962
    128  CA       -25.8850   13.0460  -26.9540 C.3   613  HIS613      0.1787
    129  C        -25.9220   12.2040  -25.6720 C.2   613  HIS613      0.2621
    130  O        -24.8890   11.9300  -25.0640 O.2   613  HIS613     -0.2715
    131  CB       -24.5380   13.7640  -27.1030 C.3   613  HIS613      0.0785
    132  CG       -24.4960   14.7400  -28.2440 C.ar  613  HIS613      0.0821
    133  ND1      -24.4980   16.1060  -28.0560 N.ar  613  HIS613     -0.2267
    134  CD2      -24.4570   14.5470  -29.5850 C.ar  613  HIS613      0.1154
    135  CE1      -24.4570   16.7130  -29.2300 C.ar  613  HIS613      0.1986
    136  NE2      -24.4320   15.7890  -30.1740 N.ar  613  HIS613     -0.2212
    137  N        -27.1240   11.8020  -25.2720 N.am  614  GLY614     -0.1940
    138  CA       -27.3130   10.9260  -24.1270 C.3   614  GLY614      0.2014
    139  C        -28.5770   10.1040  -24.2890 C.2   614  GLY614      0.2638
    140  O        -29.3090   10.2950  -25.2560 O.2   614  GLY614     -0.2714
    141  N        -28.8490    9.2010  -23.3510 N.am  615  GLU615     -0.1977
    142  CA       -29.9890    8.2830  -23.4820 C.3   615  GLU615      0.1602
    143  C        -30.6690    7.9790  -22.1360 C.2   615  GLU615      0.2287
    144  O        -30.4420    8.6750  -21.1470 O.2   615  GLU615     -0.2864
    145  CB       -29.5780    6.9760  -24.1810 C.3   615  GLU615      0.0415
    146  CG       -28.6490    7.1330  -25.3960 C.3   615  GLU615      0.1163
    147  CD       -29.3530    7.6380  -26.6520 C.2   615  GLU615      0.3649
    148  OE1      -28.6500    8.0050  -27.6200 O.co2 615  GLU615     -0.2457
    149  OE2      -30.6030    7.6640  -26.6760 O.co2 615  GLU615     -0.2457
    150  N        -28.7480    7.2020  -18.8600 N.3   618  CYS618     -0.1235
    151  CA       -27.9840    8.4000  -18.5040 C.3   618  CYS618      0.1677
    152  C        -28.7940    9.4250  -17.7080 C.2   618  CYS618      0.2270
    153  O        -28.2770   10.0410  -16.7830 O.2   618  CYS618     -0.2867
    154  CB       -27.4420    9.0840  -19.7710 C.3   618  CYS618      0.0956
    155  SG       -26.7060    8.0170  -21.0230 S.3   618  CYS618     -0.0801
@<TRIPOS>BOND
     1   136   134   ar
     2   136   135   ar
     3   134   132   ar
     4   135   133   ar
     5   132   133   ar
     6   132   131    1
     7   148   147   ar
     8   116   117    1
     9   131   128    1
    10   127   128    1
    11   127   118   am
    12   128   129    1
    13   149   147   ar
    14   147   146    1
    15   117   118    1
    16   117   120    1
    17   118   119    2
    18   102   101    2
    19   106   105   ar
    20    74    75    1
    21   129   137   am
    22   129   130    2
    23   122   121    1
    24   122   123    1
    25   146   145    1
    26   137   138    1
    27   140   139    2
    28   121   120    1
    29   126   124    1
    30   101   100    1
    31   123   124    2
    32   124   125    1
    33   105   104    1
    34   105   107   ar
    35   103   100    1
    36   103   104    1
    37    80    78    1
    38    75    78    1
    39    75    76    1
    40   139   138    1
    41   139   141   am
    42   145   142    1
    43   100    99    1
    44    78    79    1
    45   108   109    1
    46    76    77    2
    47   142   141    1
    48   142   143    1
    49   112   109    1
    50   112   113    1
    51   111   110    2
    52   109   110    1
    53    99    93   am
    54    84    83    2
    55   115   113   am
    56    94    93    2
    57    81    82    1
    58   113   114    2
    59    39    37   ar
    60    39    38   ar
    61   143   144    2
    62    93    92    1
    63    37    35   ar
    64    83    82    1
    65    82    85    1
    66    38    36   ar
    67    24    23    2
    68   155   154    1
    69    25    23   am
    70    97    96   ar
    71    35    34   ar
    72    35    33   ar
    73    85    86    1
    74    92    91    1
    75    92    95    1
    76    23    22    1
    77    86    88   ar
    78    86    87   ar
    79    34    32   ar
    80    88    90   ar
    81    36    33   ar
    82    96    95    1
    83    96    98   ar
    84   154   151    1
    85    33    31   ar
    86    87    89   ar
    87    90    89   ar
    88    69    67    1
    89    22    21    1
    90   150   151    1
    91    32    31   ar
    92   151   152    1
    93    68    67    1
    94    31    30    1
    95    67    66    2
    96    21    18    1
    97     4     3    2
    98    47    45   ar
    99   152   153    2
   100     8     6   ar
   101    73    72    2
   102     5     6    1
   103     5     2    1
   104    66    65    1
   105     6     7   ar
   106    72    71    1
   107    30    27    1
   108    46    45   ar
   109    45    44    1
   110    71    70    1
   111    18    17    1
   112    18    19    1
   113    17    11   am
   114     3     2    1
   115     3     9   am
   116    20    19    2
   117    19    26   am
   118     2     1    1
   119    26    27    1
   120    57    56    1
   121    65    64    1
   122    27    28    1
   123    10     9    1
   124    10    11    1
   125    10    13    1
   126    15    14   ar
   127    11    12    2
   128    44    41    1
   129    64    63    1
   130    56    58    1
   131    56    55    2
   132    28    29    2
   133    13    14    1
   134    14    16   ar
   135    63    60    1
   136    41    40    1
   137    41    42    1
   138    54    55    1
   139    54    53    1
   140    52    53    1
   141    52    49    1
   142    60    61    1
   143    60    59    1
   144    42    43    2
   145    61    62    2
   146    51    50    2
   147    49    50    1
   148    49    48    1
