@<TRIPOS>MOLECULE
tmp/4dkuB01.pdb
 200 197 0 0 0
SMALL
GASTEIGER

@<TRIPOS>ATOM
      1  N        -11.7770  -19.7910    3.3320 N.3    62  GLN62      -0.1245
      2  CA       -11.2820  -20.7680    2.3690 C.3    62  GLN62       0.1566
      3  C        -10.3650  -20.1140    1.3370 C.2    62  GLN62       0.2260
      4  O         -9.2950  -20.6360    1.0270 O.2    62  GLN62      -0.2867
      5  CB       -12.4530  -21.4640    1.6690 C.3    62  GLN62       0.0367
      6  CG       -12.0540  -22.4110    0.5420 C.3    62  GLN62       0.0905
      7  CD       -11.6320  -23.7800    1.0400 C.2    62  GLN62       0.2608
      8  OE1      -11.0110  -23.9110    2.0970 O.2    62  GLN62      -0.2717
      9  NE2      -11.9770  -24.8140    0.2820 N.am   62  GLN62      -0.0878
     10  N         -1.7490  -21.4600    1.3290 N.3    69  TRP69      -0.1241
     11  CA        -1.1630  -22.7030    0.8360 C.3    69  TRP69       0.1605
     12  C         -0.4850  -22.5570   -0.5280 C.2    69  TRP69       0.2264
     13  O          0.5740  -23.1420   -0.7590 O.2    69  TRP69      -0.2867
     14  CB        -2.2050  -23.8240    0.8170 C.3    69  TRP69       0.0550
     15  CG        -2.3960  -24.4390    2.1670 C.ar   69  TRP69       0.0003
     16  CD1       -2.7310  -23.7910    3.3210 C.ar   69  TRP69       0.0946
     17  CD2       -2.2580  -25.8230    2.5100 C.ar   69  TRP69       0.0152
     18  NE1       -2.8120  -24.6850    4.3600 N.ar   69  TRP69      -0.2442
     19  CE2       -2.5260  -25.9400    3.8900 C.ar   69  TRP69       0.0810
     20  CE3       -1.9360  -26.9750    1.7860 C.ar   69  TRP69       0.0012
     21  CZ2       -2.4820  -27.1600    4.5610 C.ar   69  TRP69       0.0191
     22  CZ3       -1.8910  -28.1890    2.4540 C.ar   69  TRP69       0.0001
     23  CH2       -2.1630  -28.2710    3.8270 C.ar   69  TRP69       0.0015
     24  N         -5.9650  -27.6840    8.2980 N.3   139  VAL139     -0.1231
     25  CA        -6.4830  -28.4960    7.2020 C.3   139  VAL139      0.1692
     26  C         -6.3490  -29.9880    7.4950 C.2   139  VAL139      0.2593
     27  O         -5.2400  -30.5170    7.5730 O.2   139  VAL139     -0.2718
     28  CB        -5.7460  -28.1900    5.8800 C.3   139  VAL139      0.0266
     29  CG1       -6.3130  -29.0350    4.7460 C.3   139  VAL139      0.0020
     30  CG2       -5.8310  -26.7050    5.5500 C.3   139  VAL139      0.0020
     31  N         -7.4800  -30.6660    7.6510 N.am  140  SER140     -0.1938
     32  CA        -7.4730  -32.1000    7.9140 C.3   140  SER140      0.2055
     33  C         -8.7480  -32.7760    7.4170 C.2   140  SER140      0.2643
     34  O         -9.7050  -32.1100    7.0230 O.2   140  SER140     -0.2714
     35  CB        -7.3040  -32.3700    9.4110 C.3   140  SER140      0.2130
     36  OG        -8.4740  -32.0060   10.1190 O.3   140  SER140     -0.2179
     37  N         -8.7550  -34.1040    7.4430 N.am  141  THR141     -0.1950
     38  CA        -9.9480  -34.8620    7.0880 C.3   141  THR141      0.1897
     39  C        -10.3550  -35.7800    8.2310 C.2   141  THR141      0.2313
     40  O         -9.5700  -36.0190    9.1500 O.2   141  THR141     -0.2863
     41  CB        -9.7340  -35.7020    5.8210 C.3   141  THR141      0.1794
     42  OG1       -8.6160  -36.5790    6.0110 O.3   141  THR141     -0.2208
     43  CG2       -9.4740  -34.7990    4.6280 C.3   141  THR141      0.0378
     44  N        -10.2600  -41.6790   -2.6130 N.3   229  ASP229     -0.1239
     45  CA        -8.8380  -41.3840   -2.4960 C.3   229  ASP229      0.1674
     46  C         -8.4030  -41.4130   -1.0320 C.2   229  ASP229      0.2266
     47  O         -9.2310  -41.3170   -0.1250 O.2   229  ASP229     -0.2867
     48  CB        -8.5080  -40.0370   -3.1430 C.3   229  ASP229      0.1410
     49  CG        -8.7800  -40.0280   -4.6380 C.2   229  ASP229      0.3668
     50  OD1       -8.7870  -41.1170   -5.2480 O.co2 229  ASP229     -0.2456
     51  OD2       -8.9830  -38.9350   -5.2050 O.co2 229  ASP229     -0.2456
     52  N         -7.1890  -39.4110    0.8780 N.3   231  GLU231     -0.1231
     53  CA        -7.4940  -38.2230    1.6630 C.3   231  GLU231      0.1699
     54  C         -8.8410  -38.3440    2.3710 C.2   231  GLU231      0.2592
     55  O         -9.0790  -37.6810    3.3750 O.2   231  GLU231     -0.2718
     56  CB        -7.4540  -36.9700    0.7830 C.3   231  GLU231      0.0402
     57  CG        -6.0600  -36.6030    0.2770 C.3   231  GLU231      0.1161
     58  CD        -5.5670  -37.5150   -0.8320 C.2   231  GLU231      0.3649
     59  OE1       -6.3980  -38.2350   -1.4260 O.co2 231  GLU231     -0.2457
     60  OE2       -4.3490  -37.5150   -1.1100 O.co2 231  GLU231     -0.2457
     61  N         -9.7160  -39.1980    1.8500 N.am  232  ILE232     -0.1980
     62  CA       -11.0250  -39.4040    2.4600 C.3   232  ILE232      0.1595
     63  C        -11.0670  -40.6910    3.2830 C.2   232  ILE232      0.2287
     64  O        -11.6950  -40.7420    4.3410 O.2   232  ILE232     -0.2864
     65  CB       -12.1420  -39.4410    1.4010 C.3   232  ILE232      0.0276
     66  CG1      -12.0920  -38.1840    0.5310 C.3   232  ILE232      0.0022
     67  CG2      -13.5070  -39.5730    2.0620 C.3   232  ILE232      0.0022
     68  CD1      -13.2070  -38.1100   -0.4900 C.3   232  ILE232      0.0001
     69  N         -6.0640  -37.5130    7.2110 N.3   236  SER236     -0.1202
     70  CA        -4.9610  -36.7800    6.6100 C.3   236  SER236      0.2020
     71  C         -4.7980  -35.4150    7.2630 C.2   236  SER236      0.2619
     72  O         -5.7810  -34.7590    7.6060 O.2   236  SER236     -0.2717
     73  CB        -5.1780  -36.6190    5.1050 C.3   236  SER236      0.2103
     74  OG        -6.3880  -35.9360    4.8390 O.3   236  SER236     -0.2182
     75  N         -3.5490  -34.9960    7.4250 N.am  237  PHE237     -0.1961
     76  CA        -3.2300  -33.7160    8.0400 C.3   237  PHE237      0.1771
     77  C         -1.7680  -33.3690    7.8120 C.2   237  PHE237      0.2619
     78  O         -0.9650  -34.2260    7.4390 O.2   237  PHE237     -0.2715
     79  CB        -3.5320  -33.7380    9.5400 C.3   237  PHE237      0.0574
     80  CG        -2.7690  -34.7890   10.3030 C.ar  237  PHE237     -0.0200
     81  CD1       -3.2070  -36.1070   10.3260 C.ar  237  PHE237     -0.0042
     82  CD2       -1.6270  -34.4570   11.0130 C.ar  237  PHE237     -0.0042
     83  CE1       -2.5120  -37.0760   11.0330 C.ar  237  PHE237     -0.0003
     84  CE2       -0.9270  -35.4210   11.7250 C.ar  237  PHE237     -0.0003
     85  CZ        -1.3710  -36.7300   11.7370 C.ar  237  PHE237     -0.0000
     86  N         -1.4250  -32.1080    8.0370 N.am  238  ASN238     -0.1972
     87  CA        -0.0490  -31.6720    7.8690 C.3   238  ASN238      0.1688
     88  C          0.6150  -31.3870    9.2090 C.2   238  ASN238      0.2292
     89  O          0.1200  -30.5920   10.0020 O.2   238  ASN238     -0.2864
     90  CB         0.0320  -30.4440    6.9620 C.3   238  ASN238      0.1181
     91  CG         1.4560  -30.1220    6.5560 C.2   238  ASN238      0.2629
     92  OD1        2.2640  -29.6990    7.3810 O.2   238  ASN238     -0.2716
     93  ND2        1.7750  -30.3290    5.2800 N.am  238  ASN238     -0.0877
     94  N          3.1170  -34.2670    5.2020 N.3   243  PHE243     -0.1241
     95  CA         1.7340  -34.7140    5.0590 C.3   243  PHE243      0.1605
     96  C          1.5290  -36.1110    5.6380 C.2   243  PHE243      0.2264
     97  O          2.0850  -37.0880    5.1430 O.2   243  PHE243     -0.2867
     98  CB         1.3030  -34.6790    3.5920 C.3   243  PHE243      0.0534
     99  CG         1.2600  -33.2950    3.0070 C.ar  243  PHE243     -0.0203
    100  CD1        0.1200  -32.5140    3.1250 C.ar  243  PHE243     -0.0042
    101  CD2        2.3560  -32.7740    2.3410 C.ar  243  PHE243     -0.0042
    102  CE1        0.0760  -31.2380    2.5890 C.ar  243  PHE243     -0.0003
    103  CE2        2.3190  -31.5000    1.8020 C.ar  243  PHE243     -0.0003
    104  CZ         1.1770  -30.7320    1.9250 C.ar  243  PHE243     -0.0000
    105  N         -0.8040  -39.4020    6.6760 N.3   245  TYR245     -0.1241
    106  CA        -2.0100  -40.1590    6.3590 C.3   245  TYR245      0.1605
    107  C         -2.1340  -41.3420    7.3170 C.2   245  TYR245      0.2264
    108  O         -1.3130  -42.2580    7.2880 O.2   245  TYR245     -0.2867
    109  CB        -1.9700  -40.6630    4.9170 C.3   245  TYR245      0.0534
    110  CG        -2.1170  -39.5850    3.8690 C.ar  245  TYR245     -0.0201
    111  CD1       -1.0630  -38.7310    3.5640 C.ar  245  TYR245     -0.0009
    112  CD2       -3.3080  -39.4340    3.1670 C.ar  245  TYR245     -0.0009
    113  CE1       -1.1940  -37.7480    2.5940 C.ar  245  TYR245      0.0417
    114  CE2       -3.4480  -38.4550    2.1940 C.ar  245  TYR245      0.0417
    115  CZ        -2.3880  -37.6180    1.9130 C.ar  245  TYR245      0.1957
    116  OH        -2.5270  -36.6450    0.9510 O.3   245  TYR245     -0.2866
    117  N          0.3880  -36.2340   -3.4510 N.3   271  ILE271     -0.1231
    118  CA        -0.8390  -35.7600   -2.8170 C.3   271  ILE271      0.1692
    119  C         -1.8930  -35.2720   -3.8070 C.2   271  ILE271      0.2592
    120  O         -1.5700  -34.6280   -4.8000 O.2   271  ILE271     -0.2718
    121  CB        -0.5170  -34.6240   -1.8020 C.3   271  ILE271      0.0266
    122  CG1        0.0060  -35.2090   -0.4920 C.3   271  ILE271      0.0019
    123  CG2       -1.7290  -33.7490   -1.5230 C.3   271  ILE271      0.0020
    124  CD1        1.5080  -35.2290   -0.3960 C.3   271  ILE271      0.0001
    125  N         -3.1530  -35.6010   -3.5310 N.am  272  ASN272     -0.1960
    126  CA        -4.2790  -34.9520   -4.1940 C.3   272  ASN272      0.1819
    127  C         -4.6160  -33.6380   -3.4930 C.2   272  ASN272      0.2621
    128  O         -5.0570  -33.6400   -2.3440 O.2   272  ASN272     -0.2715
    129  CB        -5.5070  -35.8640   -4.2000 C.3   272  ASN272      0.1195
    130  CG        -5.2830  -37.1340   -4.9890 C.2   272  ASN272      0.2630
    131  OD1       -4.5370  -37.1460   -5.9690 O.2   272  ASN272     -0.2716
    132  ND2       -5.9290  -38.2140   -4.5660 N.am  272  ASN272     -0.0877
    133  N         -4.4010  -32.5230   -4.1860 N.am  273  MET273     -0.1963
    134  CA        -4.6290  -31.1930   -3.6240 C.3   273  MET273      0.1736
    135  C         -6.0740  -30.9890   -3.1710 C.2   273  MET273      0.2616
    136  O         -7.0120  -31.3640   -3.8740 O.2   273  MET273     -0.2715
    137  CB        -4.2570  -30.1160   -4.6470 C.3   273  MET273      0.0427
    138  CG        -2.8570  -30.2420   -5.2380 C.3   273  MET273      0.0599
    139  SD        -1.6230  -29.1970   -4.4360 S.3   273  MET273     -0.1393
    140  CE        -1.3490  -30.0700   -2.8940 C.3   273  MET273      0.0692
    141  N         -6.2480  -30.3860   -1.9980 N.am  274  TRP274     -0.1960
    142  CA        -7.5840  -30.1100   -1.4770 C.3   274  TRP274      0.1771
    143  C         -8.1930  -28.8730   -2.1300 C.2   274  TRP274      0.2620
    144  O         -9.4020  -28.6490   -2.0490 O.2   274  TRP274     -0.2715
    145  CB        -7.5630  -29.9580    0.0490 C.3   274  TRP274      0.0590
    146  CG        -6.6950  -28.8420    0.5440 C.ar  274  TRP274      0.0006
    147  CD1       -5.3900  -28.9300    0.9300 C.ar  274  TRP274      0.0946
    148  CD2       -7.0700  -27.4670    0.7060 C.ar  274  TRP274      0.0152
    149  NE1       -4.9290  -27.6980    1.3230 N.ar  274  TRP274     -0.2442
    150  CE2       -5.9390  -26.7820    1.1950 C.ar  274  TRP274      0.0810
    151  CE3       -8.2490  -26.7500    0.4870 C.ar  274  TRP274      0.0012
    152  CZ2       -5.9530  -25.4160    1.4670 C.ar  274  TRP274      0.0191
    153  CZ3       -8.2610  -25.3930    0.7570 C.ar  274  TRP274      0.0001
    154  CH2       -7.1210  -24.7410    1.2420 C.ar  274  TRP274      0.0015
    155  N         -7.3530  -28.0770   -2.7840 N.am  275  GLN275     -0.1963
    156  CA        -7.8190  -26.8960   -3.5020 C.3   275  GLN275      0.1733
    157  C         -8.7040  -27.2970   -4.6790 C.2   275  GLN275      0.2616
    158  O         -9.4630  -26.4840   -5.2040 O.2   275  GLN275     -0.2715
    159  CB        -6.6400  -26.0550   -4.0010 C.3   275  GLN275      0.0408
    160  CG        -5.7870  -25.4270   -2.9050 C.3   275  GLN275      0.0908
    161  CD        -4.6810  -26.3470   -2.4210 C.2   275  GLN275      0.2608
    162  OE1       -4.9350  -27.4720   -1.9920 O.2   275  GLN275     -0.2717
    163  NE2       -3.4410  -25.8720   -2.4960 N.am  275  GLN275     -0.0878
    164  N         -8.5980  -28.5580   -5.0850 N.am  276  GLY276     -0.1955
    165  CA        -9.3950  -29.0780   -6.1780 C.3   276  GLY276      0.1869
    166  C         -8.6090  -29.1250   -7.4710 C.2   276  GLY276      0.2309
    167  O         -9.0990  -29.6190   -8.4880 O.2   276  GLY276     -0.2863
    168  N        -15.1550  -36.4080    4.8770 N.3   319  GLY319     -0.1210
    169  CA       -14.0930  -35.4550    4.6150 C.3   319  GLY319      0.1956
    170  C        -14.0710  -35.0260    3.1630 C.2   319  GLY319      0.2612
    171  O        -14.9600  -35.3850    2.3910 O.2   319  GLY319     -0.2717
    172  N        -13.0560  -34.2550    2.7880 N.am  320  GLY320     -0.1942
    173  CA       -12.9180  -33.7960    1.4180 C.3   320  GLY320      0.2014
    174  C        -13.1600  -32.3060    1.2670 C.2   320  GLY320      0.2639
    175  O        -12.2860  -31.5710    0.8060 O.2   320  GLY320     -0.2714
    176  N        -14.3660  -31.8900    1.6340 N.am  321  ASN321     -0.1958
    177  CA       -14.6960  -30.4740    1.5570 C.3   321  ASN321      0.1819
    178  C        -14.1380  -29.7050    2.7510 C.2   321  ASN321      0.2621
    179  O        -14.7640  -29.6350    3.8080 O.2   321  ASN321     -0.2715
    180  CB       -16.2080  -30.2730    1.4490 C.3   321  ASN321      0.1195
    181  CG       -16.5740  -28.8890    0.9480 C.2   321  ASN321      0.2630
    182  OD1      -15.7640  -28.2150    0.3100 O.2   321  ASN321     -0.2716
    183  ND2      -17.7970  -28.4580    1.2370 N.am  321  ASN321     -0.0877
    184  N        -12.9590  -29.1230    2.5680 N.am  322  ILE322     -0.1963
    185  CA       -12.2590  -28.4230    3.6390 C.3   322  ILE322      0.1727
    186  C        -13.0230  -27.1790    4.0960 C.2   322  ILE322      0.2616
    187  O        -12.7500  -26.6280    5.1630 O.2   322  ILE322     -0.2715
    188  CB       -10.8280  -28.0380    3.2030 C.3   322  ILE322      0.0290
    189  CG1      -10.1980  -29.1800    2.4040 C.3   322  ILE322      0.0022
    190  CG2       -9.9590  -27.7040    4.4050 C.3   322  ILE322      0.0023
    191  CD1      -10.0350  -30.4690    3.1890 C.3   322  ILE322      0.0001
    192  N        -13.9820  -26.7410    3.2840 N.am  323  LYS323     -0.1977
    193  CA       -14.8530  -25.6350    3.6650 C.3   323  LYS323      0.1596
    194  C        -15.6150  -25.9960    4.9310 C.2   323  LYS323      0.2287
    195  O        -15.8670  -25.1430    5.7800 O.2   323  LYS323     -0.2864
    196  CB       -15.8410  -25.3050    2.5450 C.3   323  LYS323      0.0298
    197  CG       -15.2090  -24.7450    1.2850 C.3   323  LYS323      0.0038
    198  CD       -16.2690  -24.4490    0.2340 C.3   323  LYS323      0.0206
    199  CE       -15.6450  -23.9640   -1.0640 C.3   323  LYS323      0.1093
    200  NZ       -16.6700  -23.7480   -2.1230 N.3   323  LYS323     -0.1314
@<TRIPOS>BOND
     1   167   166    2
     2   166   165    1
     3   165   164    1
     4   131   130    2
     5    50    49   ar
     6   138   137    1
     7   138   139    1
     8    51    49   ar
     9   158   157    2
    10   164   157   am
    11   130   132   am
    12   130   129    1
    13   120   119    2
    14   157   156    1
    15   137   134    1
    16    49    48    1
    17   139   140    1
    18   129   126    1
    19   126   125    1
    20   126   127    1
    21   133   134    1
    22   133   127   am
    23   159   156    1
    24   159   160    1
    25   136   135    2
    26   119   125   am
    27   119   118    1
    28   134   135    1
    29   156   155    1
    30   127   128    2
    31   117   118    1
    32   135   141   am
    33    48    45    1
    34   160   161    1
    35   118   121    1
    36   155   143   am
    37    44    45    1
    38    45    46    1
    39   163   161   am
    40   161   162    2
    41   143   144    2
    42   143   142    1
    43   200   199    1
    44   141   142    1
    45   121   123    1
    46   121   122    1
    47   142   145    1
    48    59    58   ar
    49    60    58   ar
    50   199   198    1
    51    46    47    2
    52    58    57    1
    53    13    12    2
    54    12    11    1
    55   122   124    1
    56    68    66    1
    57   145   146    1
    58   198   197    1
    59    57    56    1
    60     9     7   am
    61   182   181    2
    62   151   148   ar
    63   151   153   ar
    64    66    65    1
    65     6     7    1
    66     6     5    1
    67   146   148   ar
    68   146   147   ar
    69   148   150   ar
    70   153   154   ar
    71    56    53    1
    72   175   174    2
    73    14    11    1
    74    14    15    1
    75    11    10    1
    76    52    53    1
    77   147   149   ar
    78   181   183   am
    79   181   180    1
    80   116   115    1
    81     4     3    2
    82     7     8    2
    83   150   149   ar
    84   150   152   ar
    85   154   152   ar
    86   174   173    1
    87   174   176   am
    88   197   196    1
    89     3     2    1
    90    65    67    1
    91    65    62    1
    92   173   172    1
    93   180   177    1
    94   177   176    1
    95   177   178    1
    96    53    54    1
    97     5     2    1
    98    20    22   ar
    99    20    17   ar
   100   103   104   ar
   101   103   101   ar
   102    61    54   am
   103    61    62    1
   104   115   114   ar
   105   115   113   ar
   106   104   102   ar
   107    15    17   ar
   108    15    16   ar
   109   114   112   ar
   110   101    99   ar
   111     2     1    1
   112    54    55    2
   113   171   170    2
   114   189   191    1
   115   189   188    1
   116    22    23   ar
   117    62    63    1
   118    17    19   ar
   119   196   193    1
   120   184   178   am
   121   184   185    1
   122   102   100   ar
   123   113   111   ar
   124   178   179    2
   125   172   170   am
   126    99   100   ar
   127    99    98    1
   128   170   169    1
   129   112   110   ar
   130   188   185    1
   131   188   190    1
   132    63    64    2
   133   192   193    1
   134   192   186   am
   135    16    18   ar
   136   111   110   ar
   137    98    95    1
   138   185   186    1
   139   193   194    1
   140    23    21   ar
   141   110   109    1
   142    19    18   ar
   143    19    21   ar
   144   186   187    2
   145   169   168    1
   146    43    41    1
   147    29    28    1
   148    74    73    1
   149   109   106    1
   150   194   195    2
   151    95    94    1
   152    95    96    1
   153    73    70    1
   154    97    96    2
   155    93    91   am
   156    30    28    1
   157    41    42    1
   158    41    38    1
   159    28    25    1
   160   106   105    1
   161   106   107    1
   162    91    90    1
   163    91    92    2
   164    70    69    1
   165    70    71    1
   166    90    87    1
   167    34    33    2
   168    38    37    1
   169    38    39    1
   170    25    26    1
   171    25    24    1
   172    71    75   am
   173    71    72    2
   174   108   107    2
   175    33    37   am
   176    33    32    1
   177    75    76    1
   178    78    77    2
   179    26    27    2
   180    26    31   am
   181    31    32    1
   182    77    86   am
   183    77    76    1
   184    87    86    1
   185    87    88    1
   186    32    35    1
   187    76    79    1
   188    39    40    2
   189    88    89    2
   190    35    36    1
   191    79    80    1
   192    80    81   ar
   193    80    82   ar
   194    81    83   ar
   195    82    84   ar
   196    83    85   ar
   197    84    85   ar
