@<TRIPOS>MOLECULE
tmp/4dkxB00.pdb
 119 114 0 0 0
SMALL
GASTEIGER

@<TRIPOS>ATOM
      1  N         12.2200   25.1590  -21.5230 N.3    11  GLN11      -0.1231
      2  CA        13.2730   26.1660  -21.6400 C.3    11  GLN11       0.1698
      3  C         14.1310   26.1840  -20.3300 C.2    11  GLN11       0.2593
      4  O         13.5450   26.0510  -19.2480 O.2    11  GLN11      -0.2718
      5  CB        12.6180   27.5390  -21.8330 C.3    11  GLN11       0.0381
      6  CG        13.6330   28.6180  -22.2580 C.3    11  GLN11       0.0905
      7  CD        13.0030   30.0690  -22.1900 C.2    11  GLN11       0.2608
      8  OE1       11.7800   30.2240  -22.0040 O.2    11  GLN11      -0.2717
      9  NE2       13.8530   31.1140  -22.3110 N.am   11  GLN11      -0.0878
     10  N         15.4460   26.3810  -20.4670 N.am   12  SER12      -0.1938
     11  CA        16.3640   26.7040  -19.3720 C.3    12  SER12       0.2055
     12  C         16.7690   25.4500  -18.4990 C.2    12  SER12       0.2643
     13  O         17.3550   25.6130  -17.4010 O.2    12  SER12      -0.2714
     14  CB        15.6860   27.6900  -18.4160 C.3    12  SER12       0.2130
     15  OG        15.5980   28.9470  -19.0390 O.3    12  SER12      -0.2179
     16  N         16.4560   24.2340  -18.9970 N.am   13  VAL13      -0.1963
     17  CA        16.8080   23.0080  -18.2190 C.3    13  VAL13       0.1727
     18  C         18.2310   22.6050  -18.4930 C.2    13  VAL13       0.2617
     19  O         18.8210   21.8320  -17.7250 O.2    13  VAL13      -0.2715
     20  CB        15.8770   21.8350  -18.5250 C.3    13  VAL13       0.0290
     21  CG1       14.4020   22.2270  -18.0340 C.3    13  VAL13       0.0023
     22  CG2       15.9600   21.4110  -20.0500 C.3    13  VAL13       0.0023
     23  N         18.7980   23.1490  -19.5630 N.am   14  GLY14      -0.1940
     24  CA        20.2320   22.9550  -19.8880 C.3    14  GLY14       0.2014
     25  C         20.4920   22.0070  -21.0750 C.2    14  GLY14       0.2639
     26  O         21.5590   21.4070  -21.1610 O.2    14  GLY14      -0.2714
     27  N         19.5530   21.9550  -22.0170 N.am   15  LYS15      -0.1963
     28  CA        19.6810   21.1380  -23.2860 C.3    15  LYS15       0.1728
     29  C         20.9090   21.6700  -24.0610 C.2    15  LYS15       0.2617
     30  O         21.7940   20.9160  -24.4550 O.2    15  LYS15      -0.2715
     31  CB        18.4050   21.2550  -24.1470 C.3    15  LYS15       0.0311
     32  CG        17.1010   20.7850  -23.4140 C.3    15  LYS15       0.0038
     33  CD        15.8280   20.9090  -24.3210 C.3    15  LYS15       0.0206
     34  CE        15.5620   22.3960  -24.8200 C.3    15  LYS15       0.1093
     35  NZ        15.2770   23.2030  -23.5520 N.3    15  LYS15      -0.1314
     36  N         20.9220   22.9770  -24.3430 N.am   16  THR16      -0.1937
     37  CA        22.0590   23.5500  -25.0620 C.3    16  THR16       0.2028
     38  C         23.4120   23.3270  -24.3310 C.2    16  THR16       0.2642
     39  O         24.3990   22.9250  -24.9310 O.2    16  THR16      -0.2714
     40  CB        21.8120   25.0470  -25.3730 C.3    16  THR16       0.1808
     41  OG1       20.5760   25.1220  -26.1860 O.3    16  THR16      -0.2208
     42  CG2       23.0790   25.5650  -26.1560 C.3    16  THR16       0.0379
     43  N         23.4030   23.4390  -22.9990 N.am   17  SER17      -0.1949
     44  CA        24.6780   23.3650  -22.2560 C.3    17  SER17       0.1924
     45  C         25.1880   21.9160  -22.2730 C.2    17  SER17       0.2314
     46  O         26.3900   21.6920  -22.3350 O.2    17  SER17      -0.2863
     47  CB        24.5120   23.8290  -20.8320 C.3    17  SER17       0.2116
     48  OG        24.0480   25.1640  -20.7580 O.3    17  SER17      -0.2180
     49  N         31.2670   25.4890  -21.1370 N.3    27  PHE27      -0.1241
     50  CA        29.9930   25.7820  -20.5380 C.3    27  PHE27       0.1605
     51  C         29.7510   27.2760  -20.6770 C.2    27  PHE27       0.2264
     52  O         30.6140   28.0370  -20.2250 O.2    27  PHE27      -0.2867
     53  CB        30.0310   25.3660  -19.0600 C.3    27  PHE27       0.0534
     54  CG        28.7770   25.6630  -18.2930 C.ar   27  PHE27      -0.0203
     55  CD1       27.5980   24.8960  -18.5020 C.ar   27  PHE27      -0.0042
     56  CD2       28.7460   26.7230  -17.3980 C.ar   27  PHE27      -0.0042
     57  CE1       26.4170   25.1830  -17.7640 C.ar   27  PHE27      -0.0003
     58  CE2       27.6190   26.9990  -16.6360 C.ar   27  PHE27      -0.0003
     59  CZ        26.4370   26.2440  -16.8120 C.ar   27  PHE27      -0.0000
     60  N         16.5980   22.8040  -30.1670 N.3    49  THR49      -0.1218
     61  CA        15.7780   23.9480  -30.5960 C.3    49  THR49       0.1862
     62  C         15.4300   24.7470  -29.3950 C.2    49  THR49       0.2287
     63  O         15.6350   24.2990  -28.2520 O.2    49  THR49      -0.2866
     64  CB        14.3860   23.5250  -31.0540 C.3    49  THR49       0.1770
     65  OG1       13.8510   22.6140  -30.0810 O.3    49  THR49      -0.2211
     66  CG2       14.4380   22.8640  -32.3890 C.3    49  THR49       0.0375
     67  N         19.0620   17.2280  -15.0790 N.3   106  ASN106     -0.1225
     68  CA        20.3060   18.0290  -15.1290 C.3   106  ASN106      0.1785
     69  C         20.4450   19.0460  -13.9410 C.2   106  ASN106      0.2597
     70  O         19.4550   19.3560  -13.2750 O.2   106  ASN106     -0.2718
     71  CB        20.3090   18.7750  -16.5050 C.3   106  ASN106      0.1169
     72  CG        21.6240   19.5070  -16.7700 C.2   106  ASN106      0.2627
     73  OD1       22.7240   18.9840  -16.5740 O.2   106  ASN106     -0.2716
     74  ND2       21.5080   20.7580  -17.1120 N.am  106  ASN106     -0.0877
     75  N         21.6530   19.5980  -13.7330 N.am  107  LYS107     -0.1980
     76  CA        21.9760   20.5810  -12.6950 C.3   107  LYS107      0.1596
     77  C         22.1950   19.9140  -11.2970 C.2   107  LYS107      0.2287
     78  O         21.8440   20.5090  -10.2820 O.2   107  LYS107     -0.2864
     79  CB        20.9760   21.7550  -12.6100 C.3   107  LYS107      0.0298
     80  CG        20.6790   22.3380  -14.0040 C.3   107  LYS107      0.0038
     81  CD        20.0470   23.7350  -13.8570 C.3   107  LYS107      0.0206
     82  CE        19.4580   24.1850  -15.2600 C.3   107  LYS107      0.1093
     83  NZ        18.7960   25.5680  -15.0250 N.3   107  LYS107     -0.1314
     84  N         24.7510   19.8490   -9.6380 N.3   109  ASP109     -0.1225
     85  CA        25.5750   20.6850   -8.8060 C.3   109  ASP109      0.1805
     86  C         24.7380   21.7370   -7.9990 C.2   109  ASP109      0.2597
     87  O         25.2620   22.3600   -7.0410 O.2   109  ASP109     -0.2718
     88  CB        26.6010   21.4130   -9.6870 C.3   109  ASP109      0.1424
     89  CG        25.9190   22.2810  -10.7390 C.2   109  ASP109      0.3668
     90  OD1       25.2890   21.7100  -11.6890 O.co2 109  ASP109     -0.2456
     91  OD2       25.9710   23.5070  -10.5640 O.co2 109  ASP109     -0.2456
     92  N         23.4410   21.8800   -8.3420 N.am  110  LEU110     -0.1979
     93  CA        22.5490   22.7620   -7.5730 C.3   110  LEU110      0.1596
     94  C         21.7820   21.9320   -6.5990 C.2   110  LEU110      0.2287
     95  O         20.5860   22.1020   -6.3780 O.2   110  LEU110     -0.2864
     96  CB        21.5680   23.5310   -8.4630 C.3   110  LEU110      0.0297
     97  CG        22.2520   24.4560   -9.4620 C.3   110  LEU110      0.0022
     98  CD1       21.1880   25.2070  -10.3540 C.3   110  LEU110      0.0001
     99  CD2       23.1890   25.5680   -8.8210 C.3   110  LEU110      0.0001
    100  N         25.4090   17.1080  -14.5200 N.3   136  SER136     -0.1202
    101  CA        25.6710   18.5420  -14.4560 C.3   136  SER136      0.2020
    102  C         26.4600   18.9060  -15.7330 C.2   136  SER136      0.2619
    103  O         27.6860   18.5640  -15.8920 O.2   136  SER136     -0.2717
    104  CB        26.4840   18.8840  -13.1930 C.3   136  SER136      0.2103
    105  OG        26.8170   20.2690  -13.2460 O.3   136  SER136     -0.2182
    106  N         25.7980   19.6390  -16.6220 N.am  137  ALA137     -0.1965
    107  CA        26.5060   20.2080  -17.7610 C.3   137  ALA137      0.1728
    108  C         27.6110   21.1150  -17.2630 C.2   137  ALA137      0.2616
    109  O         28.6840   21.1580  -17.9050 O.2   137  ALA137     -0.2715
    110  CB        25.5590   21.0180  -18.6340 C.3   137  ALA137      0.0334
    111  N         27.3190   21.9080  -16.2210 N.am  138  LYS138     -0.1977
    112  CA        28.3160   22.7940  -15.6130 C.3   138  LYS138      0.1596
    113  C         29.6150   22.1010  -15.1980 C.2   138  LYS138      0.2287
    114  O         30.7490   22.5420  -15.5650 O.2   138  LYS138     -0.2864
    115  CB        27.7380   23.5960  -14.4680 C.3   138  LYS138      0.0298
    116  CG        28.7600   24.6660  -13.9430 C.3   138  LYS138      0.0038
    117  CD        28.0230   25.6630  -13.0600 C.3   138  LYS138      0.0206
    118  CE        29.0550   26.5320  -12.3880 C.3   138  LYS138      0.1093
    119  NZ        28.3030   27.5940  -11.6200 N.3   138  LYS138     -0.1314
@<TRIPOS>BOND
     1    66    64    1
     2    64    61    1
     3    64    65    1
     4    61    60    1
     5    61    62    1
     6    62    63    2
     7    41    40    1
     8    42    40    1
     9    40    37    1
    10    37    36    1
    11    37    38    1
    12    39    38    2
    13    34    33    1
    14    34    35    1
    15    30    29    2
    16    36    29   am
    17    38    43   am
    18    33    32    1
    19    31    32    1
    20    31    28    1
    21    29    28    1
    22    28    27    1
    23    43    44    1
    24    46    45    2
    25     9     7   am
    26    45    44    1
    27     6     7    1
    28     6     5    1
    29    44    47    1
    30     7     8    2
    31    27    25   am
    32     5     2    1
    33     2     1    1
    34     2     3    1
    35    26    25    2
    36    49    50    1
    37    25    24    1
    38    47    48    1
    39    51    50    1
    40    51    52    2
    41    50    53    1
    42    10     3   am
    43    10    11    1
    44     3     4    2
    45    22    20    1
    46    24    23    1
    47    23    18   am
    48    11    12    1
    49    11    14    1
    50    53    54    1
    51    15    14    1
    52    16    12   am
    53    16    17    1
    54   110   107    1
    55    20    17    1
    56    20    21    1
    57    55    54   ar
    58    55    57   ar
    59    12    13    2
    60    18    17    1
    61    18    19    2
    62    54    56   ar
    63   109   108    2
    64    57    59   ar
    65   107   108    1
    66   107   106    1
    67    56    58   ar
    68   108   111   am
    69    74    72   am
    70    59    58   ar
    71    72    73    2
    72    72    71    1
    73   106   102   am
    74    71    68    1
    75   111   112    1
    76   103   102    2
    77   102   101    1
    78   112   113    1
    79   112   115    1
    80   114   113    2
    81    82    83    1
    82    82    81    1
    83    68    67    1
    84    68    69    1
    85   100   101    1
    86   115   116    1
    87   101   104    1
    88    80    81    1
    89    80    79    1
    90   116   117    1
    91    69    75   am
    92    69    70    2
    93    75    76    1
    94   105   104    1
    95   117   118    1
    96    76    79    1
    97    76    77    1
    98   118   119    1
    99    90    89   ar
   100    77    78    2
   101    89    91   ar
   102    89    88    1
   103    98    97    1
   104    88    85    1
   105    84    85    1
   106    97    99    1
   107    97    96    1
   108    85    86    1
   109    96    93    1
   110    92    86   am
   111    92    93    1
   112    86    87    2
   113    93    94    1
   114    94    95    2
