@<TRIPOS>MOLECULE
tmp/4dl1L02.pdb
 120 112 0 0 0
SMALL
GASTEIGER

@<TRIPOS>ATOM
      1  N        -18.9160   51.6420  -35.5220 N.3     4  GLU4       -0.1245
      2  CA       -17.9990   52.5740  -36.1500 C.3     4  GLU4        0.1567
      3  C        -18.6570   53.9480  -36.3470 C.2     4  GLU4        0.2260
      4  O        -17.9900   54.9710  -36.2580 O.2     4  GLU4       -0.2867
      5  CB       -17.5180   52.0070  -37.4960 C.3     4  GLU4        0.0388
      6  CG       -16.4720   52.8690  -38.2340 C.3     4  GLU4        0.1160
      7  CD       -15.2060   53.1320  -37.4030 C.2     4  GLU4        0.3649
      8  OE1      -14.7930   52.2270  -36.6400 O.co2   4  GLU4       -0.2457
      9  OE2      -14.6310   54.2420  -37.5220 O.co2   4  GLU4       -0.2457
     10  N        -15.9540   48.2920  -30.2130 N.3    35  PHE35      -0.1241
     11  CA       -16.6400   46.9940  -30.2880 C.3    35  PHE35       0.1605
     12  C        -16.2280   46.1360  -29.0930 C.2    35  PHE35       0.2264
     13  O        -15.0360   46.0310  -28.7970 O.2    35  PHE35      -0.2867
     14  CB       -16.2130   46.2430  -31.5580 C.3    35  PHE35       0.0534
     15  CG       -16.6580   46.8830  -32.8300 C.ar   35  PHE35      -0.0203
     16  CD1      -17.6810   46.3160  -33.5850 C.ar   35  PHE35      -0.0042
     17  CD2      -16.0570   48.0470  -33.2910 C.ar   35  PHE35      -0.0042
     18  CE1      -18.1310   46.9200  -34.7440 C.ar   35  PHE35      -0.0003
     19  CE2      -16.4660   48.6330  -34.4980 C.ar   35  PHE35      -0.0003
     20  CZ       -17.4880   48.0470  -35.2350 C.ar   35  PHE35      -0.0000
     21  N         -3.1080   39.4930  -39.0010 N.3   125  THR125     -0.1203
     22  CA        -3.9140   40.4380  -39.7590 C.3   125  THR125      0.1994
     23  C         -3.5030   41.8960  -39.5200 C.2   125  THR125      0.2617
     24  O         -4.0610   42.8110  -40.1190 O.2   125  THR125     -0.2717
     25  CB        -5.4420   40.2990  -39.4120 C.3   125  THR125      0.1784
     26  OG1       -5.6370   40.3320  -37.9880 O.3   125  THR125     -0.2211
     27  CG2       -6.0200   38.9950  -39.9600 C.3   125  THR125      0.0376
     28  N         -2.5340   42.1260  -38.6470 N.am  126  ARG126     -0.1979
     29  CA        -2.1760   43.5000  -38.3100 C.3   126  ARG126      0.1597
     30  C         -0.8770   43.9320  -38.9820 C.2   126  ARG126      0.2287
     31  O         -0.2970   44.9600  -38.6310 O.2   126  ARG126     -0.2864
     32  CB        -2.0900   43.6680  -36.7950 C.3   126  ARG126      0.0334
     33  CG        -3.3930   43.3430  -36.0600 C.3   126  ARG126      0.0492
     34  CD        -3.1550   43.1470  -34.5330 C.3   126  ARG126      0.2205
     35  NE        -2.5820   41.8300  -34.2550 N.pl3 126  ARG126     -0.0865
     36  CZ        -2.5320   41.2560  -33.0500 C.cat 126  ARG126      0.5346
     37  NH1       -2.9530   41.9070  -31.9570 N.pl3 126  ARG126      0.1354
     38  NH2       -2.0430   40.0310  -32.9390 N.pl3 126  ARG126      0.1354
     39  N         -0.2810   47.5540  -40.0260 N.3   129  GLU129     -0.1245
     40  CA        -0.6420   48.6080  -39.0560 C.3   129  GLU129      0.1567
     41  C          0.3560   49.7850  -39.0340 C.2   129  GLU129      0.2260
     42  O         -0.0590   50.9400  -38.9560 O.2   129  GLU129     -0.2867
     43  CB        -0.7940   48.0300  -37.6550 C.3   129  GLU129      0.0388
     44  CG        -1.6430   48.8690  -36.7010 C.3   129  GLU129      0.1160
     45  CD        -0.8270   49.6240  -35.6760 C.2   129  GLU129      0.3649
     46  OE1        0.3990   49.4210  -35.6090 O.co2 129  GLU129     -0.2457
     47  OE2       -1.4140   50.4460  -34.9270 O.co2 129  GLU129     -0.2457
     48  N         -1.2630   51.8970  -41.3910 N.3   253  PHE253     -0.1241
     49  CA        -1.8000   51.2170  -42.5790 C.3   253  PHE253      0.1605
     50  C         -1.3040   51.8290  -43.8910 C.2   253  PHE253      0.2264
     51  O         -1.8920   51.5860  -44.9500 O.2   253  PHE253     -0.2867
     52  CB        -3.3460   51.1700  -42.5490 C.3   253  PHE253      0.0534
     53  CG        -3.9230   50.4750  -41.3250 C.ar  253  PHE253     -0.0203
     54  CD1       -3.8910   49.0930  -41.2100 C.ar  253  PHE253     -0.0042
     55  CD2       -4.5330   51.2070  -40.3120 C.ar  253  PHE253     -0.0042
     56  CE1       -4.4170   48.4450  -40.0680 C.ar  253  PHE253     -0.0003
     57  CE2       -5.0380   50.5700  -39.1580 C.ar  253  PHE253     -0.0003
     58  CZ        -5.0140   49.1920  -39.0620 C.ar  253  PHE253     -0.0000
     59  N         -4.6990   58.2760  -33.5000 N.3   293  LEU293     -0.1231
     60  CA        -4.6860   56.8650  -33.8920 C.3   293  LEU293      0.1693
     61  C         -5.6680   56.6220  -35.0320 C.2   293  LEU293      0.2592
     62  O         -6.8780   56.8200  -34.8900 O.2   293  LEU293     -0.2718
     63  CB        -5.0430   55.9510  -32.7110 C.3   293  LEU293      0.0284
     64  CG        -4.8960   54.4430  -32.9750 C.3   293  LEU293      0.0019
     65  CD1       -3.4160   54.0280  -32.9590 C.3   293  LEU293      0.0001
     66  CD2       -5.6870   53.6060  -31.9760 C.3   293  LEU293      0.0001
     67  N         -5.1300   56.2250  -36.1730 N.am  294  PHE294     -0.1976
     68  CA        -5.9560   55.7640  -37.2830 C.3   294  PHE294      0.1639
     69  C         -6.7860   56.8940  -37.8800 C.2   294  PHE294      0.2290
     70  O         -7.8130   56.6450  -38.5030 O.2   294  PHE294     -0.2864
     71  CB        -6.8660   54.6120  -36.8360 C.3   294  PHE294      0.0560
     72  CG        -6.1160   53.3720  -36.4240 C.ar  294  PHE294     -0.0200
     73  CD1       -6.7700   52.3450  -35.7650 C.ar  294  PHE294     -0.0042
     74  CD2       -4.7500   53.2390  -36.6830 C.ar  294  PHE294     -0.0042
     75  CE1       -6.0930   51.1780  -35.4100 C.ar  294  PHE294     -0.0003
     76  CE2       -4.0600   52.0980  -36.2960 C.ar  294  PHE294     -0.0003
     77  CZ        -4.7340   51.0640  -35.6670 C.ar  294  PHE294     -0.0000
     78  N        -10.3090   56.2540  -40.6640 N.3   298  MET298     -0.1245
     79  CA       -11.6390   56.2070  -40.0660 C.3   298  MET298      0.1570
     80  C        -12.1190   57.5720  -39.5880 C.2   298  MET298      0.2261
     81  O        -11.4130   58.5730  -39.7370 O.2   298  MET298     -0.2867
     82  CB       -11.6750   55.1850  -38.9300 C.3   298  MET298      0.0387
     83  CG       -10.7590   55.4780  -37.7480 C.3   298  MET298      0.0595
     84  SD       -11.1210   54.3290  -36.3850 S.3   298  MET298     -0.1393
     85  CE       -12.4420   55.2320  -35.5840 C.3   298  MET298      0.0692
     86  N         -8.5390   57.8530  -32.7610 N.3   302  LEU302     -0.1245
     87  CA        -8.7890   57.0950  -31.5390 C.3   302  LEU302      0.1561
     88  C         -7.7800   57.5160  -30.4750 C.2   302  LEU302      0.2260
     89  O         -6.8760   58.3030  -30.7500 O.2   302  LEU302     -0.2867
     90  CB        -8.7100   55.5920  -31.8020 C.3   302  LEU302      0.0270
     91  CG        -9.5370   55.0560  -32.9870 C.3   302  LEU302      0.0019
     92  CD1       -9.2550   53.5790  -33.1950 C.3   302  LEU302      0.0001
     93  CD2      -11.0490   55.2940  -32.8000 C.3   302  LEU302      0.0001
     94  N         -5.5990   55.5360  -27.9710 N.3   304  LEU304     -0.1245
     95  CA        -5.1700   54.1670  -27.6970 C.3   304  LEU304      0.1561
     96  C         -5.0510   53.8950  -26.1920 C.2   304  LEU304      0.2260
     97  O         -5.5700   52.8800  -25.7050 O.2   304  LEU304     -0.2867
     98  CB        -3.8610   53.8650  -28.4220 C.3   304  LEU304      0.0270
     99  CG        -3.3290   52.4380  -28.3500 C.3   304  LEU304      0.0019
    100  CD1       -4.3880   51.4000  -28.7200 C.3   304  LEU304      0.0001
    101  CD2       -2.1020   52.2940  -29.2100 C.3   304  LEU304      0.0001
    102  N         -8.6700   53.5110  -25.1220 N.3   307  LEU307     -0.1245
    103  CA        -9.1110   52.1940  -25.5730 C.3   307  LEU307      0.1561
    104  C         -8.6080   51.1170  -24.5950 C.2   307  LEU307      0.2260
    105  O         -9.3590   50.2340  -24.1950 O.2   307  LEU307     -0.2867
    106  CB        -8.5890   51.8980  -26.9850 C.3   307  LEU307      0.0270
    107  CG        -9.1630   52.7270  -28.1390 C.3   307  LEU307      0.0019
    108  CD1       -8.2840   52.5520  -29.3850 C.3   307  LEU307      0.0001
    109  CD2      -10.6220   52.3650  -28.4410 C.3   307  LEU307      0.0001
    110  N        -11.0910   48.5710  -22.7560 N.3   311  ARG311     -0.1245
    111  CA       -10.9010   47.1480  -23.0830 C.3   311  ARG311      0.1563
    112  C        -10.7460   46.2320  -21.8590 C.2   311  ARG311      0.2260
    113  O        -11.2820   45.1050  -21.8300 O.2   311  ARG311     -0.2867
    114  CB        -9.6910   46.9880  -23.9880 C.3   311  ARG311      0.0307
    115  CG        -9.5550   45.6180  -24.5780 C.3   311  ARG311      0.0489
    116  CD       -10.7280   45.3230  -25.5060 C.3   311  ARG311      0.2205
    117  NE       -10.7590   46.2450  -26.6390 N.pl3 311  ARG311     -0.0865
    118  CZ       -11.7050   46.2470  -27.5740 C.cat 311  ARG311      0.5346
    119  NH1      -12.7580   45.4460  -27.4460 N.pl3 311  ARG311      0.1354
    120  NH2      -11.6210   47.0840  -28.6170 N.pl3 311  ARG311      0.1354
@<TRIPOS>BOND
     1    51    50    2
     2    50    49    1
     3    49    52    1
     4    49    48    1
     5    52    53    1
     6    53    54   ar
     7    53    55   ar
     8    54    56   ar
     9    78    79    1
    10    55    57   ar
    11    24    23    2
    12    56    58   ar
    13    79    80    1
    14    79    82    1
    15    39    40    1
    16    27    25    1
    17    22    23    1
    18    22    25    1
    19    22    21    1
    20    81    80    2
    21    23    28   am
    22    25    26    1
    23    57    58   ar
    24    40    41    1
    25    40    43    1
    26    41    42    2
    27    30    31    2
    28    30    29    1
    29    82    83    1
    30    28    29    1
    31    70    69    2
    32    29    32    1
    33     6     5    1
    34     6     7    1
    35    69    68    1
    36    83    84    1
    37    43    44    1
    38     9     7   ar
    39     5     2    1
    40     7     8   ar
    41    68    71    1
    42    68    67    1
    43    71    72    1
    44    32    33    1
    45    44    45    1
    46    74    72   ar
    47    74    76   ar
    48    72    73   ar
    49    84    85    1
    50     3     4    2
    51     3     2    1
    52    76    77   ar
    53    67    61   am
    54     2     1    1
    55    33    34    1
    56    73    75   ar
    57    45    46   ar
    58    45    47   ar
    59    77    75   ar
    60    20    18   ar
    61    20    19   ar
    62    61    62    2
    63    61    60    1
    64    18    16   ar
    65    34    35    1
    66    19    17   ar
    67    35    36    2
    68    60    59    1
    69    60    63    1
    70    16    15   ar
    71    17    15   ar
    72    92    91    1
    73    36    38    1
    74    36    37    1
    75    91    93    1
    76    91    90    1
    77    64    65    1
    78    64    63    1
    79    64    66    1
    80    15    14    1
    81    86    87    1
    82    90    87    1
    83    14    11    1
    84    87    88    1
    85    89    88    2
    86    11    10    1
    87    11    12    1
    88   108   107    1
    89   101    99    1
    90    12    13    2
    91   100    99    1
    92   120   118    1
    93   109   107    1
    94    98    99    1
    95    98    95    1
    96   107   106    1
    97    94    95    1
    98    95    96    1
    99   118   119    1
   100   118   117    2
   101   106   103    1
   102   117   116    1
   103    96    97    2
   104   103   102    1
   105   103   104    1
   106   116   115    1
   107   104   105    2
   108   115   114    1
   109   114   111    1
   110   111   110    1
   111   111   112    1
   112   112   113    2
