@<TRIPOS>MOLECULE
tmp/4dl1P04.pdb
 110 106 0 0 0
SMALL
GASTEIGER

@<TRIPOS>ATOM
      1  N         34.9520  -28.6230   10.9990 N.3    76  ASN76      -0.1240
      2  CA        35.0930  -28.4520   12.4400 C.3    76  ASN76       0.1653
      3  C         34.9820  -26.9730   12.7540 C.2    76  ASN76       0.2266
      4  O         35.8850  -26.1980   12.4260 O.2    76  ASN76      -0.2867
      5  CB        36.4630  -28.9630   12.8700 C.3    76  ASN76       0.1155
      6  CG        36.6570  -28.9320   14.3630 C.2    76  ASN76       0.2627
      7  OD1       35.9990  -28.1590   15.0900 O.2    76  ASN76      -0.2716
      8  ND2       37.5850  -29.7710   14.8340 N.am   76  ASN76      -0.0877
      9  N         34.5040  -25.6320   15.7360 N.3    78  SER78      -0.1202
     10  CA        34.8110  -25.2750   17.1180 C.3    78  SER78       0.2020
     11  C         36.0300  -24.3610   17.2080 C.2    78  SER78       0.2618
     12  O         36.3770  -23.8920   18.2840 O.2    78  SER78      -0.2717
     13  CB        35.0400  -26.5240   17.9700 C.3    78  SER78       0.2103
     14  OG        33.9820  -27.4500   17.8140 O.3    78  SER78      -0.2182
     15  N         36.7440  -24.1880   16.1050 N.am   79  ASN79      -0.1974
     16  CA        37.9830  -23.4110   16.1340 C.3    79  ASN79       0.1688
     17  C         38.3650  -22.8690   14.7560 C.2    79  ASN79       0.2292
     18  O         37.6880  -23.1430   13.7570 O.2    79  ASN79      -0.2864
     19  CB        39.1220  -24.2660   16.6950 C.3    79  ASN79       0.1181
     20  CG        39.4180  -25.4730   15.8340 C.2    79  ASN79       0.2629
     21  OD1       39.5920  -25.3620   14.6130 O.2    79  ASN79      -0.2716
     22  ND2       39.5400  -26.6270   16.4680 N.am   79  ASN79      -0.0877
     23  N         40.9690  -23.5360   12.8480 N.3    81  LEU81      -0.1245
     24  CA        42.0740  -24.3100   12.2970 C.3    81  LEU81       0.1561
     25  C         41.8550  -24.7290   10.8380 C.2    81  LEU81       0.2260
     26  O         42.7370  -25.3330   10.2170 O.2    81  LEU81      -0.2867
     27  CB        42.3700  -25.5300   13.1740 C.3    81  LEU81       0.0270
     28  CG        42.8290  -25.1570   14.6030 C.3    81  LEU81       0.0019
     29  CD1       43.0140  -26.3870   15.4290 C.3    81  LEU81       0.0001
     30  CD2       44.1130  -24.3190   14.6040 C.3    81  LEU81       0.0001
     31  N         39.9090  -27.1470    9.7140 N.3    83  LEU83      -0.1231
     32  CA        39.8750  -28.5850    9.6090 C.3    83  LEU83       0.1693
     33  C         38.5010  -29.1130    9.2050 C.2    83  LEU83       0.2592
     34  O         37.4530  -28.4460    9.3640 O.2    83  LEU83      -0.2718
     35  CB        40.2770  -29.2430   10.9210 C.3    83  LEU83       0.0284
     36  CG        41.5370  -28.7510   11.6410 C.3    83  LEU83       0.0019
     37  CD1       41.6570  -29.4310   13.0230 C.3    83  LEU83       0.0001
     38  CD2       42.7390  -29.0240   10.8100 C.3    83  LEU83       0.0001
     39  N         38.5370  -30.3320    8.6740 N.am   84  LEU84      -0.1966
     40  CA        37.3520  -31.1420    8.5180 C.3    84  LEU84       0.1728
     41  C         37.0670  -31.9110    9.8040 C.2    84  LEU84       0.2616
     42  O         37.9890  -32.4130   10.4790 O.2    84  LEU84      -0.2715
     43  CB        37.5470  -32.1090    7.3550 C.3    84  LEU84       0.0311
     44  CG        37.6210  -31.5260    5.9320 C.3    84  LEU84       0.0022
     45  CD1       37.9020  -32.6370    4.9520 C.3    84  LEU84       0.0001
     46  CD2       36.3250  -30.8420    5.5570 C.3    84  LEU84       0.0001
     47  N         35.7910  -31.9560   10.1700 N.am   85  ALA85      -0.1963
     48  CA        35.3560  -32.6900   11.3590 C.3    85  ALA85       0.1728
     49  C         35.8680  -34.1220   11.3080 C.2    85  ALA85       0.2616
     50  O         36.0390  -34.6980   10.2240 O.2    85  ALA85      -0.2715
     51  CB        33.8340  -32.6840   11.4520 C.3    85  ALA85       0.0334
     52  N         36.1180  -34.6880   12.4840 N.am   86  VAL86      -0.1963
     53  CA        36.4990  -36.0860   12.6080 C.3    86  VAL86       0.1727
     54  C         35.6250  -36.8010   13.6450 C.2    86  VAL86       0.2616
     55  O         34.9140  -36.1600   14.4220 O.2    86  VAL86      -0.2715
     56  CB        37.9960  -36.2110   12.9980 C.3    86  VAL86       0.0290
     57  CG1       38.8740  -35.4560   11.9800 C.3    86  VAL86       0.0023
     58  CG2       38.2510  -35.7180   14.4330 C.3    86  VAL86       0.0023
     59  N         35.6510  -38.1300   13.6150 N.am   87  ASN87      -0.1958
     60  CA        34.9240  -38.9660   14.5650 C.3    87  ASN87       0.1819
     61  C         35.2020  -38.5930   16.0330 C.2    87  ASN87       0.2621
     62  O         36.3460  -38.4200   16.4210 O.2    87  ASN87      -0.2715
     63  CB        35.3140  -40.4230   14.3400 C.3    87  ASN87       0.1195
     64  CG        34.2310  -41.3750   14.7430 C.2    87  ASN87       0.2630
     65  OD1       34.0660  -41.6830   15.9360 O.2    87  ASN87      -0.2716
     66  ND2       33.4180  -41.7890   13.7640 N.am   87  ASN87      -0.0877
     67  N         34.1610  -38.5430   16.8510 N.am   88  GLN88      -0.1963
     68  CA        34.2790  -38.0190   18.2120 C.3    88  GLN88       0.1733
     69  C         34.2980  -39.1620   19.2090 C.2    88  GLN88       0.2616
     70  O         34.4980  -38.9530   20.4060 O.2    88  GLN88      -0.2715
     71  CB        33.1210  -37.0740   18.5230 C.3    88  GLN88       0.0408
     72  CG        33.1760  -35.7360   17.7630 C.3    88  GLN88       0.0908
     73  CD        34.4330  -34.9420   18.0890 C.2    88  GLN88       0.2608
     74  OE1       35.3120  -34.7890   17.2450 O.2    88  GLN88      -0.2717
     75  NE2       34.5550  -34.5040   19.3370 N.am   88  GLN88      -0.0878
     76  N         34.2320  -40.3820   18.6840 N.am   89  ARG89      -0.1963
     77  CA        34.1400  -41.5820   19.5090 C.3    89  ARG89       0.1729
     78  C         35.3250  -42.5410   19.2910 C.2    89  ARG89       0.2616
     79  O         35.7790  -43.1920   20.2400 O.2    89  ARG89      -0.2715
     80  CB        32.8230  -42.3050   19.2090 C.3    89  ARG89       0.0348
     81  CG        31.5890  -41.5870   19.7460 C.3    89  ARG89       0.0492
     82  CD        30.3030  -42.2880   19.3080 C.3    89  ARG89       0.2205
     83  NE        30.2530  -43.6880   19.7410 N.pl3  89  ARG89      -0.0865
     84  CZ        29.6010  -44.6570   19.0990 C.cat  89  ARG89       0.5346
     85  NH1       28.9550  -44.4000   17.9640 N.pl3  89  ARG89       0.1354
     86  NH2       29.6200  -45.8950   19.5760 N.pl3  89  ARG89       0.1354
     87  N         35.8160  -42.6250   18.0500 N.am   90  PHE90      -0.1960
     88  CA        36.8930  -43.5520   17.7070 C.3    90  PHE90       0.1771
     89  C         38.0870  -42.8840   16.9850 C.2    90  PHE90       0.2619
     90  O         37.9240  -41.9920   16.1470 O.2    90  PHE90      -0.2715
     91  CB        36.3630  -44.7010   16.8400 C.3    90  PHE90       0.0574
     92  CG        35.3230  -45.5480   17.5120 C.ar   90  PHE90      -0.0200
     93  CD1       35.6840  -46.5110   18.4360 C.ar   90  PHE90      -0.0042
     94  CD2       33.9880  -45.4390   17.1580 C.ar   90  PHE90      -0.0042
     95  CE1       34.7220  -47.3260   19.0390 C.ar   90  PHE90      -0.0003
     96  CE2       33.0170  -46.2370   17.7820 C.ar   90  PHE90      -0.0003
     97  CZ        33.3910  -47.1720   18.7230 C.ar   90  PHE90      -0.0000
     98  N         39.2840  -43.3920   17.2690 N.am   91  GLN91      -0.1977
     99  CA        40.4570  -43.1100   16.4550 C.3    91  GLN91       0.1601
    100  C         41.0410  -44.4000   15.9180 C.2    91  GLN91       0.2287
    101  O         40.8560  -45.4650   16.5070 O.2    91  GLN91      -0.2864
    102  CB        41.5280  -42.3860   17.2780 C.3    91  GLN91       0.0394
    103  CG        41.3010  -40.8850   17.4030 C.3    91  GLN91       0.0908
    104  CD        42.1280  -40.2870   18.5270 C.2    91  GLN91       0.2608
    105  OE1       42.8410  -41.0020   19.2220 O.2    91  GLN91      -0.2717
    106  NE2       42.0680  -38.9740   18.6770 N.am   91  GLN91      -0.0878
    107  N         45.0890  -43.5480   17.0690 N.3    94  GLY94      -0.1225
    108  CA        45.2750  -42.1300   17.3330 C.3    94  GLY94       0.1811
    109  C         44.9490  -41.2420   16.1390 C.2    94  GLY94       0.2280
    110  O         44.8840  -40.0310   16.2840 O.2    94  GLY94      -0.2866
@<TRIPOS>BOND
     1    45    44    1
     2    46    44    1
     3    44    43    1
     4    43    40    1
     5    40    39    1
     6    40    41    1
     7    39    33   am
     8    33    34    2
     9    33    32    1
    10    32    31    1
    11    32    35    1
    12    41    47   am
    13    41    42    2
    14    47    48    1
    15    26    25    2
    16    50    49    2
    17    38    36    1
    18    25    24    1
    19    35    36    1
    20     1     2    1
    21    49    48    1
    22    49    52   am
    23    48    51    1
    24    36    37    1
    25    57    56    1
    26    24    23    1
    27    24    27    1
    28     4     3    2
    29     2     3    1
    30     2     5    1
    31    52    53    1
    32    53    56    1
    33    53    54    1
    34     5     6    1
    35    56    58    1
    36    27    28    1
    37    59    54   am
    38    59    60    1
    39    54    55    2
    40    18    17    2
    41    66    64   am
    42    63    60    1
    43    63    64    1
    44     6     8   am
    45     6     7    2
    46    60    61    1
    47    28    30    1
    48    28    29    1
    49    21    20    2
    50    64    65    2
    51    17    16    1
    52     9    10    1
    53    20    22   am
    54    20    19    1
    55   100    99    1
    56   100   101    2
    57    61    62    2
    58    61    67   am
    59    15    16    1
    60    15    11   am
    61    16    19    1
    62   109   110    2
    63   109   108    1
    64    90    89    2
    65    99    98    1
    66    99   102    1
    67    91    92    1
    68    91    88    1
    69    67    68    1
    70    89    98   am
    71    89    88    1
    72   107   108    1
    73    10    11    1
    74    10    13    1
    75    94    92   ar
    76    94    96   ar
    77    11    12    2
    78    74    73    2
    79   102   103    1
    80   103   104    1
    81    92    93   ar
    82    88    87    1
    83    72    73    1
    84    72    71    1
    85    96    97   ar
    86    14    13    1
    87    85    84    1
    88    87    78   am
    89    73    75   am
    90    68    71    1
    91    68    69    1
    92    93    95   ar
    93   104   106   am
    94   104   105    2
    95    76    69   am
    96    76    77    1
    97    97    95   ar
    98    84    86    1
    99    84    83    2
   100    80    77    1
   101    80    81    1
   102    69    70    2
   103    78    77    1
   104    78    79    2
   105    82    83    1
   106    82    81    1
