@<TRIPOS>MOLECULE
tmp/4dl8A00.pdb
 170 160 0 0 0
SMALL
GASTEIGER

@<TRIPOS>ATOM
      1  N          3.2330   18.8520   12.5140 N.3    15  GLN15      -0.1245
      2  CA         3.1800   18.6070   13.9590 C.3    15  GLN15       0.1566
      3  C          4.2280   19.4800   14.6840 C.2    15  GLN15       0.2260
      4  O          3.9490   20.1140   15.7290 O.2    15  GLN15      -0.2867
      5  CB         3.3580   17.1510   14.3010 C.3    15  GLN15       0.0367
      6  CG         3.1630   16.8890   15.8090 C.3    15  GLN15       0.0905
      7  CD         1.7480   17.2070   16.2320 C.2    15  GLN15       0.2608
      8  OE1        0.8030   16.8240   15.5410 O.2    15  GLN15      -0.2717
      9  NE2        1.5880   17.9120   17.3650 N.am   15  GLN15      -0.0878
     10  N          3.0720   23.1170   14.8150 N.3    18  LEU18      -0.1231
     11  CA         1.9950   23.3060   15.8000 C.3    18  LEU18       0.1693
     12  C          2.5820   23.2850   17.2130 C.2    18  LEU18       0.2592
     13  O          2.2630   24.1560   18.0490 O.2    18  LEU18      -0.2718
     14  CB         0.9130   22.2470   15.6480 C.3    18  LEU18       0.0284
     15  CG        -0.2590   22.2190   16.6870 C.3    18  LEU18       0.0019
     16  CD1       -0.9300   23.5830   16.7290 C.3    18  LEU18       0.0001
     17  CD2       -1.2810   21.0950   16.4110 C.3    18  LEU18       0.0001
     18  N          3.4550   22.3280   17.4700 N.am   19  ASN19      -0.1974
     19  CA         4.0810   22.2760   18.7850 C.3    19  ASN19       0.1688
     20  C          4.8570   23.5580   19.0810 C.2    19  ASN19       0.2292
     21  O          4.9690   23.9760   20.2430 O.2    19  ASN19      -0.2864
     22  CB         5.0060   21.0950   18.9320 C.3    19  ASN19       0.1181
     23  CG         4.2710   19.7320   18.9450 C.2    19  ASN19       0.2629
     24  OD1        3.0210   19.6530   18.9610 O.2    19  ASN19      -0.2716
     25  ND2        5.0360   18.6730   18.9110 N.am   19  ASN19      -0.0877
     26  N          2.5840   26.2710   20.2600 N.3    22  VAL22      -0.1245
     27  CA         2.3300   26.0800   21.7010 C.3    22  VAL22       0.1561
     28  C          3.5130   26.6010   22.5320 C.2    22  VAL22       0.2260
     29  O          3.3270   27.3710   23.4620 O.2    22  VAL22      -0.2867
     30  CB         2.0340   24.6140   22.0390 C.3    22  VAL22       0.0252
     31  CG1        1.9280   24.4380   23.5560 C.3    22  VAL22       0.0019
     32  CG2        0.7220   24.1650   21.3590 C.3    22  VAL22       0.0019
     33  N          9.7040   19.7510   26.4610 N.3    30  ARG30      -0.1245
     34  CA         8.8990   18.5440   26.5620 C.3    30  ARG30       0.1563
     35  C          9.7900   17.3480   26.6850 C.2    30  ARG30       0.2260
     36  O         10.9290   17.3550   26.2060 O.2    30  ARG30      -0.2867
     37  CB         8.0120   18.4160   25.3050 C.3    30  ARG30       0.0307
     38  CG         7.0850   19.5520   25.1210 C.3    30  ARG30       0.0489
     39  CD         5.7280   19.3910   25.8270 C.3    30  ARG30       0.2205
     40  NE         5.8340   19.4760   27.2880 N.pl3  30  ARG30      -0.0865
     41  CZ         5.9270   20.6010   27.9900 C.cat  30  ARG30       0.5346
     42  NH1        5.9500   21.7900   27.4050 N.pl3  30  ARG30       0.1354
     43  NH2        5.9860   20.5340   29.3330 N.pl3  30  ARG30       0.1354
     44  N          4.2880   12.9670   26.2850 N.3    35  TRP35      -0.1241
     45  CA         3.5460   12.4820   25.1290 C.3    35  TRP35       0.1605
     46  C          2.8560   11.1740   25.4940 C.2    35  TRP35       0.2264
     47  O          1.7400   10.9350   25.0720 O.2    35  TRP35      -0.2867
     48  CB         4.4450   12.3280   23.8800 C.3    35  TRP35       0.0550
     49  CG         5.2430   13.5570   23.6060 C.ar   35  TRP35       0.0003
     50  CD1        6.5980   13.7100   23.7600 C.ar   35  TRP35       0.0946
     51  CD2        4.7490   14.8320   23.1920 C.ar   35  TRP35       0.0152
     52  NE1        6.9580   14.9920   23.4720 N.ar   35  TRP35      -0.2442
     53  CE2        5.8490   15.6990   23.1100 C.ar   35  TRP35       0.0810
     54  CE3        3.4830   15.3250   22.8790 C.ar   35  TRP35       0.0012
     55  CZ2        5.7210   17.0100   22.7160 C.ar   35  TRP35       0.0191
     56  CZ3        3.3530   16.6170   22.4730 C.ar   35  TRP35       0.0001
     57  CH2        4.4660   17.4600   22.4160 C.ar   35  TRP35       0.0015
     58  N         -5.9500   10.9510   25.7700 N.3    42  GLU42      -0.1245
     59  CA        -6.7990   10.8810   24.5910 C.3    42  GLU42       0.1567
     60  C         -7.4000    9.5080   24.4430 C.2    42  GLU42       0.2260
     61  O         -8.5370    9.3700   23.9760 O.2    42  GLU42      -0.2867
     62  CB        -6.0080   11.2020   23.3180 C.3    42  GLU42       0.0388
     63  CG        -5.5500   12.6550   23.2430 C.3    42  GLU42       0.1160
     64  CD        -6.6590   13.6670   23.3930 C.2    42  GLU42       0.3649
     65  OE1       -7.7720   13.5080   22.8170 O.co2  42  GLU42      -0.2457
     66  OE2       -6.3900   14.6810   24.0800 O.co2  42  GLU42      -0.2457
     67  N        -10.4320    9.4710   26.4570 N.3    45  GLU45      -0.1245
     68  CA       -11.5240   10.1350   25.7070 C.3    45  GLU45       0.1567
     69  C        -12.1390    9.2080   24.6730 C.2    45  GLU45       0.2260
     70  O        -13.3690    9.2280   24.4240 O.2    45  GLU45      -0.2867
     71  CB       -11.0070   11.3650   24.9720 C.3    45  GLU45       0.0388
     72  CG       -10.5000   12.4650   25.8730 C.3    45  GLU45       0.1160
     73  CD        -9.8230   13.6140   25.1020 C.2    45  GLU45       0.3649
     74  OE1      -10.3320   13.9770   24.0180 O.co2  45  GLU45      -0.2457
     75  OE2       -8.8020   14.1530   25.5800 O.co2  45  GLU45      -0.2457
     76  N         -6.3950   12.9140   17.4810 N.3    73  ASP73      -0.1239
     77  CA        -5.6340   13.5390   18.5650 C.3    73  ASP73       0.1674
     78  C         -4.4320   12.6650   18.9860 C.2    73  ASP73       0.2266
     79  O         -3.3410   13.2040   19.2570 O.2    73  ASP73      -0.2867
     80  CB        -6.5200   13.7900   19.7930 C.3    73  ASP73       0.1410
     81  CG        -7.5770   14.8840   19.5590 C.2    73  ASP73       0.3668
     82  OD1       -7.4260   15.7330   18.6500 O.co2  73  ASP73      -0.2456
     83  OD2       -8.5880   14.9050   20.3270 O.co2  73  ASP73      -0.2456
     84  N         -1.5480   13.1770   16.6950 N.3    76  HIS76      -0.1226
     85  CA        -0.7720   14.3920   16.9130 C.3    76  HIS76       0.1752
     86  C          0.3120   14.1040   17.9680 C.2    76  HIS76       0.2596
     87  O          1.4800   14.5270   17.8550 O.2    76  HIS76      -0.2718
     88  CB        -1.6270   15.5600   17.4360 C.3    76  HIS76       0.0759
     89  CG        -2.4310   16.3120   16.3990 C.ar   76  HIS76       0.0818
     90  ND1       -3.5410   15.7750   15.7790 N.ar   76  HIS76      -0.2268
     91  CD2       -2.3860   17.6150   16.0280 C.ar   76  HIS76       0.1154
     92  CE1       -4.0900   16.7030   15.0060 C.ar   76  HIS76       0.1986
     93  NE2       -3.4170   17.8310   15.1540 N.ar   76  HIS76      -0.2212
     94  N         -0.0810   13.4230   19.0220 N.am   77  PHE77      -0.1976
     95  CA         0.8160   13.1640   20.1390 C.3    77  PHE77       0.1639
     96  C          1.8460   12.0660   19.8630 C.2    77  PHE77       0.2290
     97  O          2.9820   12.1240   20.3460 O.2    77  PHE77      -0.2864
     98  CB         0.0040   12.8540   21.3990 C.3    77  PHE77       0.0560
     99  CG        -0.7830   14.0180   21.9330 C.ar   77  PHE77      -0.0200
    100  CD1       -0.1430   15.2220   22.2350 C.ar   77  PHE77      -0.0042
    101  CD2       -2.1530   13.9210   22.1550 C.ar   77  PHE77      -0.0042
    102  CE1       -0.8580   16.2870   22.7580 C.ar   77  PHE77      -0.0003
    103  CE2       -2.8610   14.9610   22.6910 C.ar   77  PHE77      -0.0003
    104  CZ        -2.2280   16.1590   23.0030 C.ar   77  PHE77      -0.0000
    105  N         -7.9740   18.9730   12.2330 N.3   145  LYS145     -0.1245
    106  CA        -7.8030   19.1640   13.6890 C.3   145  LYS145      0.1561
    107  C         -6.5580   19.9690   13.9960 C.2   145  LYS145      0.2260
    108  O         -6.5610   20.8260   14.9100 O.2   145  LYS145     -0.2867
    109  CB        -7.8280   17.8380   14.4190 C.3   145  LYS145      0.0271
    110  CG        -7.6950   17.9820   15.9470 C.3   145  LYS145      0.0035
    111  CD        -8.7450   18.8890   16.5500 C.3   145  LYS145      0.0206
    112  CE        -8.6500   18.8780   18.0730 C.3   145  LYS145      0.1093
    113  NZ        -9.2740   17.6850   18.7030 N.3   145  LYS145     -0.1314
    114  N         -6.5660   23.1610   16.2610 N.3   149  ASN149     -0.1240
    115  CA        -5.6110   23.3150   17.3540 C.3   149  ASN149      0.1653
    116  C         -4.9280   24.6620   17.3360 C.2   149  ASN149      0.2266
    117  O         -4.6820   25.2740   18.3790 O.2   149  ASN149     -0.2867
    118  CB        -4.5910   22.2010   17.3050 C.3   149  ASN149      0.1155
    119  CG        -5.1210   20.8920   17.8530 C.2   149  ASN149      0.2627
    120  OD1       -5.9440   20.8860   18.7710 O.2   149  ASN149     -0.2716
    121  ND2       -4.7010   19.7710   17.2750 N.am  149  ASN149     -0.0877
    122  N         -7.4850   27.3420   18.3150 N.3   152  ARG152     -0.1231
    123  CA        -7.6280   27.3690   19.7750 C.3   152  ARG152      0.1694
    124  C         -6.5260   28.1860   20.4220 C.2   152  ARG152      0.2591
    125  O         -6.7910   29.0140   21.3340 O.2   152  ARG152     -0.2718
    126  CB        -7.6190   25.9480   20.3350 C.3   152  ARG152      0.0321
    127  CG        -8.8660   25.1320   20.1060 C.3   152  ARG152      0.0489
    128  CD        -8.6440   23.7000   20.5180 C.3   152  ARG152      0.2205
    129  NE        -9.8670   22.9020   20.5170 N.pl3 152  ARG152     -0.0865
    130  CZ        -9.9300   21.6220   20.9180 C.cat 152  ARG152      0.5346
    131  NH1       -8.8430   20.9960   21.3600 N.pl3 152  ARG152      0.1354
    132  NH2      -11.0980   20.9680   20.8890 N.pl3 152  ARG152      0.1354
    133  N         -5.2890   28.0100   19.9710 N.am  153  GLN153     -0.1979
    134  CA        -4.1890   28.7960   20.5230 C.3   153  GLN153      0.1601
    135  C         -4.3520   30.2980   20.2780 C.2   153  GLN153      0.2287
    136  O         -4.0990   31.1140   21.1760 O.2   153  GLN153     -0.2864
    137  CB        -2.8510   28.2960   20.0010 C.3   153  GLN153      0.0394
    138  CG        -2.4960   26.9050   20.4500 C.3   153  GLN153      0.0908
    139  CD        -2.2800   26.8090   21.9470 C.2   153  GLN153      0.2608
    140  OE1       -1.5420   27.6230   22.5300 O.2   153  GLN153     -0.2717
    141  NE2       -2.9500   25.8420   22.5890 N.am  153  GLN153     -0.0878
    142  N         -6.7710   29.4020   24.2950 N.3   157  TYR157     -0.1241
    143  CA        -6.7880   28.0950   24.9150 C.3   157  TYR157      0.1605
    144  C         -5.7550   27.9350   26.0290 C.2   157  TYR157      0.2264
    145  O         -6.0560   27.3520   27.0910 O.2   157  TYR157     -0.2867
    146  CB        -6.5980   27.0390   23.8380 C.3   157  TYR157      0.0534
    147  CG        -7.1950   25.6770   24.1140 C.ar  157  TYR157     -0.0201
    148  CD1       -6.4040   24.5750   24.1830 C.ar  157  TYR157     -0.0009
    149  CD2       -8.5710   25.4970   24.1970 C.ar  157  TYR157     -0.0009
    150  CE1       -6.9370   23.3110   24.3910 C.ar  157  TYR157      0.0417
    151  CE2       -9.1190   24.2390   24.4450 C.ar  157  TYR157      0.0417
    152  CZ        -8.2890   23.1490   24.5500 C.ar  157  TYR157      0.1957
    153  OH        -8.8000   21.8710   24.7630 O.3   157  TYR157     -0.2866
    154  N        -15.0550   25.7260   24.3520 N.3   164  LYS164     -0.1245
    155  CA       -15.0700   24.6910   23.2790 C.3   164  LYS164      0.1561
    156  C        -16.4850   24.3640   22.7720 C.2   164  LYS164      0.2260
    157  O        -16.6770   24.0240   21.5990 O.2   164  LYS164     -0.2867
    158  CB       -14.3260   23.4450   23.7790 C.3   164  LYS164      0.0271
    159  CG       -14.7340   22.0830   23.2900 C.3   164  LYS164      0.0035
    160  CD       -13.6420   21.0000   23.5680 C.3   164  LYS164      0.0206
    161  CE       -12.4020   21.4610   24.3650 C.3   164  LYS164      0.1093
    162  NZ       -11.3500   20.3800   24.5100 N.3   164  LYS164     -0.1314
    163  N        -14.9440   20.5970   17.7350 N.3   172  ASN172     -0.1240
    164  CA       -14.5470   19.4040   16.9790 C.3   172  ASN172      0.1653
    165  C        -15.6290   18.9710   15.9990 C.2   172  ASN172      0.2266
    166  O        -15.3270   18.4960   14.9030 O.2   172  ASN172     -0.2867
    167  CB       -14.2480   18.2260   17.8780 C.3   172  ASN172      0.1155
    168  CG       -12.9520   18.3430   18.6080 C.2   172  ASN172      0.2627
    169  OD1      -11.9220   18.5460   17.9900 O.2   172  ASN172     -0.2716
    170  ND2      -12.9860   18.1330   19.9460 N.am  172  ASN172     -0.0877
@<TRIPOS>BOND
     1   105   106    1
     2     1     2    1
     3   106   107    1
     4   106   109    1
     5     2     5    1
     6     2     3    1
     7   107   108    2
     8     5     6    1
     9   109   110    1
    10     3     4    2
    11    10    11    1
    12   166   165    2
    13    92    93   ar
    14    92    90   ar
    15    93    91   ar
    16     8     7    2
    17    14    11    1
    18    14    15    1
    19    90    89   ar
    20    11    12    1
    21     6     7    1
    22   110   111    1
    23   165   164    1
    24    91    89   ar
    25     7     9   am
    26   114   115    1
    27    89    88    1
    28    17    15    1
    29   111   112    1
    30    15    16    1
    31    84    85    1
    32    85    88    1
    33    85    86    1
    34   164   163    1
    35   164   167    1
    36    12    18   am
    37    12    13    2
    38   121   119   am
    39   118   115    1
    40   118   119    1
    41   116   115    1
    42   116   117    2
    43    18    19    1
    44    76    77    1
    45   119   120    2
    46    87    86    2
    47   167   168    1
    48    86    94   am
    49   169   168    2
    50   112   113    1
    51   122   123    1
    52    77    78    1
    53    77    80    1
    54   168   170   am
    55    82    81   ar
    56    19    22    1
    57    19    20    1
    58    25    23   am
    59    22    23    1
    60    23    24    2
    61    78    79    2
    62    94    95    1
    63    20    21    2
    64    81    80    1
    65    81    83   ar
    66   123   126    1
    67   123   124    1
    68    96    95    1
    69    96    97    2
    70   133   124   am
    71   133   134    1
    72   137   138    1
    73   137   134    1
    74   127   126    1
    75   127   128    1
    76    95    98    1
    77    26    27    1
    78   135   134    1
    79   135   136    2
    80   124   125    2
    81   138   139    1
    82   129   128    1
    83   129   130    2
    84   132   130    1
    85   130   131    1
    86    32    30    1
    87    98    99    1
    88   157   156    2
    89    27    30    1
    90    27    28    1
    91    99   101   ar
    92    99   100   ar
    93   139   140    2
    94   139   141   am
    95    30    31    1
    96   101   103   ar
    97   100   102   ar
    98    57    56   ar
    99    57    55   ar
   100    56    54   ar
   101    28    29    2
   102   103   104   ar
   103    55    53   ar
   104   102   104   ar
   105   156   155    1
   106    65    64   ar
   107    54    51   ar
   108    53    51   ar
   109    53    52   ar
   110    51    49   ar
   111    63    62    1
   112    63    64    1
   113   155   158    1
   114   155   154    1
   115   159   160    1
   116   159   158    1
   117    62    59    1
   118    64    66   ar
   119    52    50   ar
   120   160   161    1
   121    49    50   ar
   122    49    48    1
   123   146   147    1
   124   146   143    1
   125    48    45    1
   126    61    60    2
   127    74    73   ar
   128   147   148   ar
   129   147   149   ar
   130   148   150   ar
   131   149   151   ar
   132   142   143    1
   133   161   162    1
   134   150   152   ar
   135    70    69    2
   136    60    59    1
   137   151   152   ar
   138   152   153    1
   139    59    58    1
   140    69    68    1
   141   143   144    1
   142    71    68    1
   143    71    72    1
   144    47    46    2
   145    73    75   ar
   146    73    72    1
   147    38    37    1
   148    38    39    1
   149    45    46    1
   150    45    44    1
   151    37    34    1
   152    68    67    1
   153    39    40    1
   154   144   145    2
   155    36    35    2
   156    33    34    1
   157    34    35    1
   158    40    41    2
   159    42    41    1
   160    41    43    1
