@<TRIPOS>MOLECULE
tmp/4dldB00.pdb
 156 149 0 0 0
SMALL
GASTEIGER

@<TRIPOS>ATOM
      1  N         -4.4470   39.4800  140.7320 N.3    10  GLU10      -0.1231
      2  CA        -3.1360   39.5140  140.1020 C.3    10  GLU10       0.1699
      3  C         -3.0320   40.8250  139.3280 C.2    10  GLU10       0.2592
      4  O         -3.7160   41.0230  138.3350 O.2    10  GLU10      -0.2718
      5  CB        -2.9600   38.3150  139.1560 C.3    10  GLU10       0.0402
      6  CG        -1.5160   38.1070  138.6770 C.3    10  GLU10       0.1161
      7  CD        -0.6530   37.4350  139.7210 C.2    10  GLU10       0.3649
      8  OE1       -0.8190   36.2130  139.9360 O.co2  10  GLU10      -0.2457
      9  OE2        0.1860   38.1240  140.3460 O.co2  10  GLU10      -0.2457
     10  N         -2.1840   41.7310  139.8000 N.am   11  GLU11      -0.1979
     11  CA        -2.0340   43.0460  139.1860 C.3    11  GLU11       0.1602
     12  C         -1.2920   42.9310  137.8420 C.2    11  GLU11       0.2287
     13  O         -0.3660   42.1310  137.7110 O.2    11  GLU11      -0.2864
     14  CB        -1.2760   43.9560  140.1730 C.3    11  GLU11       0.0415
     15  CG        -1.0170   45.3660  139.7020 C.3    11  GLU11       0.1163
     16  CD        -0.1480   46.1390  140.7020 C.2    11  GLU11       0.3649
     17  OE1        0.0550   47.3550  140.5130 O.co2  11  GLU11      -0.2457
     18  OE2        0.3300   45.5250  141.6770 O.co2  11  GLU11      -0.2457
     19  N         -4.1710   42.7270  136.1730 N.3    13  TYR13      -0.1241
     20  CA        -5.2610   42.0370  135.4790 C.3    13  TYR13       0.1605
     21  C         -6.5330   42.1120  136.3170 C.2    13  TYR13       0.2264
     22  O         -7.6190   42.4350  135.8170 O.2    13  TYR13      -0.2867
     23  CB        -4.8740   40.5760  135.2290 C.3    13  TYR13       0.0534
     24  CG        -3.6760   40.4290  134.3140 C.ar   13  TYR13      -0.0201
     25  CD1       -3.8410   40.3860  132.9400 C.ar   13  TYR13      -0.0009
     26  CD2       -2.3810   40.3550  134.8180 C.ar   13  TYR13      -0.0009
     27  CE1       -2.7560   40.2620  132.0730 C.ar   13  TYR13       0.0417
     28  CE2       -1.2710   40.2170  133.9470 C.ar   13  TYR13       0.0417
     29  CZ        -1.4770   40.1820  132.5750 C.ar   13  TYR13       0.1957
     30  OH        -0.4190   40.0640  131.6750 O.3    13  TYR13      -0.2866
     31  N         -4.0680   29.1410  140.3110 N.3    58  TYR58      -0.1241
     32  CA        -4.3780   29.1470  138.8750 C.3    58  TYR58       0.1605
     33  C         -4.8640   27.7670  138.4470 C.2    58  TYR58       0.2264
     34  O         -5.9050   27.6460  137.8210 O.2    58  TYR58      -0.2867
     35  CB        -3.1820   29.6090  138.0300 C.3    58  TYR58       0.0534
     36  CG        -2.9910   31.1090  138.0740 C.ar   58  TYR58      -0.0201
     37  CD1       -3.6200   31.9330  137.1480 C.ar   58  TYR58      -0.0009
     38  CD2       -2.2240   31.7060  139.0730 C.ar   58  TYR58      -0.0009
     39  CE1       -3.4630   33.3140  137.1880 C.ar   58  TYR58       0.0417
     40  CE2       -2.0580   33.1030  139.1210 C.ar   58  TYR58       0.0417
     41  CZ        -2.6860   33.8880  138.1850 C.ar   58  TYR58       0.1957
     42  OH        -2.5510   35.2570  138.2160 O.3    58  TYR58      -0.2866
     43  N         -5.0060   35.9910  133.8540 N.3    85  PRO85      -0.2102
     44  CA        -3.7820   35.7150  133.0840 C.3    85  PRO85       0.1504
     45  C         -3.4270   34.2340  133.1870 C.2    85  PRO85       0.2576
     46  O         -2.4260   33.8650  133.8030 O.2    85  PRO85      -0.2718
     47  CB        -2.7170   36.6030  133.7630 C.3    85  PRO85       0.0282
     48  CG        -3.2360   36.8090  135.1810 C.3    85  PRO85       0.0208
     49  CD        -4.7490   36.8430  135.0360 C.3    85  PRO85       0.0893
     50  N         -4.2650   33.3970  132.5680 N.am   86  LEU86      -0.1966
     51  CA        -4.1830   31.9420  132.6950 C.3    86  LEU86       0.1728
     52  C         -3.5390   31.3770  131.4460 C.2    86  LEU86       0.2616
     53  O         -4.0900   31.4850  130.3410 O.2    86  LEU86      -0.2715
     54  CB        -5.5820   31.3350  132.8770 C.3    86  LEU86       0.0311
     55  CG        -5.6690   29.8150  132.9730 C.3    86  LEU86       0.0022
     56  CD1       -4.9360   29.2880  134.2100 C.3    86  LEU86       0.0001
     57  CD2       -7.1440   29.3820  132.9550 C.3    86  LEU86       0.0001
     58  N         -2.3650   30.7900  131.6200 N.am   87  THR87      -0.1951
     59  CA        -1.5430   30.3930  130.4760 C.3    87  THR87       0.1897
     60  C         -2.1170   29.1590  129.7770 C.2    87  THR87       0.2313
     61  O         -2.4750   28.1740  130.4340 O.2    87  THR87      -0.2863
     62  CB        -0.1090   30.0930  130.9340 C.3    87  THR87       0.1794
     63  OG1        0.4830   31.2910  131.4650 O.3    87  THR87      -0.2208
     64  CG2        0.7390   29.5590  129.7770 C.3    87  THR87       0.0378
     65  N         -3.1370   21.5940  130.4850 N.3    92  ARG92      -0.1245
     66  CA        -4.4160   22.2190  130.8350 C.3    92  ARG92       0.1563
     67  C         -5.4500   22.1180  129.7130 C.2    92  ARG92       0.2260
     68  O         -6.6420   21.9680  129.9710 O.2    92  ARG92      -0.2867
     69  CB        -4.2260   23.6900  131.1990 C.3    92  ARG92       0.0307
     70  CG        -3.5680   23.9250  132.5460 C.3    92  ARG92       0.0489
     71  CD        -3.2810   25.4030  132.7230 C.3    92  ARG92       0.2205
     72  NE        -2.7160   25.6910  134.0320 N.pl3  92  ARG92      -0.0865
     73  CZ        -2.1150   26.8350  134.3330 C.cat  92  ARG92       0.5346
     74  NH1       -2.0080   27.7910  133.4130 N.pl3  92  ARG92       0.1354
     75  NH2       -1.6290   27.0220  135.5510 N.pl3  92  ARG92       0.1354
     76  N          8.0480   31.3350  140.7540 N.3   134  VAL134     -0.1245
     77  CA         6.8890   31.1600  141.6160 C.3   134  VAL134      0.1561
     78  C          6.3850   29.7230  141.4830 C.2   134  VAL134      0.2260
     79  O          6.3760   29.1640  140.3930 O.2   134  VAL134     -0.2867
     80  CB         5.7850   32.1460  141.2170 C.3   134  VAL134      0.0252
     81  CG1        4.4910   31.8420  141.9490 C.3   134  VAL134      0.0019
     82  CG2        6.2490   33.5800  141.4780 C.3   134  VAL134      0.0019
     83  N          2.8150   27.5740  139.0440 N.3   137  GLY137     -0.1210
     84  CA         2.2880   28.2800  137.8960 C.3   137  GLY137      0.1956
     85  C          2.8510   27.6350  136.6500 C.2   137  GLY137      0.2613
     86  O          3.6080   26.6650  136.7320 O.2   137  GLY137     -0.2717
     87  N          2.4870   28.1720  135.4930 N.am  138  SER138     -0.1938
     88  CA         2.9580   27.6170  134.2410 C.3   138  SER138      0.2055
     89  C          4.4640   27.7500  134.0870 C.2   138  SER138      0.2644
     90  O          5.0800   26.9840  133.3380 O.2   138  SER138     -0.2714
     91  CB         2.2370   28.2590  133.0550 C.3   138  SER138      0.2130
     92  OG         2.0600   29.6520  133.2400 O.3   138  SER138     -0.2179
     93  N          5.0620   28.7110  134.7920 N.am  139  THR139     -0.1936
     94  CA         6.5050   28.9580  134.6590 C.3   139  THR139      0.2028
     95  C          7.3420   27.8570  135.3100 C.2   139  THR139      0.2642
     96  O          8.2760   27.3130  134.7040 O.2   139  THR139     -0.2714
     97  CB         6.9110   30.3500  135.1970 C.3   139  THR139      0.1808
     98  OG1        6.3330   31.3640  134.3600 O.3   139  THR139     -0.2208
     99  CG2        8.4220   30.5130  135.1890 C.3   139  THR139      0.0379
    100  N          7.0130   27.5190  136.5500 N.am  140  MET140     -0.1976
    101  CA         7.7080   26.4240  137.2020 C.3   140  MET140      0.1605
    102  C          7.4240   25.1420  136.4360 C.2   140  MET140      0.2287
    103  O          8.3190   24.3370  136.1890 O.2   140  MET140     -0.2864
    104  CB         7.2450   26.2850  138.6540 C.3   140  MET140      0.0413
    105  CG         8.0700   25.3170  139.4690 C.3   140  MET140      0.0598
    106  SD         7.1350   24.6850  140.8750 S.3   140  MET140     -0.1393
    107  CE         5.9800   23.6050  140.0240 C.3   140  MET140      0.0692
    108  N          4.6390   36.4160  142.9640 N.3   170  SER170     -0.1217
    109  CA         5.4980   37.3340  142.2250 C.3   170  SER170      0.1889
    110  C          6.0520   38.4530  143.1170 C.2   170  SER170      0.2288
    111  O          7.2110   38.8520  142.9830 O.2   170  SER170     -0.2866
    112  CB         4.7420   37.9130  141.0290 C.3   170  SER170      0.2089
    113  OG         4.3130   36.8720  140.1670 O.3   170  SER170     -0.2183
    114  N         12.6350   34.0820  137.1720 N.3   185  LEU185     -0.1231
    115  CA        12.0390   33.6710  135.8990 C.3   185  LEU185      0.1693
    116  C         10.5630   34.0380  135.9530 C.2   185  LEU185      0.2592
    117  O          9.8470   33.6370  136.8680 O.2   185  LEU185     -0.2718
    118  CB        12.2200   32.1720  135.6730 C.3   185  LEU185      0.0284
    119  CG        13.5840   31.7130  135.1450 C.3   185  LEU185      0.0019
    120  CD1       13.8210   32.1800  133.7060 C.3   185  LEU185      0.0001
    121  CD2       14.6930   32.1990  136.0270 C.3   185  LEU185      0.0001
    122  N         10.1050   34.8280  134.9910 N.am  186  MET186     -0.1965
    123  CA         8.7820   35.4360  135.0980 C.3   186  MET186      0.1736
    124  C          8.2000   35.6640  133.7150 C.2   186  MET186      0.2616
    125  O          8.9490   35.8620  132.7490 O.2   186  MET186     -0.2715
    126  CB         8.9060   36.7640  135.8650 C.3   186  MET186      0.0427
    127  CG         7.6500   37.6280  135.9520 C.3   186  MET186      0.0599
    128  SD         7.9720   39.2290  136.8020 S.3   186  MET186     -0.1393
    129  CE         6.9420   39.0710  138.2690 C.3   186  MET186      0.0692
    130  N          6.8750   35.6270  133.6000 N.am  187  GLU187     -0.1977
    131  CA         6.2610   35.8350  132.2990 C.3   187  GLU187      0.1602
    132  C          6.5430   37.2700  131.8570 C.2   187  GLU187      0.2287
    133  O          6.4880   38.2010  132.6570 O.2   187  GLU187     -0.2864
    134  CB         4.7660   35.4740  132.3290 C.3   187  GLU187      0.0415
    135  CG         4.5850   33.9480  132.5100 C.3   187  GLU187      0.1163
    136  CD         3.1450   33.4920  132.6480 C.2   187  GLU187      0.3649
    137  OE1        2.3040   34.2660  133.1500 O.co2 187  GLU187     -0.2457
    138  OE2        2.8600   32.3400  132.2500 O.co2 187  GLU187     -0.2457
    139  N          4.4620   40.4450  132.6530 N.3   190  SER190     -0.1217
    140  CA         4.5830   40.9200  134.0330 C.3   190  SER190      0.1889
    141  C          5.9300   41.5960  134.2740 C.2   190  SER190      0.2288
    142  O          6.0160   42.5460  135.0430 O.2   190  SER190     -0.2866
    143  CB         4.3340   39.7970  135.0490 C.3   190  SER190      0.2089
    144  OG         2.9530   39.4640  135.0790 O.3   190  SER190     -0.2183
    145  N         -2.2040   33.8020  126.9680 N.3   213  TYR213     -0.1241
    146  CA        -3.2560   33.6930  127.9750 C.3   213  TYR213      0.1605
    147  C         -4.5650   33.4840  127.2360 C.2   213  TYR213      0.2264
    148  O         -4.7980   34.1350  126.2240 O.2   213  TYR213     -0.2867
    149  CB        -3.3690   34.9740  128.8100 C.3   213  TYR213      0.0534
    150  CG        -2.1690   35.2760  129.6870 C.ar  213  TYR213     -0.0201
    151  CD1       -1.3990   34.2560  130.2390 C.ar  213  TYR213     -0.0009
    152  CD2       -1.8170   36.5860  129.9720 C.ar  213  TYR213     -0.0009
    153  CE1       -0.2950   34.5430  131.0430 C.ar  213  TYR213      0.0417
    154  CE2       -0.7200   36.8810  130.7690 C.ar  213  TYR213      0.0417
    155  CZ         0.0330   35.8620  131.2990 C.ar  213  TYR213      0.1957
    156  OH         1.1170   36.1730  132.0920 O.3   213  TYR213     -0.2866
@<TRIPOS>BOND
     1   148   147    2
     2   145   146    1
     3   147   146    1
     4   146   149    1
     5   149   150    1
     6   150   152   ar
     7   150   151   ar
     8    67    68    2
     9    67    66    1
    10    60    61    2
    11    60    59    1
    12    64    62    1
    13   152   154   ar
    14   151   153   ar
    15    53    52    2
    16    59    62    1
    17    59    58    1
    18    65    66    1
    19   154   155   ar
    20    66    69    1
    21    62    63    1
    22   153   155   ar
    23    69    70    1
    24   155   156    1
    25    52    58   am
    26    52    51    1
    27    30    29    1
    28   132   131    1
    29   132   133    2
    30    27    29   ar
    31    27    25   ar
    32   138   136   ar
    33   131   134    1
    34   131   130    1
    35   134   135    1
    36   135   136    1
    37    70    71    1
    38    50    51    1
    39    50    45   am
    40    29    28   ar
    41   136   137   ar
    42   139   140    1
    43    51    54    1
    44    71    72    1
    45   125   124    2
    46    54    55    1
    47    25    24   ar
    48    57    55    1
    49    55    56    1
    50    91    92    1
    51    91    88    1
    52    44    45    1
    53    44    47    1
    54    44    43    1
    55    45    46    2
    56    90    89    2
    57    74    73    1
    58   130   124   am
    59   120   119    1
    60   124   123    1
    61    47    48    1
    62    43    49    1
    63    28    26   ar
    64    72    73    2
    65   140   141    1
    66   140   143    1
    67    89    88    1
    68    89    93   am
    69    88    87    1
    70   141   142    2
    71    24    26   ar
    72    24    23    1
    73    73    75    1
    74    98    97    1
    75    94    93    1
    76    94    97    1
    77    94    95    1
    78    96    95    2
    79   122   123    1
    80   122   116   am
    81    49    48    1
    82   143   144    1
    83   123   126    1
    84   119   118    1
    85   119   121    1
    86    99    97    1
    87    23    20    1
    88    95   100   am
    89    20    19    1
    90    20    21    1
    91    87    85   am
    92   118   115    1
    93    22    21    2
    94   126   127    1
    95   115   116    1
    96   115   114    1
    97   127   128    1
    98   116   117    2
    99   103   102    2
   100   102   101    1
   101   100   101    1
   102    85    86    2
   103    85    84    1
   104   128   129    1
   105    37    39   ar
   106    37    36   ar
   107    39    41   ar
   108   101   104    1
   109    13    12    2
   110    34    33    2
   111    12    11    1
   112    84    83    1
   113    35    36    1
   114    35    32    1
   115    36    38   ar
   116    41    42    1
   117    41    40   ar
   118     4     3    2
   119    33    32    1
   120   104   105    1
   121     6     5    1
   122     6     7    1
   123    32    31    1
   124    38    40   ar
   125     5     2    1
   126    11    10    1
   127    11    14    1
   128     3    10   am
   129     3     2    1
   130   105   106    1
   131    15    14    1
   132    15    16    1
   133     7     8   ar
   134     7     9   ar
   135   107   106    1
   136     2     1    1
   137   113   112    1
   138    79    78    2
   139    17    16   ar
   140    16    18   ar
   141    76    77    1
   142   112   109    1
   143    80    82    1
   144    80    77    1
   145    80    81    1
   146    78    77    1
   147   109   108    1
   148   109   110    1
   149   111   110    2
