@<TRIPOS>MOLECULE
tmp/4dliA01.pdb
 79 75 0 0 0
SMALL
GASTEIGER

@<TRIPOS>ATOM
      1  N         17.5500  -16.8610  -16.5760 N.3   174  MET174     -0.1230
      2  CA        17.6330  -18.0020  -17.5180 C.3   174  MET174      0.1702
      3  C         18.2770  -19.1990  -16.8040 C.2   174  MET174      0.2592
      4  O         17.8480  -20.3430  -17.0050 O.2   174  MET174     -0.2718
      5  CB        18.5460  -17.7020  -18.7130 C.3   174  MET174      0.0401
      6  CG        18.4750  -16.3020  -19.3600 C.3   174  MET174      0.0596
      7  SD        17.3720  -16.3360  -20.7760 S.3   174  MET174     -0.1393
      8  CE        15.8290  -16.1440  -19.9060 C.3   174  MET174      0.0692
      9  N         19.2970  -18.9050  -15.9750 N.am  175  LEU175     -0.1966
     10  CA        20.0920  -19.9160  -15.2430 C.3   175  LEU175      0.1728
     11  C         19.4020  -20.4270  -13.9990 C.2   175  LEU175      0.2616
     12  O         19.9510  -21.2920  -13.2920 O.2   175  LEU175     -0.2715
     13  CB        21.4920  -19.3750  -14.8860 C.3   175  LEU175      0.0311
     14  CG        22.4780  -19.2450  -16.0530 C.3   175  LEU175      0.0022
     15  CD1       23.6570  -18.3370  -15.7290 C.3   175  LEU175      0.0001
     16  CD2       22.9790  -20.6250  -16.4170 C.3   175  LEU175      0.0001
     17  N         18.1910  -19.9250  -13.7480 N.am  176  ASN176     -0.1972
     18  CA        17.2990  -20.4190  -12.6910 C.3   176  ASN176      0.1688
     19  C         17.8170  -20.1120  -11.2700 C.2   176  ASN176      0.2292
     20  O         17.6300  -20.9050  -10.3190 O.2   176  ASN176     -0.2864
     21  CB        16.9820  -21.9190  -12.9140 C.3   176  ASN176      0.1181
     22  CG        15.7000  -22.4050  -12.1840 C.2   176  ASN176      0.2629
     23  OD1       14.7310  -21.6640  -12.0080 O.2   176  ASN176     -0.2716
     24  ND2       15.7120  -23.6730  -11.7750 N.am  176  ASN176     -0.0877
     25  N         16.4840  -19.8510  -24.5410 N.3   208  HIS208     -0.1226
     26  CA        17.3450  -19.4600  -23.3870 C.3   208  HIS208      0.1752
     27  C         18.8180  -19.8560  -23.4740 C.2   208  HIS208      0.2595
     28  O         19.6740  -19.1780  -22.8970 O.2   208  HIS208     -0.2718
     29  CB        16.7680  -20.0030  -22.1020 C.3   208  HIS208      0.0759
     30  CG        15.4570  -19.3770  -21.7170 C.ar  208  HIS208      0.0818
     31  ND1       14.8760  -19.5750  -20.4870 N.ar  208  HIS208     -0.2268
     32  CD2       14.6290  -18.5430  -22.3950 C.ar  208  HIS208      0.1154
     33  CE1       13.7250  -18.9280  -20.4340 C.ar  208  HIS208      0.1986
     34  NE2       13.5570  -18.2840  -21.5760 N.ar  208  HIS208     -0.2212
     35  N         19.1100  -20.9580  -24.1770 N.am  209  ILE209     -0.1980
     36  CA        20.4910  -21.4140  -24.3320 C.3   209  ILE209      0.1595
     37  C         21.1920  -20.4560  -25.2740 C.2   209  ILE209      0.2287
     38  O         22.2750  -19.9220  -24.9710 O.2   209  ILE209     -0.2864
     39  CB        20.5480  -22.8850  -24.8470 C.3   209  ILE209      0.0276
     40  CG1       19.8090  -23.7970  -23.8500 C.3   209  ILE209      0.0022
     41  CG2       22.0300  -23.3650  -25.0030 C.3   209  ILE209      0.0022
     42  CD1       19.5370  -25.2160  -24.3720 C.3   209  ILE209      0.0001
     43  N         21.7370  -17.0340  -23.5660 N.3   212  LEU212     -0.1245
     44  CA        22.8970  -16.8760  -22.6960 C.3   212  LEU212      0.1561
     45  C         24.1930  -16.7780  -23.5110 C.2   212  LEU212      0.2260
     46  O         25.1020  -16.0440  -23.1440 O.2   212  LEU212     -0.2867
     47  CB        22.9970  -18.0510  -21.7490 C.3   212  LEU212      0.0270
     48  CG        23.5180  -17.9610  -20.3210 C.3   212  LEU212      0.0019
     49  CD1       24.2740  -19.2280  -20.0090 C.3   212  LEU212      0.0001
     50  CD2       24.2900  -16.7370  -19.8950 C.3   212  LEU212      0.0001
     51  N         25.0010  -23.5490   -7.3120 N.3   232  SER232     -0.1217
     52  CA        24.7100  -24.7750   -8.0470 C.3   232  SER232      0.1889
     53  C         25.9600  -25.3190   -8.7140 C.2   232  SER232      0.2288
     54  O         26.5910  -24.6470   -9.5380 O.2   232  SER232     -0.2866
     55  CB        23.5590  -24.6090   -9.0610 C.3   232  SER232      0.2089
     56  OG        23.6640  -25.5710  -10.1100 O.3   232  SER232     -0.2183
     57  N         26.2100  -27.8480  -10.8270 N.3   234  SER234     -0.1202
     58  CA        26.0080  -28.0680  -12.2620 C.3   234  SER234      0.2020
     59  C         26.1120  -26.7620  -13.0510 C.2   234  SER234      0.2618
     60  O         26.7650  -26.6960  -14.0970 O.2   234  SER234     -0.2717
     61  CB        24.6610  -28.7220  -12.4930 C.3   234  SER234      0.2103
     62  OG        23.6740  -27.9850  -11.7870 O.3   234  SER234     -0.2182
     63  N         25.4750  -25.7070  -12.5470 N.am  235  ALA235     -0.1979
     64  CA        25.4930  -24.4480  -13.2530 C.3   235  ALA235      0.1597
     65  C         26.8970  -23.8180  -13.2660 C.2   235  ALA235      0.2287
     66  O         27.3070  -23.2340  -14.2560 O.2   235  ALA235     -0.2864
     67  CB        24.4600  -23.4650  -12.6350 C.3   235  ALA235      0.0319
     68  N         28.9740  -25.7910  -15.7110 N.3   238  TYR238     -0.1241
     69  CA        28.5600  -25.3960  -17.0400 C.3   238  TYR238      0.1605
     70  C         29.1580  -24.0530  -17.4690 C.2   238  TYR238      0.2264
     71  O         29.7770  -23.9380  -18.5290 O.2   238  TYR238     -0.2867
     72  CB        27.0340  -25.3000  -17.0910 C.3   238  TYR238      0.0534
     73  CG        26.5540  -24.6450  -18.3460 C.ar  238  TYR238     -0.0201
     74  CD1       26.6840  -25.3010  -19.5710 C.ar  238  TYR238     -0.0009
     75  CD2       25.9780  -23.3690  -18.3250 C.ar  238  TYR238     -0.0009
     76  CE1       26.2630  -24.7100  -20.7510 C.ar  238  TYR238      0.0417
     77  CE2       25.5570  -22.7620  -19.5100 C.ar  238  TYR238      0.0417
     78  CZ        25.7010  -23.4420  -20.7110 C.ar  238  TYR238      0.1957
     79  OH        25.2920  -22.8880  -21.8990 O.3   238  TYR238     -0.2866
@<TRIPOS>BOND
     1    37    38    2
     2    37    36    1
     3    41    39    1
     4    39    36    1
     5    39    40    1
     6    25    26    1
     7    42    40    1
     8    36    35    1
     9    35    27   am
    10    43    44    1
    11    45    46    2
    12    45    44    1
    13    27    26    1
    14    27    28    2
    15    26    29    1
    16    44    47    1
    17    32    30   ar
    18    32    34   ar
    19    29    30    1
    20    79    78    1
    21    47    48    1
    22    30    31   ar
    23    34    33   ar
    24     7     8    1
    25     7     6    1
    26    76    78   ar
    27    76    74   ar
    28    78    77   ar
    29    31    33   ar
    30    48    49    1
    31    48    50    1
    32    74    73   ar
    33    77    75   ar
    34     6     5    1
    35     5     2    1
    36    71    70    2
    37    73    75   ar
    38    73    72    1
    39     2     3    1
    40     2     1    1
    41    70    69    1
    42    72    69    1
    43    69    68    1
    44     4     3    2
    45     3     9   am
    46    16    14    1
    47    14    15    1
    48    14    13    1
    49     9    10    1
    50    10    13    1
    51    10    11    1
    52    66    65    2
    53    60    59    2
    54    11    17   am
    55    11    12    2
    56    17    18    1
    57    65    64    1
    58    64    67    1
    59    64    63    1
    60    59    63   am
    61    59    58    1
    62    21    18    1
    63    21    22    1
    64    18    19    1
    65    61    58    1
    66    61    62    1
    67    58    57    1
    68    22    23    2
    69    22    24   am
    70    19    20    2
    71    56    55    1
    72    54    53    2
    73    55    52    1
    74    53    52    1
    75    52    51    1
