@<TRIPOS>MOLECULE
tmp/4dliA00.pdb
 141 136 0 0 0
SMALL
GASTEIGER

@<TRIPOS>ATOM
      1  N         20.7200  -12.7590  -17.2430 N.3   171  PRO171     -0.2102
      2  CA        21.2830  -14.0970  -17.3880 C.3   171  PRO171      0.1504
      3  C         20.9860  -14.9970  -16.1370 C.2   171  PRO171      0.2575
      4  O         20.6990  -16.1770  -16.2910 O.2   171  PRO171     -0.2718
      5  CB        22.7750  -13.8340  -17.6020 C.3   171  PRO171      0.0282
      6  CG        23.0230  -12.4360  -17.0740 C.3   171  PRO171      0.0208
      7  CD        21.7420  -11.6920  -17.3510 C.3   171  PRO171      0.0893
      8  N         20.9650  -14.4110  -14.9430 N.am  172  GLU172     -0.1980
      9  CA        20.6490  -15.1730  -13.7150 C.3   172  GLU172      0.1602
     10  C         19.2320  -15.7870  -13.6750 C.2   172  GLU172      0.2287
     11  O         19.0260  -16.8160  -13.0310 O.2   172  GLU172     -0.2864
     12  CB        20.9400  -14.3640  -12.4480 C.3   172  GLU172      0.0415
     13  CG        20.1180  -13.1260  -12.2140 C.3   172  GLU172      0.1163
     14  CD        20.7510  -11.8520  -12.8750 C.2   172  GLU172      0.3649
     15  OE1       20.4510  -10.7680  -12.4100 O.co2 172  GLU172     -0.2457
     16  OE2       21.5840  -11.9600  -13.8030 O.co2 172  GLU172     -0.2457
     17  N         19.2970  -18.9050  -15.9750 N.3   175  LEU175     -0.1231
     18  CA        20.0920  -19.9160  -15.2430 C.3   175  LEU175      0.1693
     19  C         19.4020  -20.4270  -13.9990 C.2   175  LEU175      0.2592
     20  O         19.9510  -21.2920  -13.2920 O.2   175  LEU175     -0.2718
     21  CB        21.4920  -19.3750  -14.8860 C.3   175  LEU175      0.0284
     22  CG        22.4780  -19.2450  -16.0530 C.3   175  LEU175      0.0019
     23  CD1       23.6570  -18.3370  -15.7290 C.3   175  LEU175      0.0001
     24  CD2       22.9790  -20.6250  -16.4170 C.3   175  LEU175      0.0001
     25  N         18.1910  -19.9250  -13.7480 N.am  176  ASN176     -0.1960
     26  CA        17.2990  -20.4190  -12.6910 C.3   176  ASN176      0.1819
     27  C         17.8170  -20.1120  -11.2700 C.2   176  ASN176      0.2621
     28  O         17.6300  -20.9050  -10.3190 O.2   176  ASN176     -0.2715
     29  CB        16.9820  -21.9190  -12.9140 C.3   176  ASN176      0.1195
     30  CG        15.7000  -22.4050  -12.1840 C.2   176  ASN176      0.2630
     31  OD1       14.7310  -21.6640  -12.0080 O.2   176  ASN176     -0.2716
     32  ND2       15.7120  -23.6730  -11.7750 N.am  176  ASN176     -0.0877
     33  N         18.4770  -18.9560  -11.1120 N.am  177  TRP177     -0.1974
     34  CA        18.9060  -18.5300   -9.7740 C.3   177  TRP177      0.1640
     35  C         17.6940  -18.0900   -8.9730 C.2   177  TRP177      0.2290
     36  O         16.9930  -17.1620   -9.3730 O.2   177  TRP177     -0.2864
     37  CB        19.9160  -17.4090   -9.8300 C.3   177  TRP177      0.0576
     38  CG        20.4810  -17.0440   -8.4650 C.ar  177  TRP177      0.0006
     39  CD1       20.6870  -17.8870   -7.3950 C.ar  177  TRP177      0.0946
     40  CD2       20.9180  -15.7570   -8.0440 C.ar  177  TRP177      0.0152
     41  NE1       21.2240  -17.1900   -6.3460 N.ar  177  TRP177     -0.2442
     42  CE2       21.3790  -15.8800   -6.7150 C.ar  177  TRP177      0.0810
     43  CE3       20.9880  -14.4980   -8.6720 C.ar  177  TRP177      0.0012
     44  CZ2       21.8620  -14.7820   -5.9730 C.ar  177  TRP177      0.0191
     45  CZ3       21.5030  -13.4060   -7.9330 C.ar  177  TRP177      0.0001
     46  CH2       21.9300  -13.5570   -6.6190 C.ar  177  TRP177      0.0015
     47  N         21.7370  -17.0340  -23.5660 N.3   212  LEU212     -0.1245
     48  CA        22.8970  -16.8760  -22.6960 C.3   212  LEU212      0.1561
     49  C         24.1930  -16.7780  -23.5110 C.2   212  LEU212      0.2260
     50  O         25.1020  -16.0440  -23.1440 O.2   212  LEU212     -0.2867
     51  CB        22.9970  -18.0510  -21.7490 C.3   212  LEU212      0.0270
     52  CG        23.5180  -17.9610  -20.3210 C.3   212  LEU212      0.0019
     53  CD1       24.2740  -19.2280  -20.0090 C.3   212  LEU212      0.0001
     54  CD2       24.2900  -16.7370  -19.8950 C.3   212  LEU212      0.0001
     55  N         32.0670  -15.6170  -16.8490 N.3   222  PRO222     -0.2116
     56  CA        32.1870  -15.2430  -15.4380 C.3   222  PRO222      0.1372
     57  C         33.6340  -15.2540  -14.9500 C.2   222  PRO222      0.2244
     58  O         34.3830  -16.1680  -15.2990 O.2   222  PRO222     -0.2868
     59  CB        31.4020  -16.3500  -14.7290 C.3   222  PRO222      0.0268
     60  CG        30.3440  -16.7150  -15.7080 C.3   222  PRO222      0.0207
     61  CD        31.0620  -16.6870  -17.0370 C.3   222  PRO222      0.0892
     62  N         32.7390  -13.9730   -9.4690 N.3   226  LEU226     -0.1245
     63  CA        31.3510  -14.4060   -9.6920 C.3   226  LEU226      0.1561
     64  C         31.1820  -15.9230   -9.4820 C.2   226  LEU226      0.2260
     65  O         30.2290  -16.3540   -8.8540 O.2   226  LEU226     -0.2867
     66  CB        30.8770  -14.0020  -11.0760 C.3   226  LEU226      0.0270
     67  CG        29.5130  -14.5480  -11.4890 C.3   226  LEU226      0.0019
     68  CD1       28.4410  -14.0400  -10.5180 C.3   226  LEU226      0.0001
     69  CD2       29.2120  -14.0710  -12.8850 C.3   226  LEU226      0.0001
     70  N         30.4610  -17.4330   -6.0700 N.3   229  LYS229     -0.1231
     71  CA        29.1740  -17.0790   -5.4530 C.3   229  LYS229      0.1693
     72  C         28.0040  -17.9580   -5.9770 C.2   229  LYS229      0.2592
     73  O         26.8530  -17.8040   -5.5290 O.2   229  LYS229     -0.2718
     74  CB        28.8640  -15.5800   -5.6800 C.3   229  LYS229      0.0285
     75  CG        29.9370  -14.6490   -5.0780 C.3   229  LYS229      0.0035
     76  CD        29.4610  -13.1750   -4.9940 C.3   229  LYS229      0.0206
     77  CE        29.3410  -12.5420   -6.3740 C.3   229  LYS229      0.1093
     78  NZ        29.3310  -11.0460   -6.2280 N.3   229  LYS229     -0.1314
     79  N         28.2970  -18.8400   -6.9300 N.am  230  ILE230     -0.1966
     80  CA        27.2640  -19.6690   -7.5670 C.3   230  ILE230      0.1727
     81  C         27.0870  -20.9720   -6.7940 C.2   230  ILE230      0.2617
     82  O         27.9940  -21.8040   -6.7580 O.2   230  ILE230     -0.2715
     83  CB        27.6070  -19.9620   -9.0180 C.3   230  ILE230      0.0290
     84  CG1       27.6710  -18.6370   -9.8140 C.3   230  ILE230      0.0022
     85  CG2       26.5690  -20.9390   -9.6270 C.3   230  ILE230      0.0023
     86  CD1       27.9910  -18.8040  -11.2830 C.3   230  ILE230      0.0001
     87  N         25.9230  -21.1050   -6.1600 N.am  231  SER231     -0.1936
     88  CA        25.6180  -22.2520   -5.2890 C.3   231  SER231      0.2055
     89  C         25.3660  -23.5810   -6.0260 C.2   231  SER231      0.2643
     90  O         25.4840  -24.6460   -5.4050 O.2   231  SER231     -0.2714
     91  CB        24.4100  -21.8980   -4.4170 C.3   231  SER231      0.2130
     92  OG        23.2630  -21.7860   -5.2310 O.3   231  SER231     -0.2179
     93  N         25.0010  -23.5490   -7.3120 N.am  232  SER232     -0.1949
     94  CA        24.7100  -24.7750   -8.0470 C.3   232  SER232      0.1924
     95  C         25.9600  -25.3190   -8.7140 C.2   232  SER232      0.2314
     96  O         26.5910  -24.6470   -9.5380 O.2   232  SER232     -0.2863
     97  CB        23.5590  -24.6090   -9.0610 C.3   232  SER232      0.2116
     98  OG        23.6640  -25.5710  -10.1100 O.3   232  SER232     -0.2180
     99  N         25.4750  -25.7070  -12.5470 N.3   235  ALA235     -0.1245
    100  CA        25.4930  -24.4480  -13.2530 C.3   235  ALA235      0.1562
    101  C         26.8970  -23.8180  -13.2660 C.2   235  ALA235      0.2260
    102  O         27.3070  -23.2340  -14.2560 O.2   235  ALA235     -0.2867
    103  CB        24.4600  -23.4650  -12.6350 C.3   235  ALA235      0.0290
    104  N         28.9220  -23.0390  -16.6440 N.3   239  ILE239     -0.1245
    105  CA        29.5060  -21.7290  -16.8040 C.3   239  ILE239      0.1561
    106  C         31.0370  -21.7790  -16.9700 C.2   239  ILE239      0.2260
    107  O         31.5780  -21.1750  -17.8950 O.2   239  ILE239     -0.2867
    108  CB        29.1150  -20.8290  -15.5960 C.3   239  ILE239      0.0252
    109  CG1       27.8520  -20.0560  -15.9280 C.3   239  ILE239      0.0019
    110  CG2       30.2640  -19.9190  -15.1950 C.3   239  ILE239      0.0019
    111  CD1       27.9480  -19.2580  -17.2420 C.3   239  ILE239      0.0001
    112  N         27.5950   -8.7240  -15.8850 N.3   271  LEU271     -0.1231
    113  CA        27.1350  -10.0960  -15.7440 C.3   271  LEU271      0.1693
    114  C         26.7510  -10.4140  -14.3080 C.2   271  LEU271      0.2592
    115  O         25.6960  -11.0120  -14.0810 O.2   271  LEU271     -0.2718
    116  CB        28.2020  -11.0560  -16.2190 C.3   271  LEU271      0.0284
    117  CG        27.7960  -12.5220  -16.2130 C.3   271  LEU271      0.0019
    118  CD1       26.5330  -12.7290  -17.0520 C.3   271  LEU271      0.0001
    119  CD2       28.9710  -13.3620  -16.7660 C.3   271  LEU271      0.0001
    120  N         27.6090   -9.9980  -13.3620 N.am  272  ASP272     -0.1960
    121  CA        27.4080  -10.2470  -11.9220 C.3   272  ASP272      0.1840
    122  C         26.4120   -9.2450  -11.3430 C.2   272  ASP272      0.2623
    123  O         26.7010   -8.0390  -11.1360 O.2   272  ASP272     -0.2715
    124  CB        28.7490  -10.1490  -11.1820 C.3   272  ASP272      0.1450
    125  CG        28.6340  -10.4270   -9.6870 C.2   272  ASP272      0.3671
    126  OD1       27.5250  -10.5130   -9.1410 O.co2 272  ASP272     -0.2456
    127  OD2       29.6850  -10.5830   -9.0370 O.co2 272  ASP272     -0.2456
    128  N         25.2310   -9.7480  -11.0050 N.am  273  SER273     -0.1936
    129  CA        24.1920   -8.8220  -10.5820 C.3   273  SER273      0.2055
    130  C         24.4910   -8.0380   -9.2980 C.2   273  SER273      0.2643
    131  O         23.9360   -6.9560   -9.1070 O.2   273  SER273     -0.2714
    132  CB        22.8550   -9.5320  -10.5680 C.3   273  SER273      0.2130
    133  OG        22.5380  -10.0440   -9.3140 O.3   273  SER273     -0.2179
    134  N         25.3890   -8.5580   -8.4410 N.am  274  ASP274     -0.1971
    135  CA        25.8310   -7.8380   -7.2300 C.3   274  ASP274      0.1709
    136  C         26.6350   -6.5540   -7.5580 C.2   274  ASP274      0.2293
    137  O         26.8280   -5.7040   -6.6970 O.2   274  ASP274     -0.2864
    138  CB        26.7430   -8.7230   -6.3430 C.3   274  ASP274      0.1436
    139  CG        26.0190   -9.9010   -5.7260 C.2   274  ASP274      0.3671
    140  OD1       26.6960  -10.9090   -5.4550 O.co2 274  ASP274     -0.2456
    141  OD2       24.7890   -9.8430   -5.5160 O.co2 274  ASP274     -0.2456
@<TRIPOS>BOND
     1    47    48    1
     2    49    50    2
     3    49    48    1
     4    48    51    1
     5    51    52    1
     6    52    53    1
     7    52    54    1
     8   107   106    2
     9     5     2    1
    10     5     6    1
    11     2     1    1
    12     2     3    1
    13     7     1    1
    14     7     6    1
    15   111   109    1
    16   118   117    1
    17    61    55    1
    18    61    60    1
    19   106   105    1
    20    55    56    1
    21   105   104    1
    22   105   108    1
    23   119   117    1
    24    24    22    1
    25     4     3    2
    26   116   117    1
    27   116   113    1
    28     3     8   am
    29    22    23    1
    30    22    21    1
    31    17    18    1
    32   109   108    1
    33   112   113    1
    34   113   114    1
    35    60    59    1
    36   108   110    1
    37    56    57    1
    38    56    59    1
    39    58    57    2
    40    18    21    1
    41    18    19    1
    42     8     9    1
    43   114   115    2
    44   114   120   am
    45   102   101    2
    46    19    25   am
    47    19    20    2
    48    16    14   ar
    49    25    26    1
    50     9    10    1
    51     9    12    1
    52    10    11    2
    53   120   121    1
    54   101   100    1
    55   100   103    1
    56   100    99    1
    57    29    26    1
    58    29    30    1
    59    69    67    1
    60    14    15   ar
    61    14    13    1
    62    26    27    1
    63    12    13    1
    64    30    31    2
    65    30    32   am
    66   121   122    1
    67   121   124    1
    68    67    66    1
    69    67    68    1
    70   122   123    2
    71   122   128   am
    72    86    84    1
    73    27    33   am
    74    27    28    2
    75   124   125    1
    76    33    34    1
    77    66    63    1
    78   128   129    1
    79   129   132    1
    80   129   130    1
    81   132   133    1
    82    98    97    1
    83    37    34    1
    84    37    38    1
    85    84    83    1
    86    34    35    1
    87    63    64    1
    88    63    62    1
    89   125   126   ar
    90   125   127   ar
    91    85    83    1
    92    96    95    2
    93    64    65    2
    94    36    35    2
    95   130   131    2
    96   130   134   am
    97    97    94    1
    98    83    80    1
    99    95    94    1
   100    43    40   ar
   101    43    45   ar
   102    38    40   ar
   103    38    39   ar
   104   134   135    1
   105    94    93    1
   106    40    42   ar
   107    45    46   ar
   108    80    79    1
   109    80    81    1
   110   136   135    1
   111   136   137    2
   112    39    41   ar
   113    93    89   am
   114   135   138    1
   115    79    72   am
   116    81    82    2
   117    81    87   am
   118    42    41   ar
   119    42    44   ar
   120    46    44   ar
   121    77    78    1
   122    77    76    1
   123   138   139    1
   124    87    88    1
   125    70    71    1
   126    89    90    2
   127    89    88    1
   128    72    73    2
   129    72    71    1
   130   139   141   ar
   131   139   140   ar
   132    74    71    1
   133    74    75    1
   134    88    91    1
   135    92    91    1
   136    75    76    1
