@<TRIPOS>MOLECULE
tmp/4dljA01.pdb
 152 141 0 0 0
SMALL
GASTEIGER

@<TRIPOS>ATOM
      1  N         -9.8930   -2.9420  -28.1740 N.3    27  VAL27      -0.1231
      2  CA        -8.5470   -2.6120  -28.6440 C.3    27  VAL27       0.1692
      3  C         -7.5270   -3.7330  -28.4350 C.2    27  VAL27       0.2592
      4  O         -6.3600   -3.5730  -28.7900 O.2    27  VAL27      -0.2718
      5  CB        -7.9910   -1.3240  -27.9840 C.3    27  VAL27       0.0266
      6  CG1       -8.6770   -0.0800  -28.5420 C.3    27  VAL27       0.0020
      7  CG2       -8.1130   -1.4120  -26.4710 C.3    27  VAL27       0.0020
      8  N         -7.9610   -4.8550  -27.8580 N.am   28  GLY28      -0.1957
      9  CA        -7.0810   -6.0110  -27.6310 C.3    28  GLY28       0.1869
     10  C         -7.6470   -7.0550  -26.6740 C.2    28  GLY28       0.2309
     11  O         -8.6630   -6.8200  -26.0020 O.2    28  GLY28      -0.2863
     12  N         -9.6160   -5.5930  -23.1710 N.3    35  VAL35      -0.1245
     13  CA        -9.5430   -4.1740  -22.8720 C.3    35  VAL35       0.1561
     14  C        -10.3690   -3.4120  -23.9100 C.2    35  VAL35       0.2260
     15  O        -10.3230   -3.7360  -25.0820 O.2    35  VAL35      -0.2867
     16  CB        -8.0590   -3.6560  -22.9400 C.3    35  VAL35       0.0252
     17  CG1       -7.9230   -2.3280  -22.2550 C.3    35  VAL35       0.0019
     18  CG2       -7.0740   -4.6410  -22.3370 C.3    35  VAL35       0.0019
     19  N         -8.6310    3.1810  -20.6750 N.3    48  ALA48      -0.1245
     20  CA        -8.7450    1.7910  -20.9850 C.3    48  ALA48       0.1562
     21  C         -9.4550    1.0790  -19.8560 C.2    48  ALA48       0.2260
     22  O         -9.0820    1.1940  -18.6930 O.2    48  ALA48      -0.2867
     23  CB        -7.3950    1.1870  -21.2540 C.3    48  ALA48       0.0290
     24  N        -10.2260   -2.6430  -18.5190 N.3    50  LYS50      -0.1245
     25  CA        -9.8220   -4.0460  -18.6850 C.3    50  LYS50       0.1561
     26  C        -10.8110   -4.9200  -17.9440 C.2    50  LYS50       0.2260
     27  O        -11.1660   -4.6470  -16.7560 O.2    50  LYS50      -0.2867
     28  CB        -8.4370   -4.2990  -18.1160 C.3    50  LYS50       0.0271
     29  CG        -8.0200   -5.7160  -18.2010 C.3    50  LYS50       0.0035
     30  CD        -6.6290   -5.8830  -17.6880 C.3    50  LYS50       0.0206
     31  CE        -5.9790   -7.1000  -18.2610 C.3    50  LYS50       0.1093
     32  NZ        -5.0480   -7.7820  -17.2770 N.3    50  LYS50      -0.1314
     33  N         -1.6400   -2.6780   -8.8270 N.3    72  LEU72      -0.1245
     34  CA        -2.0960   -1.4940   -9.5270 C.3    72  LEU72       0.1561
     35  C         -2.5440   -0.4400   -8.5290 C.2    72  LEU72       0.2260
     36  O         -2.3220    0.7360   -8.7380 O.2    72  LEU72      -0.2867
     37  CB        -3.1730   -1.8600  -10.5230 C.3    72  LEU72       0.0270
     38  CG        -2.6620   -2.7300  -11.6690 C.3    72  LEU72       0.0019
     39  CD1       -3.8440   -3.3180  -12.4790 C.3    72  LEU72       0.0001
     40  CD2       -1.8210   -1.8450  -12.5500 C.3    72  LEU72       0.0001
     41  N          2.2000    2.7310  -14.6330 N.3    81  ILE81      -0.1245
     42  CA         0.7560    2.6840  -14.8420 C.3    81  ILE81       0.1561
     43  C          0.0230    2.6690  -13.5160 C.2    81  ILE81       0.2260
     44  O          0.4230    1.9850  -12.5830 O.2    81  ILE81      -0.2867
     45  CB         0.3220    1.4490  -15.7140 C.3    81  ILE81       0.0252
     46  CG1       -1.1260    1.6190  -16.2050 C.3    81  ILE81       0.0019
     47  CG2        0.5460    0.1030  -14.9580 C.3    81  ILE81       0.0019
     48  CD1       -1.6600    0.3970  -16.9780 C.3    81  ILE81       0.0001
     49  N         -4.1050    3.3740  -11.4410 N.3    83  LEU83      -0.1245
     50  CA        -5.4490    2.9210  -11.5060 C.3    83  LEU83       0.1561
     51  C         -6.3750    4.0880  -11.2720 C.2    83  LEU83       0.2260
     52  O         -6.3600    4.6620  -10.2000 O.2    83  LEU83      -0.2867
     53  CB        -5.6140    1.9090  -10.4030 C.3    83  LEU83       0.0270
     54  CG        -6.6150    0.8040  -10.6240 C.3    83  LEU83       0.0019
     55  CD1       -6.4320    0.1860  -12.0610 C.3    83  LEU83       0.0001
     56  CD2       -6.4390   -0.1770   -9.4410 C.3    83  LEU83       0.0001
     57  N        -10.7550   -3.0770  -14.4400 N.3   101  LEU101     -0.1231
     58  CA        -9.7230   -2.1310  -14.0440 C.3   101  LEU101      0.1693
     59  C         -9.7440   -1.0050  -15.0440 C.2   101  LEU101      0.2592
     60  O         -9.8670   -1.2650  -16.2500 O.2   101  LEU101     -0.2718
     61  CB        -8.3620   -2.8150  -14.0260 C.3   101  LEU101      0.0284
     62  CG        -8.2630   -4.0560  -13.1050 C.3   101  LEU101      0.0019
     63  CD1       -6.9030   -4.7690  -13.1750 C.3   101  LEU101      0.0001
     64  CD2       -8.5820   -3.7150  -11.6580 C.3   101  LEU101      0.0001
     65  N         -9.6830    0.2380  -14.5730 N.am  102  VAL102     -0.1966
     66  CA        -9.6260    1.4030  -15.4920 C.3   102  VAL102      0.1727
     67  C         -8.3170    2.1820  -15.3870 C.2   102  VAL102      0.2617
     68  O         -7.8300    2.4390  -14.2850 O.2   102  VAL102     -0.2715
     69  CB       -10.8230    2.3610  -15.2740 C.3   102  VAL102      0.0290
     70  CG1      -10.8240    3.4640  -16.2850 C.3   102  VAL102      0.0023
     71  CG2      -12.1140    1.5850  -15.3730 C.3   102  VAL102      0.0023
     72  N         -7.7650    2.5750  -16.5260 N.am  103  THR103     -0.1937
     73  CA        -6.4770    3.2600  -16.5270 C.3   103  THR103      0.2028
     74  C         -6.3870    4.2290  -17.6840 C.2   103  THR103      0.2642
     75  O         -7.1340    4.0960  -18.6290 O.2   103  THR103     -0.2714
     76  CB        -5.2810    2.2620  -16.5890 C.3   103  THR103      0.1808
     77  OG1       -4.0680    2.9720  -16.3050 O.3   103  THR103     -0.2208
     78  CG2       -5.1740    1.6730  -17.9560 C.3   103  THR103      0.0379
     79  N         -5.4900    5.2100  -17.6030 N.am  104  HIS104     -0.1959
     80  CA        -5.3150    6.1610  -18.7080 C.3   104  HIS104      0.1787
     81  C         -5.0510    5.3780  -19.9820 C.2   104  HIS104      0.2620
     82  O         -4.3800    4.3480  -19.9490 O.2   104  HIS104     -0.2715
     83  CB        -4.1070    7.0660  -18.4970 C.3   104  HIS104      0.0785
     84  CG        -4.3060    8.1410  -17.4830 C.ar  104  HIS104      0.0821
     85  ND1       -3.8280    8.0410  -16.1880 N.ar  104  HIS104     -0.2267
     86  CD2       -4.8800    9.3620  -17.5820 C.ar  104  HIS104      0.1154
     87  CE1       -4.1140    9.1510  -15.5300 C.ar  104  HIS104      0.1986
     88  NE2       -4.7620    9.9660  -16.3500 N.ar  104  HIS104     -0.2212
     89  N         -5.5680    5.8660  -21.0990 N.am  105  LEU105     -0.1963
     90  CA        -5.2870    5.2250  -22.3770 C.3   105  LEU105      0.1728
     91  C         -3.9210    5.6950  -22.8200 C.2   105  LEU105      0.2616
     92  O         -3.5580    6.8300  -22.5770 O.2   105  LEU105     -0.2715
     93  CB        -6.3370    5.6020  -23.3930 C.3   105  LEU105      0.0311
     94  CG        -6.2690    5.0520  -24.8060 C.3   105  LEU105      0.0022
     95  CD1       -6.6830    3.6120  -24.8680 C.3   105  LEU105      0.0001
     96  CD2       -7.1980    5.9130  -25.6720 C.3   105  LEU105      0.0001
     97  N         -3.1390    4.8140  -23.4200 N.am  106  MET106     -0.1977
     98  CA        -1.8200    5.2160  -23.8700 C.3   106  MET106      0.1605
     99  C         -1.7230    5.0550  -25.3830 C.2   106  MET106      0.2287
    100  O         -2.3570    4.1510  -25.9590 O.2   106  MET106     -0.2864
    101  CB        -0.6970    4.4600  -23.1430 C.3   106  MET106      0.0413
    102  CG        -0.4820    4.8100  -21.6390 C.3   106  MET106      0.0598
    103  SD         0.0230    6.5080  -21.3080 S.3   106  MET106     -0.1393
    104  CE         1.6620    6.6200  -22.0310 C.3   106  MET106      0.0692
    105  N          0.6360    4.3540  -27.6350 N.3   108  ALA108     -0.1231
    106  CA         1.3050    3.2370  -28.2930 C.3   108  ALA108      0.1694
    107  C          2.3090    2.5940  -27.3220 C.2   108  ALA108      0.2592
    108  O          2.6760    3.2050  -26.3230 O.2   108  ALA108     -0.2718
    109  CB         2.0350    3.7490  -29.5430 C.3   108  ALA108      0.0304
    110  N          2.7650    1.3820  -27.6040 N.am  109  ASP109     -0.1974
    111  CA         3.9090    0.8670  -26.8580 C.3   109  ASP109      0.1709
    112  C          5.2490    1.1360  -27.5700 C.2   109  ASP109      0.2293
    113  O          5.2800    1.6860  -28.6580 O.2   109  ASP109     -0.2864
    114  CB         3.7230   -0.5990  -26.4220 C.3   109  ASP109      0.1436
    115  CG         3.8870   -1.5890  -27.5590 C.2   109  ASP109      0.3671
    116  OD1        2.9940   -2.4490  -27.7030 O.co2 109  ASP109     -0.2456
    117  OD2        4.9020   -1.5360  -28.2900 O.co2 109  ASP109     -0.2456
    118  N          7.2500   -4.0190  -25.3750 N.3   150  SER150     -0.1202
    119  CA         5.7860   -4.1590  -25.3960 C.3   150  SER150      0.2020
    120  C          5.1140   -3.8860  -24.0600 C.2   150  SER150      0.2618
    121  O          3.9000   -3.7700  -23.9930 O.2   150  SER150     -0.2717
    122  CB         5.3660   -5.5250  -25.9610 C.3   150  SER150      0.2103
    123  OG         5.8550   -6.5610  -25.1510 O.3   150  SER150     -0.2182
    124  N          5.9020   -3.7840  -23.0010 N.am  151  ASN151     -0.1974
    125  CA         5.4080   -3.4830  -21.6690 C.3   151  ASN151      0.1688
    126  C          5.7520   -2.0580  -21.2730 C.2   151  ASN151      0.2292
    127  O          5.7700   -1.7320  -20.0710 O.2   151  ASN151     -0.2864
    128  CB         6.0240   -4.4330  -20.6400 C.3   151  ASN151      0.1181
    129  CG         5.3760   -5.8090  -20.6360 C.2   151  ASN151      0.2629
    130  OD1        5.9850   -6.7800  -20.2070 O.2   151  ASN151     -0.2716
    131  ND2        4.1410   -5.9010  -21.1220 N.am  151  ASN151     -0.0877
    132  N          4.6990    1.9590  -22.2520 N.3   153  ALA153     -0.1245
    133  CA         3.7700    2.7290  -23.0770 C.3   153  ALA153      0.1562
    134  C          4.3330    4.1060  -23.2990 C.2   153  ALA153      0.2260
    135  O          4.8980    4.6970  -22.3900 O.2   153  ALA153     -0.2867
    136  CB         2.3890    2.7930  -22.4480 C.3   153  ALA153      0.0290
    137  N          4.1540   -0.5480  -17.8060 N.3   163  LEU163     -0.1231
    138  CA         2.8820   -1.2150  -17.7140 C.3   163  LEU163      0.1693
    139  C          3.0500   -2.5440  -16.9590 C.2   163  LEU163      0.2592
    140  O          4.1720   -3.0370  -16.7510 O.2   163  LEU163     -0.2718
    141  CB         2.3540   -1.5010  -19.1340 C.3   163  LEU163      0.0284
    142  CG         2.2620   -0.3570  -20.1330 C.3   163  LEU163      0.0019
    143  CD1        2.0130   -0.9000  -21.5410 C.3   163  LEU163      0.0001
    144  CD2        1.1840    0.6750  -19.7540 C.3   163  LEU163      0.0001
    145  N          1.9270   -3.1350  -16.5700 N.am  164  ASP164     -0.1974
    146  CA         1.9160   -4.5330  -16.1970 C.3   164  ASP164      0.1709
    147  C          2.0950   -5.3290  -17.5070 C.2   164  ASP164      0.2293
    148  O          2.4510   -6.5110  -17.4860 O.2   164  ASP164     -0.2864
    149  CB         0.5970   -4.8780  -15.4720 C.3   164  ASP164      0.1436
    150  CG        -0.6860   -4.6070  -16.3590 C.2   164  ASP164      0.3671
    151  OD1       -0.6540   -3.6570  -17.1870 O.co2 164  ASP164     -0.2456
    152  OD2       -1.7160   -5.3390  -16.2010 O.co2 164  ASP164     -0.2456
@<TRIPOS>BOND
     1   109   106    1
     2     4     3    2
     3   113   112    2
     4     2     3    1
     5     2     1    1
     6     2     5    1
     7     6     5    1
     8     3     8   am
     9   106   105    1
    10   106   107    1
    11   117   115   ar
    12     5     7    1
    13     8     9    1
    14   116   115   ar
    15     9    10    1
    16   110   107   am
    17   110   111    1
    18   112   111    1
    19   115   114    1
    20   107   108    2
    21   111   114    1
    22    10    11    2
    23   122   119    1
    24   122   123    1
    25   100    99    2
    26    96    94    1
    27   119   118    1
    28   119   120    1
    29    99    98    1
    30    15    14    2
    31    95    94    1
    32    94    93    1
    33   120   121    2
    34   120   124   am
    35    14    13    1
    36    98    97    1
    37    98   101    1
    38    97    91   am
    39    93    90    1
    40   134   133    1
    41   134   135    2
    42    12    13    1
    43   101   102    1
    44   133   136    1
    45   133   132    1
    46   124   125    1
    47    16    13    1
    48    16    18    1
    49    16    17    1
    50    91    92    2
    51    91    90    1
    52    90    89    1
    53   104   103    1
    54   125   126    1
    55   125   128    1
    56   102   103    1
    57   143   142    1
    58   126   127    2
    59    23    20    1
    60   131   129   am
    61    89    81   am
    62    20    19    1
    63    20    21    1
    64   128   129    1
    65   129   130    2
    66   142   144    1
    67   142   141    1
    68    81    82    2
    69    81    80    1
    70    21    22    2
    71   141   138    1
    72    80    83    1
    73    80    79    1
    74    25    24    1
    75    25    28    1
    76    25    26    1
    77    75    74    2
    78    83    84    1
    79    31    30    1
    80    31    32    1
    81    29    28    1
    82    29    30    1
    83    78    76    1
    84    26    27    2
    85   137   138    1
    86   138   139    1
    87    74    79   am
    88    74    73    1
    89    86    84   ar
    90    86    88   ar
    91   147   148    2
    92   147   146    1
    93    84    85   ar
    94   151   150   ar
    95    48    46    1
    96   139   140    2
    97   139   145   am
    98    76    73    1
    99    76    77    1
   100   145   146    1
   101    73    72    1
   102    72    67   am
   103   150   152   ar
   104   150   149    1
   105    88    87   ar
   106    70    69    1
   107    60    59    2
   108    46    45    1
   109   146   149    1
   110    85    87   ar
   111    45    47    1
   112    45    42    1
   113    66    67    1
   114    66    69    1
   115    66    65    1
   116    67    68    2
   117    71    69    1
   118    59    65   am
   119    59    58    1
   120    42    41    1
   121    42    43    1
   122    57    58    1
   123    58    61    1
   124    61    62    1
   125    43    44    2
   126    63    62    1
   127    62    64    1
   128    40    38    1
   129    39    38    1
   130    55    54    1
   131    38    37    1
   132    50    49    1
   133    50    51    1
   134    50    53    1
   135    51    52    2
   136    54    53    1
   137    54    56    1
   138    37    34    1
   139    34    33    1
   140    34    35    1
   141    36    35    2
