@<TRIPOS>MOLECULE
tmp/4dljA00.pdb
 161 156 0 0 0
SMALL
GASTEIGER

@<TRIPOS>ATOM
      1  N         20.5280  -12.8870  -17.3490 N.3   173  PRO173     -0.2102
      2  CA        21.0320  -14.2670  -17.4330 C.3   173  PRO173      0.1504
      3  C         20.7370  -15.1190  -16.1910 C.2   173  PRO173      0.2575
      4  O         20.4620  -16.3080  -16.3260 O.2   173  PRO173     -0.2718
      5  CB        22.5380  -14.0980  -17.6160 C.3   173  PRO173      0.0282
      6  CG        22.8290  -12.6230  -17.4380 C.3   173  PRO173      0.0208
      7  CD        21.5580  -11.8930  -17.6960 C.3   173  PRO173      0.0893
      8  N         20.7490  -14.5240  -15.0030 N.am  174  GLU174     -0.1980
      9  CA        20.5850  -15.3070  -13.8030 C.3   174  GLU174      0.1602
     10  C         19.1670  -15.8260  -13.6750 C.2   174  GLU174      0.2287
     11  O         18.9410  -16.8250  -13.0070 O.2   174  GLU174     -0.2864
     12  CB        20.9590  -14.5080  -12.5760 C.3   174  GLU174      0.0415
     13  CG        20.1280  -13.2410  -12.3720 C.3   174  GLU174      0.1163
     14  CD        20.7630  -12.0030  -12.9530 C.2   174  GLU174      0.3649
     15  OE1       20.5400  -10.9570  -12.3790 O.co2 174  GLU174     -0.2457
     16  OE2       21.4730  -12.0660  -13.9740 O.co2 174  GLU174     -0.2457
     17  N         19.3220  -18.8260  -16.0250 N.3   177  LEU177     -0.1231
     18  CA        19.9820  -19.9320  -15.3280 C.3   177  LEU177      0.1693
     19  C         19.1790  -20.4340  -14.1390 C.2   177  LEU177      0.2592
     20  O         19.5710  -21.3900  -13.4820 O.2   177  LEU177     -0.2718
     21  CB        21.3700  -19.5240  -14.8500 C.3   177  LEU177      0.0284
     22  CG        22.5620  -19.8840  -15.7300 C.3   177  LEU177      0.0019
     23  CD1       23.8080  -19.6530  -14.9240 C.3   177  LEU177      0.0001
     24  CD2       22.5230  -21.3370  -16.2180 C.3   177  LEU177      0.0001
     25  N         18.0680  -19.7760  -13.8540 N.am  178  ASN178     -0.1960
     26  CA        17.1460  -20.2730  -12.8500 C.3   178  ASN178      0.1819
     27  C         17.5250  -19.9970  -11.3850 C.2   178  ASN178      0.2621
     28  O         16.9930  -20.6130  -10.4430 O.2   178  ASN178     -0.2715
     29  CB        16.8870  -21.7630  -13.0990 C.3   178  ASN178      0.1195
     30  CG        15.6750  -22.2430  -12.3960 C.2   178  ASN178      0.2630
     31  OD1       14.7320  -21.4780  -12.1710 O.2   178  ASN178     -0.2716
     32  ND2       15.6840  -23.5130  -11.9990 N.am  178  ASN178     -0.0877
     33  N         18.4190  -19.0460  -11.1780 N.am  179  TRP179     -0.1974
     34  CA        18.6980  -18.5940   -9.8440 C.3   179  TRP179      0.1640
     35  C         17.4400  -18.1650   -9.1080 C.2   179  TRP179      0.2290
     36  O         16.6370  -17.4210   -9.6410 O.2   179  TRP179     -0.2864
     37  CB        19.6760  -17.4500   -9.8850 C.3   179  TRP179      0.0576
     38  CG        20.3410  -17.1910   -8.5880 C.ar  179  TRP179      0.0006
     39  CD1       20.5400  -18.0740   -7.5730 C.ar  179  TRP179      0.0946
     40  CD2       20.9300  -15.9650   -8.1700 C.ar  179  TRP179      0.0152
     41  NE1       21.2100  -17.4850   -6.5530 N.ar  179  TRP179     -0.2442
     42  CE2       21.4750  -16.1850   -6.8890 C.ar  179  TRP179      0.0810
     43  CE3       21.0680  -14.6980   -8.7630 C.ar  179  TRP179      0.0012
     44  CZ2       22.1390  -15.1790   -6.1720 C.ar  179  TRP179      0.0191
     45  CZ3       21.7150  -13.6940   -8.0480 C.ar  179  TRP179      0.0001
     46  CH2       22.2350  -13.9390   -6.7580 C.ar  179  TRP179      0.0015
     47  N         21.7660  -17.4000  -23.7800 N.3   214  LEU214     -0.1245
     48  CA        23.0590  -17.4160  -23.0860 C.3   214  LEU214      0.1561
     49  C         24.2920  -17.2940  -23.9860 C.2   214  LEU214      0.2260
     50  O         25.2330  -16.5710  -23.6650 O.2   214  LEU214     -0.2867
     51  CB        23.1440  -18.6420  -22.1840 C.3   214  LEU214      0.0270
     52  CG        22.3050  -18.4890  -20.9120 C.3   214  LEU214      0.0019
     53  CD1       22.4360  -19.6550  -19.8530 C.3   214  LEU214      0.0001
     54  CD2       22.6640  -17.1290  -20.2850 C.3   214  LEU214      0.0001
     55  N         26.7810  -14.0230  -23.6030 N.3   218  LEU218     -0.1245
     56  CA        28.1610  -14.2590  -23.2500 C.3   218  LEU218      0.1561
     57  C         29.0740  -13.7740  -24.3470 C.2   218  LEU218      0.2260
     58  O         30.1910  -13.3750  -24.0670 O.2   218  LEU218     -0.2867
     59  CB        28.4150  -15.7290  -22.9340 C.3   218  LEU218      0.0270
     60  CG        27.7220  -16.2600  -21.6760 C.3   218  LEU218      0.0019
     61  CD1       28.3920  -17.5330  -21.3090 C.3   218  LEU218      0.0001
     62  CD2       27.8490  -15.2850  -20.5440 C.3   218  LEU218      0.0001
     63  N         32.2570  -15.5960  -17.1740 N.3   224  PRO224     -0.2116
     64  CA        32.4350  -15.1140  -15.7990 C.3   224  PRO224      0.1372
     65  C         33.8730  -15.2150  -15.2600 C.2   224  PRO224      0.2244
     66  O         34.6370  -16.0900  -15.6800 O.2   224  PRO224     -0.2868
     67  CB        31.5390  -16.0430  -14.9910 C.3   224  PRO224      0.0268
     68  CG        30.6170  -16.6680  -15.9400 C.3   224  PRO224      0.0207
     69  CD        31.1990  -16.6210  -17.2750 C.3   224  PRO224      0.0892
     70  N         33.0920  -14.2290   -9.9610 N.3   228  LEU228     -0.1245
     71  CA        31.6910  -14.5760  -10.1090 C.3   228  LEU228      0.1561
     72  C         31.4250  -16.0370   -9.7580 C.2   228  LEU228      0.2260
     73  O         30.5270  -16.3100   -8.9880 O.2   228  LEU228     -0.2867
     74  CB        31.1150  -14.1910  -11.4870 C.3   228  LEU228      0.0270
     75  CG        29.6050  -14.3780  -11.7630 C.3   228  LEU228      0.0019
     76  CD1       28.7660  -13.7120  -10.7390 C.3   228  LEU228      0.0001
     77  CD2       29.2650  -13.7930  -13.1020 C.3   228  LEU228      0.0001
     78  N         30.8140  -17.3260   -6.4480 N.3   231  LYS231     -0.1231
     79  CA        29.5210  -16.9920   -5.8150 C.3   231  LYS231      0.1693
     80  C         28.3030  -17.7600   -6.3340 C.2   231  LYS231      0.2592
     81  O         27.1680  -17.4920   -5.9170 O.2   231  LYS231     -0.2718
     82  CB        29.2510  -15.4900   -5.8750 C.3   231  LYS231      0.0285
     83  CG        30.4140  -14.6110   -5.3660 C.3   231  LYS231      0.0035
     84  CD        30.0450  -13.1190   -5.3320 C.3   231  LYS231      0.0206
     85  CE        29.9590  -12.5620   -6.7360 C.3   231  LYS231      0.1093
     86  NZ        29.4560  -11.1930   -6.7130 N.3   231  LYS231     -0.1314
     87  N         28.5320  -18.7340   -7.2050 N.am  232  ILE232     -0.1966
     88  CA        27.4510  -19.5570   -7.6830 C.3   232  ILE232      0.1727
     89  C         27.2860  -20.7140   -6.7180 C.2   232  ILE232      0.2617
     90  O         28.2300  -21.4800   -6.4970 O.2   232  ILE232     -0.2715
     91  CB        27.7280  -20.1450   -9.0890 C.3   232  ILE232      0.0290
     92  CG1       28.2800  -19.0970  -10.0650 C.3   232  ILE232      0.0022
     93  CG2       26.4640  -20.8380   -9.6480 C.3   232  ILE232      0.0023
     94  CD1       27.3670  -17.9100  -10.2890 C.3   232  ILE232      0.0001
     95  N         26.0960  -20.8770   -6.1550 N.am  233  SER233     -0.1936
     96  CA        25.8490  -21.9740   -5.2260 C.3   233  SER233      0.2055
     97  C         25.6730  -23.3090   -5.9510 C.2   233  SER233      0.2643
     98  O         26.0070  -24.3550   -5.3950 O.2   233  SER233     -0.2714
     99  CB        24.6150  -21.6960   -4.3980 C.3   233  SER233      0.2130
    100  OG        23.5480  -21.3590   -5.2510 O.3   233  SER233     -0.2179
    101  N         25.1750  -23.2780   -7.1840 N.am  234  SER234     -0.1949
    102  CA        24.6870  -24.4880   -7.8440 C.3   234  SER234      0.1924
    103  C         25.7520  -25.2460   -8.6490 C.2   234  SER234      0.2314
    104  O         26.2690  -24.7270   -9.6430 O.2   234  SER234     -0.2863
    105  CB        23.4650  -24.1360   -8.7220 C.3   234  SER234      0.2116
    106  OG        23.2410  -25.1020   -9.7380 O.3   234  SER234     -0.2180
    107  N         25.1440  -25.4760  -12.5400 N.3   237  ALA237     -0.1245
    108  CA        25.2800  -24.1260  -13.0610 C.3   237  ALA237      0.1562
    109  C         26.7460  -23.7730  -13.2040 C.2   237  ALA237      0.2260
    110  O         27.2080  -23.3860  -14.2930 O.2   237  ALA237     -0.2867
    111  CB        24.5910  -23.1430  -12.1420 C.3   237  ALA237      0.0290
    112  N         28.4220  -25.9380  -16.0640 N.3   240  TYR240     -0.1227
    113  CA        27.9800  -25.5040  -17.3780 C.3   240  TYR240      0.1736
    114  C         28.8470  -24.3360  -17.8650 C.2   240  TYR240      0.2595
    115  O         29.4070  -24.3680  -18.9730 O.2   240  TYR240     -0.2718
    116  CB        26.5250  -25.0760  -17.3260 C.3   240  TYR240      0.0548
    117  CG        26.0210  -24.6600  -18.6680 C.ar  240  TYR240     -0.0200
    118  CD1       26.2130  -25.4840  -19.7840 C.ar  240  TYR240     -0.0009
    119  CD2       25.3440  -23.4650  -18.8380 C.ar  240  TYR240     -0.0009
    120  CE1       25.7480  -25.1270  -21.0390 C.ar  240  TYR240      0.0417
    121  CE2       24.8650  -23.0920  -20.0920 C.ar  240  TYR240      0.0417
    122  CZ        25.0760  -23.9310  -21.1950 C.ar  240  TYR240      0.1957
    123  OH        24.6230  -23.5800  -22.4530 O.3   240  TYR240     -0.2866
    124  N         28.9500  -23.3280  -17.0050 N.am  241  ILE241     -0.1980
    125  CA        29.7300  -22.1250  -17.2520 C.3   241  ILE241      0.1595
    126  C         31.1990  -22.4190  -17.6150 C.2   241  ILE241      0.2287
    127  O         31.7070  -21.9080  -18.6420 O.2   241  ILE241     -0.2864
    128  CB        29.6610  -21.1530  -16.0310 C.3   241  ILE241      0.0276
    129  CG1       28.2440  -20.6340  -15.8240 C.3   241  ILE241      0.0022
    130  CG2       30.5980  -19.9570  -16.2270 C.3   241  ILE241      0.0022
    131  CD1       28.0410  -19.9590  -14.4760 C.3   241  ILE241      0.0001
    132  N         27.3810   -9.1380  -16.1770 N.3   273  LEU273     -0.1231
    133  CA        26.9010  -10.4540  -15.8150 C.3   273  LEU273      0.1693
    134  C         26.6790  -10.6400  -14.3220 C.2   273  LEU273      0.2592
    135  O         25.7470  -11.3130  -13.8990 O.2   273  LEU273     -0.2718
    136  CB        27.9200  -11.4620  -16.2910 C.3   273  LEU273      0.0284
    137  CG        27.4090  -12.8200  -16.7490 C.3   273  LEU273      0.0019
    138  CD1       26.4510  -12.6420  -17.8950 C.3   273  LEU273      0.0001
    139  CD2       28.5590  -13.7110  -17.1850 C.3   273  LEU273      0.0001
    140  N         27.5580  -10.0730  -13.5050 N.am  274  ASP274     -0.1960
    141  CA        27.4690  -10.2770  -12.0710 C.3   274  ASP274      0.1840
    142  C         26.5040   -9.2740  -11.4850 C.2   274  ASP274      0.2623
    143  O         26.8560   -8.1050  -11.2610 O.2   274  ASP274     -0.2715
    144  CB        28.8450  -10.1120  -11.4400 C.3   274  ASP274      0.1450
    145  CG        28.8190  -10.2120   -9.9130 C.2   274  ASP274      0.3671
    146  OD1       27.7400  -10.5060   -9.3240 O.co2 274  ASP274     -0.2456
    147  OD2       29.8910   -9.9860   -9.2970 O.co2 274  ASP274     -0.2456
    148  N         25.2930   -9.7190  -11.1840 N.am  275  SER275     -0.1936
    149  CA        24.2680   -8.7990  -10.7130 C.3   275  SER275      0.2055
    150  C         24.5810   -8.1080   -9.4220 C.2   275  SER275      0.2643
    151  O         23.8570   -7.1790   -9.0390 O.2   275  SER275     -0.2714
    152  CB        22.9170   -9.4880  -10.5970 C.3   275  SER275      0.2130
    153  OG        22.9450  -10.4460   -9.5790 O.3   275  SER275     -0.2179
    154  N         25.6200   -8.5430   -8.7180 N.am  276  ASP276     -0.1971
    155  CA        26.0220   -7.8100   -7.5060 C.3   276  ASP276      0.1709
    156  C         26.7180   -6.4700   -7.8410 C.2   276  ASP276      0.2293
    157  O         26.8670   -5.6010   -6.9730 O.2   276  ASP276     -0.2864
    158  CB        26.9950   -8.6160   -6.6640 C.3   276  ASP276      0.1436
    159  CG        26.3660   -9.7620   -5.9780 C.2   276  ASP276      0.3671
    160  OD1       27.0530  -10.8000   -5.8840 O.co2 276  ASP276     -0.2456
    161  OD2       25.2130   -9.6670   -5.5280 O.co2 276  ASP276     -0.2456
@<TRIPOS>BOND
     1    57    58    2
     2    57    56    1
     3    49    50    2
     4    49    48    1
     5    47    48    1
     6    55    56    1
     7    56    59    1
     8    48    51    1
     9    59    60    1
    10   123   122    1
    11    51    52    1
    12    60    61    1
    13    60    62    1
    14   122   120   ar
    15   122   121   ar
    16   120   118   ar
    17    52    54    1
    18    52    53    1
    19   121   119   ar
    20   118   117   ar
    21   115   114    2
    22   119   117   ar
    23   117   116    1
    24   127   126    2
    25   138   137    1
    26   114   113    1
    27   114   124   am
    28     7     6    1
    29     7     1    1
    30     5     6    1
    31     5     2    1
    32   126   125    1
    33     2     1    1
    34     2     3    1
    35   113   116    1
    36   113   112    1
    37    69    63    1
    38    69    68    1
    39   125   124    1
    40   125   128    1
    41   139   137    1
    42    63    64    1
    43   137   136    1
    44     4     3    2
    45   136   133    1
    46   130   128    1
    47    24    22    1
    48     3     8   am
    49   132   133    1
    50   128   129    1
    51    17    18    1
    52    68    67    1
    53   129   131    1
    54   133   134    1
    55    64    65    1
    56    64    67    1
    57    22    23    1
    58    22    21    1
    59    66    65    2
    60    18    21    1
    61    18    19    1
    62     8     9    1
    63   134   135    2
    64   134   140   am
    65   110   109    2
    66    19    25   am
    67    19    20    2
    68    16    14   ar
    69    25    26    1
    70     9    10    1
    71     9    12    1
    72    10    11    2
    73   140   141    1
    74   109   108    1
    75    77    75    1
    76    29    26    1
    77    29    30    1
    78   108   107    1
    79   108   111    1
    80    14    15   ar
    81    14    13    1
    82    26    27    1
    83    12    13    1
    84    30    31    2
    85    30    32   am
    86   141   142    1
    87   141   144    1
    88    75    74    1
    89    75    76    1
    90    74    71    1
    91   142   143    2
    92   142   148   am
    93   144   145    1
    94    27    33   am
    95    27    28    2
    96   148   149    1
    97    33    34    1
    98   149   152    1
    99   149   150    1
   100   152   153    1
   101    94    92    1
   102    71    70    1
   103    71    72    1
   104    92    91    1
   105   145   146   ar
   106   145   147   ar
   107    37    34    1
   108    37    38    1
   109    34    35    1
   110    72    73    2
   111   106   105    1
   112    93    91    1
   113   104   103    2
   114    36    35    2
   115   150   151    2
   116   150   154   am
   117    91    88    1
   118    43    40   ar
   119    43    45   ar
   120   105   102    1
   121   154   155    1
   122   103   102    1
   123    38    40   ar
   124    38    39   ar
   125    40    42   ar
   126    45    46   ar
   127   102   101    1
   128   156   155    1
   129   156   157    2
   130    88    87    1
   131    88    89    1
   132    39    41   ar
   133   155   158    1
   134    87    80   am
   135   101    97   am
   136    42    41   ar
   137    42    44   ar
   138    46    44   ar
   139    85    86    1
   140    85    84    1
   141    89    90    2
   142    89    95   am
   143   158   159    1
   144    78    79    1
   145    80    81    2
   146    80    79    1
   147    95    96    1
   148   159   160   ar
   149   159   161   ar
   150    97    98    2
   151    97    96    1
   152    82    79    1
   153    82    83    1
   154    83    84    1
   155   100    99    1
   156    96    99    1
