@<TRIPOS>MOLECULE
tmp/4dlkA02.pdb
 121 116 0 0 0
SMALL
GASTEIGER

@<TRIPOS>ATOM
      1  N        -14.5930   -1.3100    7.6720 N.3    17  GLY17      -0.1210
      2  CA       -13.8800   -2.1040    6.6640 C.3    17  GLY17       0.1956
      3  C        -12.4830   -2.5250    7.1080 C.2    17  GLY17       0.2611
      4  O        -12.1080   -2.3540    8.2730 O.2    17  GLY17      -0.2717
      5  N        -11.7060   -3.0620    6.1730 N.am   18  GLN18      -0.1979
      6  CA       -10.3610   -3.5580    6.4760 C.3    18  GLN18       0.1601
      7  C         -9.4150   -2.4900    7.0210 C.2    18  GLN18       0.2287
      8  O         -8.5010   -2.8060    7.7860 O.2    18  GLN18      -0.2864
      9  CB        -9.7260   -4.2460    5.2640 C.3    18  GLN18       0.0394
     10  CG        -9.3540   -3.3350    4.0990 C.3    18  GLN18       0.0908
     11  CD       -10.4320   -3.2790    3.0410 C.2    18  GLN18       0.2608
     12  OE1      -11.6180   -3.4560    3.3360 O.2    18  GLN18      -0.2717
     13  NE2      -10.0290   -3.0290    1.7940 N.am   18  GLN18      -0.0878
     14  N        -24.1150    5.7890    7.9520 N.3    57  TYR57      -0.1241
     15  CA       -23.1250    6.8460    8.1690 C.3    57  TYR57       0.1605
     16  C        -23.7400    8.2380    8.2970 C.2    57  TYR57       0.2264
     17  O        -23.1460    9.1210    8.9110 O.2    57  TYR57      -0.2867
     18  CB       -22.0780    6.8360    7.0610 C.3    57  TYR57       0.0534
     19  CG       -21.2190    5.5920    7.0330 C.ar   57  TYR57      -0.0201
     20  CD1      -21.2160    4.7450    5.9220 C.ar   57  TYR57      -0.0009
     21  CD2      -20.4120    5.2560    8.1220 C.ar   57  TYR57      -0.0009
     22  CE1      -20.4210    3.6090    5.8920 C.ar   57  TYR57       0.0417
     23  CE2      -19.6230    4.1220    8.1090 C.ar   57  TYR57       0.0417
     24  CZ       -19.6290    3.3010    6.9960 C.ar   57  TYR57       0.1957
     25  OH       -18.8400    2.1750    6.9910 O.3    57  TYR57      -0.2866
     26  N        -12.5160    5.7160    8.5590 N.3    76  GLU76      -0.1231
     27  CA       -11.9950    5.1410    7.3150 C.3    76  GLU76       0.1699
     28  C        -12.9630    5.4860    6.1830 C.2    76  GLU76       0.2592
     29  O        -12.5810    5.5070    5.0180 O.2    76  GLU76      -0.2718
     30  CB       -11.8190    3.6140    7.4080 C.3    76  GLU76       0.0402
     31  CG       -13.1280    2.8560    7.5750 C.3    76  GLU76       0.1161
     32  CD       -13.2110    1.5320    6.8360 C.2    76  GLU76       0.3649
     33  OE1      -12.1870    0.8170    6.6910 O.co2  76  GLU76      -0.2457
     34  OE2      -14.3390    1.1820    6.4240 O.co2  76  GLU76      -0.2457
     35  N        -14.2230    5.7210    6.5480 N.am   77  PHE77      -0.1962
     36  CA       -15.2590    6.1430    5.6150 C.3    77  PHE77       0.1771
     37  C        -15.2040    7.6620    5.5110 C.2    77  PHE77       0.2619
     38  O        -15.3650    8.3600    6.5110 O.2    77  PHE77      -0.2715
     39  CB       -16.6320    5.6840    6.1130 C.3    77  PHE77       0.0574
     40  CG       -17.7920    6.2520    5.3300 C.ar   77  PHE77      -0.0200
     41  CD1      -18.4980    7.3540    5.8090 C.ar   77  PHE77      -0.0042
     42  CD2      -18.1780    5.6870    4.1210 C.ar   77  PHE77      -0.0042
     43  CE1      -19.5670    7.8780    5.0940 C.ar   77  PHE77      -0.0003
     44  CE2      -19.2480    6.2070    3.4000 C.ar   77  PHE77      -0.0003
     45  CZ       -19.9480    7.2980    3.8890 C.ar   77  PHE77      -0.0000
     46  N        -14.9850    8.1600    4.2980 N.am   78  GLU78      -0.1963
     47  CA       -14.6990    9.5780    4.0750 C.3    78  GLU78       0.1733
     48  C        -15.9300   10.4250    3.7640 C.2    78  GLU78       0.2616
     49  O        -15.9010   11.6440    3.9430 O.2    78  GLU78      -0.2715
     50  CB       -13.6900    9.7370    2.9350 C.3    78  GLU78       0.0429
     51  CG       -12.3120    9.1770    3.2370 C.3    78  GLU78       0.1163
     52  CD       -11.6120    8.6930    1.9860 C.2    78  GLU78       0.3649
     53  OE1      -10.7710    9.4350    1.4510 O.co2  78  GLU78      -0.2457
     54  OE2      -11.9160    7.5740    1.5220 O.co2  78  GLU78      -0.2457
     55  N        -17.0010    9.7840    3.3030 N.am   79  ASN79      -0.1972
     56  CA       -18.1680   10.5000    2.7930 C.3    79  ASN79       0.1688
     57  C        -19.1380   10.9360    3.8920 C.2    79  ASN79       0.2292
     58  O        -20.3530   10.8460    3.7290 O.2    79  ASN79      -0.2864
     59  CB       -18.8840    9.6530    1.7270 C.3    79  ASN79       0.1181
     60  CG       -19.7260   10.4860    0.7760 C.2    79  ASN79       0.2629
     61  OD1      -19.5880   11.7040    0.7070 O.2    79  ASN79      -0.2716
     62  ND2      -20.6090    9.8220    0.0310 N.am   79  ASN79      -0.0877
     63  N        -12.7450   15.4770   -1.2040 N.3   105  GLN105     -0.1245
     64  CA       -13.9670   14.7940   -1.6440 C.3   105  GLN105      0.1566
     65  C        -14.4480   15.2250   -3.0290 C.2   105  GLN105      0.2260
     66  O        -15.3170   14.5920   -3.6210 O.2   105  GLN105     -0.2867
     67  CB       -15.0810   14.9560   -0.5980 C.3   105  GLN105      0.0367
     68  CG       -14.9380   14.0030    0.5820 C.3   105  GLN105      0.0905
     69  CD       -15.1570   12.5500    0.1940 C.2   105  GLN105      0.2608
     70  OE1      -14.1990   11.7950   -0.0190 O.2   105  GLN105     -0.2717
     71  NE2      -16.4220   12.1500    0.0890 N.am  105  GLN105     -0.0878
     72  N        -14.7410    6.3490   -8.5520 N.3   153  TYR153     -0.1241
     73  CA       -13.8650    5.3520   -7.9330 C.3   153  TYR153      0.1605
     74  C        -13.6550    4.2030   -8.9070 C.2   153  TYR153      0.2264
     75  O        -14.4700    4.0010   -9.8090 O.2   153  TYR153     -0.2867
     76  CB       -14.4570    4.8440   -6.6060 C.3   153  TYR153      0.0534
     77  CG       -15.6980    3.9840   -6.7610 C.ar  153  TYR153     -0.0201
     78  CD1      -15.6170    2.5930   -6.6760 C.ar  153  TYR153     -0.0009
     79  CD2      -16.9550    4.5610   -6.9910 C.ar  153  TYR153     -0.0009
     80  CE1      -16.7460    1.8000   -6.8250 C.ar  153  TYR153      0.0417
     81  CE2      -18.0900    3.7740   -7.1450 C.ar  153  TYR153      0.0417
     82  CZ       -17.9780    2.3950   -7.0560 C.ar  153  TYR153      0.1957
     83  OH       -19.0940    1.6020   -7.2010 O.3   153  TYR153     -0.2866
     84  N        -13.6850  -10.8770    6.0510 N.3   340  LYS340     -0.1245
     85  CA       -14.9370  -10.5610    5.3650 C.3   340  LYS340      0.1561
     86  C        -15.7350  -11.8440    5.1300 C.2   340  LYS340      0.2260
     87  O        -15.1730  -12.8670    4.7320 O.2   340  LYS340     -0.2867
     88  CB       -14.6720   -9.8280    4.0530 C.3   340  LYS340      0.0271
     89  CG       -14.0290   -8.4640    4.2430 C.3   340  LYS340      0.0035
     90  CD       -13.8100   -7.7590    2.9170 C.3   340  LYS340      0.0206
     91  CE       -13.3730   -6.3200    3.1250 C.3   340  LYS340      0.1093
     92  NZ       -13.1370   -5.6250    1.8330 N.3   340  LYS340     -0.1314
     93  N        -16.5810  -11.6890   -3.0010 N.3   344  LYS344     -0.1245
     94  CA       -17.0530  -11.2600   -4.3140 C.3   344  LYS344      0.1561
     95  C        -15.8140  -11.0840   -5.1830 C.2   344  LYS344      0.2260
     96  O        -14.7560  -10.7160   -4.6740 O.2   344  LYS344     -0.2867
     97  CB       -17.8380   -9.9480   -4.2210 C.3   344  LYS344      0.0271
     98  CG       -19.1000  -10.0320   -3.3730 C.3   344  LYS344      0.0035
     99  CD       -20.0960   -8.9400   -3.7290 C.3   344  LYS344      0.0206
    100  CE       -21.0730   -9.3870   -4.8110 C.3   344  LYS344      0.1093
    101  NZ       -22.0600  -10.3850   -4.3020 N.3   344  LYS344     -0.1314
    102  N        -13.8900   -7.8790   -4.7430 N.3   347  ARG347     -0.1231
    103  CA       -13.7810   -7.4350   -3.3520 C.3   347  ARG347      0.1694
    104  C        -12.3980   -7.7870   -2.7750 C.2   347  ARG347      0.2591
    105  O        -11.9060   -8.9020   -2.9590 O.2   347  ARG347     -0.2718
    106  CB       -14.8990   -8.0620   -2.5120 C.3   347  ARG347      0.0321
    107  CG       -14.9040   -7.6810   -1.0370 C.3   347  ARG347      0.0489
    108  CD       -16.0490   -8.3690   -0.3040 C.3   347  ARG347      0.2205
    109  NE       -17.3390   -7.7540   -0.6170 N.pl3 347  ARG347     -0.0865
    110  CZ       -18.5220   -8.2370   -0.2440 C.cat 347  ARG347      0.5346
    111  NH1      -18.6070   -9.3560    0.4630 N.pl3 347  ARG347      0.1354
    112  NH2      -19.6300   -7.5930   -0.5840 N.pl3 347  ARG347      0.1354
    113  N        -11.7890   -6.8260   -2.0830 N.am  348  LYS348     -0.1980
    114  CA       -10.4970   -7.0240   -1.4280 C.3   348  LYS348      0.1596
    115  C        -10.6530   -7.8450   -0.1520 C.2   348  LYS348      0.2287
    116  O        -11.2740   -7.3920    0.8140 O.2   348  LYS348     -0.2864
    117  CB        -9.8320   -5.6670   -1.1330 C.3   348  LYS348      0.0298
    118  CG        -9.3460   -4.9550   -2.3850 C.3   348  LYS348      0.0038
    119  CD        -8.9190   -3.5110   -2.1330 C.3   348  LYS348      0.0206
    120  CE        -8.7280   -2.7920   -3.4640 C.3   348  LYS348      0.1093
    121  NZ        -8.2460   -1.3910   -3.3020 N.3   348  LYS348     -0.1314
@<TRIPOS>BOND
     1    75    74    2
     2    74    73    1
     3    72    73    1
     4    73    76    1
     5    83    82    1
     6    81    82   ar
     7    81    79   ar
     8    82    80   ar
     9    79    77   ar
    10    80    78   ar
    11    77    78   ar
    12    77    76    1
    13    95    96    2
    14    95    94    1
    15   100   101    1
    16   100    99    1
    17   102   103    1
    18    94    97    1
    19    94    93    1
    20    97    98    1
    21    99    98    1
    22    66    65    2
    23   120   121    1
    24   120   119    1
    25   103   104    1
    26   103   106    1
    27    65    64    1
    28   105   104    2
    29   104   113   am
    30   106   107    1
    31   118   119    1
    32   118   117    1
    33   113   114    1
    34    64    63    1
    35    64    67    1
    36   114   117    1
    37   114   115    1
    38   107   108    1
    39   109   108    1
    40   109   110    2
    41    67    68    1
    42   112   110    1
    43   110   111    1
    44   115   116    2
    45    70    69    2
    46    62    60   am
    47    71    69   am
    48    69    68    1
    49    61    60    2
    50    60    59    1
    51    53    52   ar
    52    54    52   ar
    53    59    56    1
    54    13    11   am
    55    92    91    1
    56    52    51    1
    57    56    55    1
    58    56    57    1
    59    90    91    1
    60    90    89    1
    61    50    51    1
    62    50    47    1
    63    11    12    2
    64    11    10    1
    65    55    48   am
    66    44    45   ar
    67    44    42   ar
    68    58    57    2
    69    48    49    2
    70    48    47    1
    71    45    43   ar
    72    88    89    1
    73    88    85    1
    74    47    46    1
    75    10     9    1
    76    42    40   ar
    77    46    37   am
    78    87    86    2
    79    29    28    2
    80    43    41   ar
    81    86    85    1
    82     9     6    1
    83    40    41   ar
    84    40    39    1
    85    85    84    1
    86    37    36    1
    87    37    38    2
    88    36    39    1
    89    36    35    1
    90    22    20   ar
    91    22    24   ar
    92    20    19   ar
    93     5     6    1
    94     5     3   am
    95    28    35   am
    96    28    27    1
    97    34    32   ar
    98     6     7    1
    99     2     3    1
   100     2     1    1
   101    33    32   ar
   102    32    31    1
   103    25    24    1
   104    24    23   ar
   105     7     8    2
   106    19    18    1
   107    19    21   ar
   108    18    15    1
   109     3     4    2
   110    27    30    1
   111    27    26    1
   112    30    31    1
   113    14    15    1
   114    23    21   ar
   115    15    16    1
   116    16    17    2
