@<TRIPOS>MOLECULE
tmp/4dlkA01.pdb
 166 160 0 0 0
SMALL
GASTEIGER

@<TRIPOS>ATOM
      1  N        -11.7060   -3.0620    6.1730 N.3    18  GLN18      -0.1231
      2  CA       -10.3610   -3.5580    6.4760 C.3    18  GLN18       0.1698
      3  C         -9.4150   -2.4900    7.0210 C.2    18  GLN18       0.2592
      4  O         -8.5010   -2.8060    7.7860 O.2    18  GLN18      -0.2718
      5  CB        -9.7260   -4.2460    5.2640 C.3    18  GLN18       0.0381
      6  CG        -9.3540   -3.3350    4.0990 C.3    18  GLN18       0.0905
      7  CD       -10.4320   -3.2790    3.0410 C.2    18  GLN18       0.2608
      8  OE1      -11.6180   -3.4560    3.3360 O.2    18  GLN18      -0.2717
      9  NE2      -10.0290   -3.0290    1.7940 N.am   18  GLN18      -0.0878
     10  N         -9.6220   -1.2370    6.6260 N.am   19  LEU19      -0.1980
     11  CA        -8.7570   -0.1610    7.1050 C.3    19  LEU19       0.1596
     12  C         -9.0250    0.0870    8.5790 C.2    19  LEU19       0.2287
     13  O         -8.0930    0.2270    9.3630 O.2    19  LEU19      -0.2864
     14  CB        -8.9160    1.1300    6.2800 C.3    19  LEU19       0.0297
     15  CG        -8.6190    1.0620    4.7790 C.3    19  LEU19       0.0022
     16  CD1       -8.8320    2.4270    4.1380 C.3    19  LEU19       0.0001
     17  CD2       -7.2000    0.5730    4.5170 C.3    19  LEU19       0.0001
     18  N        -12.5160    5.7160    8.5590 N.3    76  GLU76      -0.1231
     19  CA       -11.9950    5.1410    7.3150 C.3    76  GLU76       0.1699
     20  C        -12.9630    5.4860    6.1830 C.2    76  GLU76       0.2592
     21  O        -12.5810    5.5070    5.0180 O.2    76  GLU76      -0.2718
     22  CB       -11.8190    3.6140    7.4080 C.3    76  GLU76       0.0402
     23  CG       -13.1280    2.8560    7.5750 C.3    76  GLU76       0.1161
     24  CD       -13.2110    1.5320    6.8360 C.2    76  GLU76       0.3649
     25  OE1      -12.1870    0.8170    6.6910 O.co2  76  GLU76      -0.2457
     26  OE2      -14.3390    1.1820    6.4240 O.co2  76  GLU76      -0.2457
     27  N        -14.2230    5.7210    6.5480 N.am   77  PHE77      -0.1962
     28  CA       -15.2590    6.1430    5.6150 C.3    77  PHE77       0.1771
     29  C        -15.2040    7.6620    5.5110 C.2    77  PHE77       0.2619
     30  O        -15.3650    8.3600    6.5110 O.2    77  PHE77      -0.2715
     31  CB       -16.6320    5.6840    6.1130 C.3    77  PHE77       0.0574
     32  CG       -17.7920    6.2520    5.3300 C.ar   77  PHE77      -0.0200
     33  CD1      -18.4980    7.3540    5.8090 C.ar   77  PHE77      -0.0042
     34  CD2      -18.1780    5.6870    4.1210 C.ar   77  PHE77      -0.0042
     35  CE1      -19.5670    7.8780    5.0940 C.ar   77  PHE77      -0.0003
     36  CE2      -19.2480    6.2070    3.4000 C.ar   77  PHE77      -0.0003
     37  CZ       -19.9480    7.2980    3.8890 C.ar   77  PHE77      -0.0000
     38  N        -14.9850    8.1600    4.2980 N.am   78  GLU78      -0.1963
     39  CA       -14.6990    9.5780    4.0750 C.3    78  GLU78       0.1733
     40  C        -15.9300   10.4250    3.7640 C.2    78  GLU78       0.2616
     41  O        -15.9010   11.6440    3.9430 O.2    78  GLU78      -0.2715
     42  CB       -13.6900    9.7370    2.9350 C.3    78  GLU78       0.0429
     43  CG       -12.3120    9.1770    3.2370 C.3    78  GLU78       0.1163
     44  CD       -11.6120    8.6930    1.9860 C.2    78  GLU78       0.3649
     45  OE1      -10.7710    9.4350    1.4510 O.co2  78  GLU78      -0.2457
     46  OE2      -11.9160    7.5740    1.5220 O.co2  78  GLU78      -0.2457
     47  N        -17.0010    9.7840    3.3030 N.am   79  ASN79      -0.1972
     48  CA       -18.1680   10.5000    2.7930 C.3    79  ASN79       0.1688
     49  C        -19.1380   10.9360    3.8920 C.2    79  ASN79       0.2292
     50  O        -20.3530   10.8460    3.7290 O.2    79  ASN79      -0.2864
     51  CB       -18.8840    9.6530    1.7270 C.3    79  ASN79       0.1181
     52  CG       -19.7260   10.4860    0.7760 C.2    79  ASN79       0.2629
     53  OD1      -19.5880   11.7040    0.7070 O.2    79  ASN79      -0.2716
     54  ND2      -20.6090    9.8220    0.0310 N.am   79  ASN79      -0.0877
     55  N        -17.8540   11.1220   -6.3290 N.3   151  GLY151     -0.1210
     56  CA       -18.4010    9.7710   -6.4320 C.3   151  GLY151      0.1956
     57  C        -17.5800    8.8210   -7.2810 C.2   151  GLY151      0.2612
     58  O        -17.8710    7.6290   -7.3330 O.2   151  GLY151     -0.2717
     59  N        -16.5480    9.3420   -7.9430 N.am  152  GLY152     -0.1942
     60  CA       -15.7370    8.5370   -8.8500 C.3   152  GLY152      0.2014
     61  C        -14.8070    7.5990   -8.1010 C.2   152  GLY152      0.2639
     62  O        -14.1650    7.9930   -7.1340 O.2   152  GLY152     -0.2714
     63  N        -14.7410    6.3490   -8.5520 N.am  153  TYR153     -0.1959
     64  CA       -13.8650    5.3520   -7.9330 C.3   153  TYR153      0.1771
     65  C        -13.6550    4.2030   -8.9070 C.2   153  TYR153      0.2619
     66  O        -14.4700    4.0010   -9.8090 O.2   153  TYR153     -0.2715
     67  CB       -14.4570    4.8440   -6.6060 C.3   153  TYR153      0.0574
     68  CG       -15.6980    3.9840   -6.7610 C.ar  153  TYR153     -0.0198
     69  CD1      -15.6170    2.5930   -6.6760 C.ar  153  TYR153     -0.0009
     70  CD2      -16.9550    4.5610   -6.9910 C.ar  153  TYR153     -0.0009
     71  CE1      -16.7460    1.8000   -6.8250 C.ar  153  TYR153      0.0417
     72  CE2      -18.0900    3.7740   -7.1450 C.ar  153  TYR153      0.0417
     73  CZ       -17.9780    2.3950   -7.0560 C.ar  153  TYR153      0.1957
     74  OH       -19.0940    1.6020   -7.2010 O.3   153  TYR153     -0.2866
     75  N        -12.5660    3.4550   -8.7240 N.am  154  ASP154     -0.1971
     76  CA       -12.2480    2.3120   -9.5810 C.3   154  ASP154      0.1709
     77  C        -12.4140    2.6590  -11.0630 C.2   154  ASP154      0.2293
     78  O        -12.9730    1.8780  -11.8290 O.2   154  ASP154     -0.2864
     79  CB       -13.1270    1.1000   -9.2140 C.3   154  ASP154      0.1436
     80  CG       -12.7760    0.4970   -7.8520 C.2   154  ASP154      0.3671
     81  OD1      -13.4850   -0.4310   -7.4180 O.co2 154  ASP154     -0.2456
     82  OD2      -11.7950    0.9360   -7.2140 O.co2 154  ASP154     -0.2456
     83  N         -1.7740   -1.0260  -11.0550 N.3   213  HIS213     -0.1241
     84  CA        -3.2120   -1.2710  -11.0640 C.3   213  HIS213      0.1621
     85  C         -3.5780   -2.1270  -12.2440 C.2   213  HIS213      0.2264
     86  O         -3.0120   -1.9850  -13.3300 O.2   213  HIS213     -0.2867
     87  CB        -3.9990    0.0430  -11.0900 C.3   213  HIS213      0.0745
     88  CG        -3.6610    0.9780   -9.9500 C.ar  213  HIS213      0.0817
     89  ND1       -2.5890    1.7920   -9.9760 N.ar  213  HIS213     -0.2268
     90  CD2       -4.2910    1.1970   -8.7270 C.ar  213  HIS213      0.1154
     91  CE1       -2.5370    2.5010   -8.8290 C.ar  213  HIS213      0.1986
     92  NE2       -3.5750    2.1290   -8.0640 N.ar  213  HIS213     -0.2212
     93  N         -5.8710   -1.8960   -7.4820 N.3   218  LEU218     -0.1245
     94  CA        -4.4530   -2.0680   -7.1790 C.3   218  LEU218      0.1561
     95  C         -4.1280   -3.5580   -7.1160 C.2   218  LEU218      0.2260
     96  O         -4.8480   -4.3340   -6.4920 O.2   218  LEU218     -0.2867
     97  CB        -4.0780   -1.3780   -5.8620 C.3   218  LEU218      0.0270
     98  CG        -2.6270   -1.4870   -5.3690 C.3   218  LEU218      0.0019
     99  CD1       -1.6650   -0.7520   -6.2930 C.3   218  LEU218      0.0001
    100  CD2       -2.5200   -0.9390   -3.9520 C.3   218  LEU218      0.0001
    101  N         -1.0340   10.1550   -4.0210 N.3   255  GLU255     -0.1245
    102  CA        -0.8070    9.3710   -5.2390 C.3   255  GLU255      0.1567
    103  C         -0.3220   10.2830   -6.3610 C.2   255  GLU255      0.2260
    104  O         -0.8380   11.3900   -6.5480 O.2   255  GLU255     -0.2867
    105  CB        -2.0710    8.5990   -5.6400 C.3   255  GLU255      0.0388
    106  CG        -2.5040    7.5600   -4.6050 C.3   255  GLU255      0.1160
    107  CD        -3.7780    6.8380   -5.0080 C.2   255  GLU255      0.3649
    108  OE1       -4.8660    7.2240   -4.5320 O.co2 255  GLU255     -0.2457
    109  OE2       -3.7100    5.8890   -5.8220 O.co2 255  GLU255     -0.2457
    110  N         -4.0920   12.2930   -6.9070 N.3   268  GLU268     -0.1245
    111  CA        -5.1250   12.4840   -5.8940 C.3   268  GLU268      0.1567
    112  C         -4.6240   12.2300   -4.4710 C.2   268  GLU268      0.2260
    113  O         -3.5160   11.7270   -4.2600 O.2   268  GLU268     -0.2867
    114  CB        -6.3920   11.6580   -6.1990 C.3   268  GLU268      0.0388
    115  CG        -6.1430   10.2230   -6.6320 C.3   268  GLU268      0.1160
    116  CD        -7.4250    9.4100   -6.7340 C.2   268  GLU268      0.3649
    117  OE1       -8.4890    9.9600   -7.0870 O.co2 268  GLU268     -0.2457
    118  OE2       -7.3790    8.1980   -6.4580 O.co2 268  GLU268     -0.2457
    119  N         -6.4900    9.2700    4.9230 N.3   272  ARG272     -0.1245
    120  CA        -6.6820    8.0180    5.6590 C.3   272  ARG272      0.1563
    121  C         -5.5590    7.0500    5.2740 C.2   272  ARG272      0.2260
    122  O         -4.8910    7.2520    4.2580 O.2   272  ARG272     -0.2867
    123  CB        -8.0340    7.3700    5.2960 C.3   272  ARG272      0.0307
    124  CG        -8.2430    7.1830    3.7940 C.3   272  ARG272      0.0489
    125  CD        -9.3290    6.1560    3.4930 C.3   272  ARG272      0.2205
    126  NE        -9.6910    6.1260    2.0750 N.pl3 272  ARG272     -0.0865
    127  CZ        -9.0450    5.4310    1.1410 C.cat 272  ARG272      0.5346
    128  NH1       -7.9710    4.7080    1.4580 N.pl3 272  ARG272      0.1354
    129  NH2       -9.4680    5.4650   -0.1180 N.pl3 272  ARG272      0.1354
    130  N         -4.1660    3.9060    3.3890 N.3   274  HIS274     -0.1226
    131  CA        -4.4390    3.6220    1.9850 C.3   274  HIS274      0.1752
    132  C         -3.8910    2.2660    1.6240 C.2   274  HIS274      0.2596
    133  O         -2.9150    1.8140    2.2180 O.2   274  HIS274     -0.2718
    134  CB        -3.7690    4.7100    1.1470 C.3   274  HIS274      0.0759
    135  CG        -4.1240    4.6740   -0.3130 C.ar  274  HIS274      0.0818
    136  ND1       -3.3330    4.0960   -1.2340 N.ar  274  HIS274     -0.2268
    137  CD2       -5.2260    5.1800   -1.0020 C.ar  274  HIS274      0.1154
    138  CE1       -3.9040    4.2040   -2.4490 C.ar  274  HIS274      0.1986
    139  NE2       -5.0590    4.8760   -2.3060 N.ar  274  HIS274     -0.2212
    140  N         -4.5090    1.6120    0.6390 N.am  275  ASN275     -0.1974
    141  CA        -4.0900    0.2810    0.1510 C.3   275  ASN275      0.1688
    142  C         -2.6040    0.2190   -0.2280 C.2   275  ASN275      0.2292
    143  O         -1.9420   -0.7850    0.0160 O.2   275  ASN275     -0.2864
    144  CB        -4.9450   -0.1040   -1.0660 C.3   275  ASN275      0.1181
    145  CG        -4.9750   -1.6080   -1.3470 C.2   275  ASN275      0.2629
    146  OD1       -5.8260   -2.0640   -2.1080 O.2   275  ASN275     -0.2716
    147  ND2       -4.0610   -2.3770   -0.7530 N.am  275  ASN275     -0.0877
    148  N         -0.0760   -0.7430    2.7290 N.3   278  HIS278     -0.1241
    149  CA        -0.1890   -1.9780    3.5180 C.3   278  HIS278      0.1621
    150  C          1.1390   -2.6690    3.6760 C.2   278  HIS278      0.2264
    151  O          1.3540   -3.4000    4.6540 O.2   278  HIS278     -0.2867
    152  CB        -1.2220   -2.9440    2.9490 C.3   278  HIS278      0.0745
    153  CG        -2.6480   -2.4350    3.0020 C.ar  278  HIS278      0.0817
    154  ND1       -3.0230   -1.3820    3.7620 N.ar  278  HIS278     -0.2268
    155  CD2       -3.7980   -2.8920    2.3690 C.ar  278  HIS278      0.1154
    156  CE1       -4.3420   -1.1660    3.6060 C.ar  278  HIS278      0.1986
    157  NE2       -4.8170   -2.0980    2.7550 N.ar  278  HIS278     -0.2212
    158  N        -11.7890   -6.8260   -2.0830 N.3   348  LYS348     -0.1245
    159  CA       -10.4970   -7.0240   -1.4280 C.3   348  LYS348      0.1561
    160  C        -10.6530   -7.8450   -0.1520 C.2   348  LYS348      0.2260
    161  O        -11.2740   -7.3920    0.8140 O.2   348  LYS348     -0.2867
    162  CB        -9.8320   -5.6670   -1.1330 C.3   348  LYS348      0.0271
    163  CG        -9.3460   -4.9550   -2.3850 C.3   348  LYS348      0.0035
    164  CD        -8.9190   -3.5110   -2.1330 C.3   348  LYS348      0.0206
    165  CE        -8.7280   -2.7920   -3.4640 C.3   348  LYS348      0.1093
    166  NZ        -8.2460   -1.3910   -3.3020 N.3   348  LYS348     -0.1314
@<TRIPOS>BOND
     1    86    85    2
     2    85    84    1
     3    78    77    2
     4    87    84    1
     5    87    88    1
     6    84    83    1
     7    77    76    1
     8    89    88   ar
     9    89    91   ar
    10    88    90   ar
    11    66    65    2
    12    76    79    1
    13    76    75    1
    14    79    80    1
    15    65    75   am
    16    65    64    1
    17    60    61    1
    18    60    59    1
    19    91    92   ar
    20    90    92   ar
    21    63    61   am
    22    63    64    1
    23    61    62    2
    24    59    57   am
    25    64    67    1
    26    80    81   ar
    27    80    82   ar
    28    93    94    1
    29    58    57    2
    30    57    56    1
    31    74    73    1
    32    94    95    1
    33    94    97    1
    34    72    73   ar
    35    72    70   ar
    36    95    96    2
    37   117   116   ar
    38    73    71   ar
    39    70    68   ar
    40   110   111    1
    41    71    69   ar
    42    68    69   ar
    43    68    67    1
    44   116   115    1
    45   116   118   ar
    46   115   114    1
    47   104   103    2
    48    56    55    1
    49   103   102    1
    50    99    98    1
    51   114   111    1
    52   111   112    1
    53    97    98    1
    54   109   107   ar
    55   105   102    1
    56   105   106    1
    57    98   100    1
    58   102   101    1
    59   107   106    1
    60   107   108   ar
    61   112   113    2
    62   165   166    1
    63   165   164    1
    64   138   139   ar
    65   138   136   ar
    66   163   164    1
    67   163   162    1
    68   139   137   ar
    69   146   145    2
    70   158   159    1
    71   159   162    1
    72   159   160    1
    73   145   144    1
    74   145   147   am
    75   136   135   ar
    76   144   141    1
    77   137   135   ar
    78   135   134    1
    79   142   143    2
    80   142   141    1
    81   160   161    2
    82   129   127    1
    83    54    52   am
    84   141   140    1
    85   140   132   am
    86    53    52    2
    87    52    51    1
    88   127   128    1
    89   127   126    2
    90   134   131    1
    91    45    44   ar
    92    46    44   ar
    93   132   131    1
    94   132   133    2
    95    51    48    1
    96     9     7   am
    97   131   130    1
    98    44    43    1
    99   126   125    1
   100   155   157   ar
   101   155   153   ar
   102   148   149    1
   103   157   156   ar
   104    48    47    1
   105    48    49    1
   106    42    43    1
   107    42    39    1
   108   152   153    1
   109   152   149    1
   110   153   154   ar
   111     7     8    2
   112     7     6    1
   113    47    40   am
   114    36    37   ar
   115    36    34   ar
   116   125   124    1
   117   149   150    1
   118   156   154   ar
   119   150   151    2
   120    50    49    2
   121    40    41    2
   122    40    39    1
   123   124   123    1
   124    37    35   ar
   125    39    38    1
   126     6     5    1
   127    34    32   ar
   128    16    15    1
   129   122   121    2
   130    38    29   am
   131    17    15    1
   132    15    14    1
   133   119   120    1
   134    21    20    2
   135    35    33   ar
   136     5     2    1
   137   121   120    1
   138   123   120    1
   139    32    33   ar
   140    32    31    1
   141    29    28    1
   142    29    30    2
   143    28    31    1
   144    28    27    1
   145     1     2    1
   146    20    27   am
   147    20    19    1
   148    14    11    1
   149    26    24   ar
   150     2     3    1
   151    10     3   am
   152    10    11    1
   153    25    24   ar
   154    24    23    1
   155     3     4    2
   156    11    12    1
   157    19    22    1
   158    19    18    1
   159    22    23    1
   160    12    13    2
