@<TRIPOS>MOLECULE
tmp/4dloA00.pdb
 97 89 0 0 0
SMALL
GASTEIGER

@<TRIPOS>ATOM
      1  N        -23.7660   25.5680   19.1960 N.3    69  GLN69      -0.1245
      2  CA       -24.0190   26.9500   19.5800 C.3    69  GLN69       0.1566
      3  C        -24.2440   27.0930   21.0870 C.2    69  GLN69       0.2260
      4  O        -23.8250   28.0810   21.6850 O.2    69  GLN69      -0.2867
      5  CB       -25.1950   27.5360   18.7830 C.3    69  GLN69       0.0367
      6  CG       -25.1310   29.0600   18.5730 C.3    69  GLN69       0.0905
      7  CD       -25.6890   29.8290   19.7520 C.2    69  GLN69       0.2608
      8  OE1      -26.6370   29.3700   20.4010 O.2    69  GLN69      -0.2717
      9  NE2      -25.1040   31.0020   20.0480 N.am   69  GLN69      -0.0878
     10  N        -20.9840   27.0980   23.3100 N.3    72  ILE72      -0.1231
     11  CA       -20.2020   28.3340   23.3080 C.3    72  ILE72       0.1692
     12  C        -20.2680   29.0630   24.6500 C.2    72  ILE72       0.2591
     13  O        -19.2580   29.5640   25.1400 O.2    72  ILE72      -0.2718
     14  CB       -20.6180   29.3020   22.1680 C.3    72  ILE72       0.0266
     15  CG1      -20.2350   28.7280   20.8090 C.3    72  ILE72       0.0019
     16  CG2      -19.9310   30.6520   22.3240 C.3    72  ILE72       0.0020
     17  CD1      -20.7350   29.5350   19.6540 C.3    72  ILE72       0.0001
     18  N        -21.4510   29.1250   25.2470 N.am   73  LYS73      -0.1980
     19  CA       -21.5840   29.7790   26.5450 C.3    73  LYS73       0.1596
     20  C        -20.7600   29.0810   27.6210 C.2    73  LYS73       0.2287
     21  O        -20.2440   29.7300   28.5250 O.2    73  LYS73      -0.2864
     22  CB       -23.0500   29.8760   26.9680 C.3    73  LYS73       0.0298
     23  CG       -23.4270   31.2490   27.4990 C.3    73  LYS73       0.0038
     24  CD       -24.9040   31.5480   27.2940 C.3    73  LYS73       0.0206
     25  CE       -25.2030   33.0180   27.5610 C.3    73  LYS73       0.1093
     26  NZ       -24.4870   33.9080   26.6000 N.3    73  LYS73      -0.1314
     27  N        -17.3640   30.4500   28.0010 N.3    76  LEU76      -0.1245
     28  CA       -17.3230   31.8240   28.4850 C.3    76  LEU76       0.1561
     29  C        -17.5610   31.8940   29.9950 C.2    76  LEU76       0.2260
     30  O        -16.8470   32.5970   30.7110 O.2    76  LEU76      -0.2867
     31  CB       -18.3680   32.6690   27.7540 C.3    76  LEU76       0.0270
     32  CG       -18.3820   32.5630   26.2290 C.3    76  LEU76       0.0019
     33  CD1      -19.4760   33.4400   25.6380 C.3    76  LEU76       0.0001
     34  CD2      -17.0200   32.9280   25.6530 C.3    76  LEU76       0.0001
     35  N        -24.0730   32.6320   12.5490 N.3   111  GLU111     -0.1245
     36  CA       -24.2400   33.0810   13.9240 C.3   111  GLU111      0.1567
     37  C        -23.1100   32.5700   14.8240 C.2   111  GLU111      0.2260
     38  O        -22.5450   33.3250   15.6360 O.2   111  GLU111     -0.2867
     39  CB       -25.6100   32.6300   14.4530 C.3   111  GLU111      0.0388
     40  CG       -25.8470   32.9840   15.9020 C.3   111  GLU111      0.1160
     41  CD       -27.2110   32.5030   16.4050 C.2   111  GLU111      0.3649
     42  OE1      -28.1540   32.4370   15.5900 O.co2 111  GLU111     -0.2457
     43  OE2      -27.3320   32.1760   17.6080 O.co2 111  GLU111     -0.2457
     44  N        -20.0300   34.5170   13.9000 N.3   114  ARG114     -0.1231
     45  CA       -20.2020   35.8530   14.4330 C.3   114  ARG114      0.1694
     46  C        -19.8630   35.8750   15.9410 C.2   114  ARG114      0.2592
     47  O        -19.1020   36.7180   16.4160 O.2   114  ARG114     -0.2718
     48  CB       -21.6470   36.3140   14.1620 C.3   114  ARG114      0.0321
     49  CG       -22.0960   37.5380   14.9570 C.3   114  ARG114      0.0489
     50  CD       -20.9580   38.5330   15.0770 C.3   114  ARG114      0.2205
     51  NE       -20.8180   39.3480   13.8860 N.pl3 114  ARG114     -0.0865
     52  CZ       -19.7340   40.0550   13.5740 C.cat 114  ARG114      0.5346
     53  NH1      -18.6480   40.0340   14.3550 N.pl3 114  ARG114      0.1354
     54  NH2      -19.7360   40.7660   12.4530 N.pl3 114  ARG114      0.1354
     55  N        -20.4280   34.9360   16.6860 N.am  115  ASN115     -0.1974
     56  CA       -20.1800   34.8390   18.1200 C.3   115  ASN115      0.1688
     57  C        -18.7290   34.5020   18.4380 C.2   115  ASN115      0.2292
     58  O        -18.1610   35.0140   19.4090 O.2   115  ASN115     -0.2864
     59  CB       -21.1690   33.8620   18.7720 C.3   115  ASN115      0.1181
     60  CG       -22.6120   34.3320   18.6190 C.2   115  ASN115      0.2629
     61  OD1      -22.8590   35.3950   18.0480 O.2   115  ASN115     -0.2716
     62  ND2      -23.5570   33.5580   19.1070 N.am  115  ASN115     -0.0877
     63  N        -16.7480   37.8030   17.6810 N.3   118  ASP118     -0.1225
     64  CA       -16.9810   38.7450   18.7750 C.3   118  ASP118      0.1805
     65  C        -16.2540   38.3360   20.0620 C.2   118  ASP118      0.2598
     66  O        -15.7640   39.1930   20.8090 O.2   118  ASP118     -0.2718
     67  CB       -18.4840   38.9080   19.0530 C.3   118  ASP118      0.1424
     68  CG       -19.2210   39.5680   17.9020 C.2   118  ASP118      0.3668
     69  OD1      -18.5510   40.1620   17.0380 O.co2 118  ASP118     -0.2456
     70  OD2      -20.4680   39.5000   17.8570 O.co2 118  ASP118     -0.2456
     71  N        -16.1860   37.0280   20.3170 N.am  119  THR119     -0.1953
     72  CA       -15.4910   36.5280   21.4930 C.3   119  THR119      0.1897
     73  C        -13.9730   36.7890   21.3990 C.2   119  THR119      0.2313
     74  O        -13.3860   37.3200   22.3440 O.2   119  THR119     -0.2863
     75  CB       -15.8300   35.0550   21.7790 C.3   119  THR119      0.1794
     76  OG1      -17.2520   34.9080   21.8730 O.3   119  THR119     -0.2208
     77  CG2      -15.2210   34.6070   23.0810 C.3   119  THR119      0.0378
     78  N        -13.5420   40.6690   22.0900 N.3   122  ARG122     -0.1245
     79  CA       -13.7430   41.0340   23.4820 C.3   122  ARG122      0.1563
     80  C        -12.6130   40.5380   24.3810 C.2   122  ARG122      0.2260
     81  O        -12.3010   41.1630   25.3900 O.2   122  ARG122     -0.2867
     82  CB       -15.0880   40.4950   23.9920 C.3   122  ARG122      0.0307
     83  CG       -16.3090   41.2340   23.4520 C.3   122  ARG122      0.0489
     84  CD       -17.5840   40.8490   24.2110 C.3   122  ARG122      0.2205
     85  NE       -18.0800   39.5370   23.8070 N.pl3 122  ARG122     -0.0865
     86  CZ       -17.8280   38.4010   24.4530 C.cat 122  ARG122      0.5346
     87  NH1      -17.0910   38.4090   25.5570 N.pl3 122  ARG122      0.1354
     88  NH2      -18.3180   37.2540   23.9930 N.pl3 122  ARG122      0.1354
     89  N        -24.5330   39.0420    6.2050 N.3   163  GLU163     -0.1245
     90  CA       -23.9930   38.9460    7.5520 C.3   163  GLU163      0.1567
     91  C        -22.6600   38.2100    7.4970 C.2   163  GLU163      0.2260
     92  O        -21.7250   38.5330    8.2200 O.2   163  GLU163     -0.2867
     93  CB       -24.9610   38.2330    8.5090 C.3   163  GLU163      0.0388
     94  CG       -24.4230   38.1100    9.9470 C.3   163  GLU163      0.1160
     95  CD       -25.2200   37.1080   10.8210 C.2   163  GLU163      0.3649
     96  OE1      -26.0250   36.3220   10.2740 O.co2 163  GLU163     -0.2457
     97  OE2      -25.0400   37.1020   12.0600 O.co2 163  GLU163     -0.2457
@<TRIPOS>BOND
     1    89    90    1
     2    91    90    1
     3    91    92    2
     4    90    93    1
     5    93    94    1
     6    94    95    1
     7    96    95   ar
     8    95    97   ar
     9    54    52    1
    10    35    36    1
    11    52    51    2
    12    52    53    1
    13    51    50    1
    14    44    45    1
    15    36    39    1
    16    36    37    1
    17    48    45    1
    18    48    49    1
    19    45    46    1
    20    39    40    1
    21    37    38    2
    22    49    50    1
    23    42    41   ar
    24    40    41    1
    25    46    47    2
    26    46    55   am
    27    41    43   ar
    28    55    56    1
    29    69    68   ar
    30    63    64    1
    31    70    68   ar
    32    68    67    1
    33    61    60    2
    34    56    57    1
    35    56    59    1
    36    57    58    2
    37     6     5    1
    38     6     7    1
    39    60    59    1
    40    60    62   am
    41    64    67    1
    42    64    65    1
    43     5     2    1
    44     1     2    1
    45     2     3    1
    46    17    15    1
    47     7     9   am
    48     7     8    2
    49    65    71   am
    50    65    66    2
    51    71    72    1
    52    15    14    1
    53     3     4    2
    54    73    72    1
    55    73    74    2
    56    72    75    1
    57    75    76    1
    58    75    77    1
    59    78    79    1
    60    14    16    1
    61    14    11    1
    62    11    10    1
    63    11    12    1
    64    83    82    1
    65    83    84    1
    66    79    82    1
    67    79    80    1
    68    85    84    1
    69    85    86    2
    70    88    86    1
    71    80    81    2
    72    86    87    1
    73    12    13    2
    74    12    18   am
    75    18    19    1
    76    33    32    1
    77    34    32    1
    78    32    31    1
    79    19    22    1
    80    19    20    1
    81    26    25    1
    82    22    23    1
    83    24    23    1
    84    24    25    1
    85    20    21    2
    86    31    28    1
    87    27    28    1
    88    28    29    1
    89    29    30    2
