@<TRIPOS>MOLECULE
tmp/4dlpA00.pdb
 121 119 0 0 0
SMALL
GASTEIGER

@<TRIPOS>ATOM
      1  N         -7.3960  -10.0030   42.7420 N.3     9  ALA9       -0.1231
      2  CA        -8.5700  -10.0680   43.6210 C.3     9  ALA9        0.1694
      3  C         -9.3890  -11.2840   43.1900 C.2     9  ALA9        0.2592
      4  O         -9.3620  -11.6720   42.0260 O.2     9  ALA9       -0.2718
      5  CB        -9.4220   -8.8090   43.5180 C.3     9  ALA9        0.0304
      6  N        -10.1050  -11.8730   44.1250 N.am   10  ILE10      -0.1966
      7  CA       -10.9660  -12.9780   43.8120 C.3    10  ILE10       0.1727
      8  C        -12.4080  -12.4340   43.6750 C.2    10  ILE10       0.2616
      9  O        -12.9620  -11.8820   44.5990 O.2    10  ILE10      -0.2715
     10  CB       -10.8210  -14.1180   44.8560 C.3    10  ILE10       0.0290
     11  CG1      -11.0460  -13.6350   46.2860 C.3    10  ILE10       0.0022
     12  CG2       -9.3950  -14.6930   44.8240 C.3    10  ILE10       0.0023
     13  CD1      -10.9930  -14.7700   47.2810 C.3    10  ILE10       0.0001
     14  N        -13.0010  -12.5750   42.4940 N.am   11  ALA11      -0.1963
     15  CA       -14.3050  -11.9730   42.2250 C.3    11  ALA11       0.1728
     16  C        -15.4330  -12.7380   42.8870 C.2    11  ALA11       0.2616
     17  O        -15.3750  -13.9830   43.0320 O.2    11  ALA11      -0.2715
     18  CB       -14.5430  -11.8930   40.7390 C.3    11  ALA11       0.0334
     19  N        -16.4550  -11.9840   43.3120 N.am   12  TYR12      -0.1974
     20  CA       -17.7400  -12.5870   43.6820 C.3    12  TYR12       0.1639
     21  C        -18.3470  -13.1580   42.4080 C.2    12  TYR12       0.2290
     22  O        -18.4670  -12.4360   41.4280 O.2    12  TYR12      -0.2864
     23  CB       -18.6950  -11.5500   44.2420 C.3    12  TYR12       0.0560
     24  CG       -18.3420  -10.9600   45.5860 C.ar   12  TYR12      -0.0198
     25  CD1      -18.2510   -9.5850   45.7440 C.ar   12  TYR12      -0.0009
     26  CD2      -18.1400  -11.7540   46.6940 C.ar   12  TYR12      -0.0009
     27  CE1      -17.9320   -9.0220   46.9670 C.ar   12  TYR12       0.0417
     28  CE2      -17.8180  -11.1970   47.9140 C.ar   12  TYR12       0.0417
     29  CZ       -17.7210   -9.8270   48.0500 C.ar   12  TYR12       0.1957
     30  OH       -17.4110   -9.2320   49.2680 O.3    12  TYR12      -0.2866
     31  N        -13.2410   -7.9400   35.4140 N.3    21  HIS21      -0.1241
     32  CA       -12.5730   -9.1980   35.7920 C.3    21  HIS21       0.1621
     33  C        -11.5710   -9.6410   34.7350 C.2    21  HIS21       0.2264
     34  O        -10.4820  -10.0870   35.0470 O.2    21  HIS21      -0.2867
     35  CB       -13.5860  -10.3250   35.9830 C.3    21  HIS21       0.0745
     36  CG       -14.7370  -10.0050   36.9360 C.ar   21  HIS21       0.0817
     37  ND1      -16.0390  -10.1060   36.5590 N.ar   21  HIS21      -0.2268
     38  CD2      -14.7500   -9.6400   38.2830 C.ar   21  HIS21       0.1154
     39  CE1      -16.8370   -9.8020   37.5960 C.ar   21  HIS21       0.1986
     40  NE2      -16.0530   -9.5040   38.6530 N.ar   21  HIS21      -0.2212
     41  N        -14.4830  -15.5880   45.2470 N.3    49  ASP49      -0.1239
     42  CA       -14.9410  -15.2980   46.6140 C.3    49  ASP49       0.1674
     43  C        -16.4120  -15.6660   46.6950 C.2    49  ASP49       0.2266
     44  O        -17.2500  -14.9230   46.2040 O.2    49  ASP49      -0.2867
     45  CB       -14.7540  -13.7980   46.8590 C.3    49  ASP49       0.1410
     46  CG       -14.9830  -13.3800   48.2880 C.2    49  ASP49       0.3668
     47  OD1      -15.3150  -14.2290   49.1870 O.co2  49  ASP49      -0.2456
     48  OD2      -14.8140  -12.1640   48.5160 O.co2  49  ASP49      -0.2456
     49  N        -14.8170  -10.3420   54.3380 N.3   226  TRP226     -0.1241
     50  CA       -13.4730   -9.8630   54.0160 C.3   226  TRP226      0.1605
     51  C        -12.3500  -10.5950   54.7430 C.2   226  TRP226      0.2264
     52  O        -11.2650  -10.7700   54.1630 O.2   226  TRP226     -0.2867
     53  CB       -13.3850   -8.3600   54.2340 C.3   226  TRP226      0.0550
     54  CG       -13.8780   -7.6240   53.0380 C.ar  226  TRP226      0.0003
     55  CD1      -15.0900   -7.0070   52.8720 C.ar  226  TRP226      0.0946
     56  CD2      -13.2330   -7.5210   51.7410 C.ar  226  TRP226      0.0152
     57  NE1      -15.1980   -6.4840   51.6130 N.ar  226  TRP226     -0.2442
     58  CE2      -14.1420   -6.7610   50.8890 C.ar  226  TRP226      0.0810
     59  CE3      -12.0260   -7.9300   51.2320 C.ar  226  TRP226      0.0012
     60  CZ2      -13.8370   -6.4360   49.5750 C.ar  226  TRP226      0.0191
     61  CZ3      -11.7010   -7.5930   49.9090 C.ar  226  TRP226      0.0001
     62  CH2      -12.5890   -6.8610   49.0940 C.ar  226  TRP226      0.0015
     63  N        -12.1830  -13.6540   52.8220 N.3   229  ALA229     -0.1231
     64  CA       -11.7100  -13.4320   51.4530 C.3   229  ALA229      0.1694
     65  C        -10.2130  -13.1730   51.3800 C.2   229  ALA229      0.2591
     66  O         -9.5260  -13.7570   50.5400 O.2   229  ALA229     -0.2718
     67  CB       -12.4590  -12.2980   50.8100 C.3   229  ALA229      0.0304
     68  N         -9.6980  -12.2920   52.2490 N.am  230  LEU230     -0.1980
     69  CA        -8.2650  -11.9060   52.1990 C.3   230  LEU230      0.1596
     70  C         -7.3500  -13.1020   52.4350 C.2   230  LEU230      0.2287
     71  O         -6.2920  -13.2280   51.8120 O.2   230  LEU230     -0.2864
     72  CB        -7.9650  -10.7630   53.1790 C.3   230  LEU230      0.0297
     73  CG        -8.5780   -9.4260   52.7160 C.3   230  LEU230      0.0022
     74  CD1       -8.7640   -8.5140   53.9130 C.3   230  LEU230      0.0001
     75  CD2       -7.7870   -8.7720   51.5500 C.3   230  LEU230      0.0001
     76  N         -7.5740  -15.9340   51.3120 N.3   232  ASN232     -0.1225
     77  CA        -7.3460  -16.6740   50.0700 C.3   232  ASN232      0.1785
     78  C         -5.8620  -16.6300   49.6810 C.2   232  ASN232      0.2597
     79  O         -5.2730  -17.6520   49.3180 O.2   232  ASN232     -0.2718
     80  CB        -8.2560  -16.1730   48.9280 C.3   232  ASN232      0.1169
     81  CG        -7.5530  -15.2010   47.9750 C.2   232  ASN232      0.2627
     82  OD1       -6.9330  -15.6250   47.0090 O.2   232  ASN232     -0.2716
     83  ND2       -7.6920  -13.9090   48.2110 N.am  232  ASN232     -0.0877
     84  N         -5.2380  -15.4640   49.8360 N.am  233  TYR233     -0.1976
     85  CA        -3.8710  -15.2900   49.3810 C.3   233  TYR233      0.1639
     86  C         -2.8550  -16.1850   50.0950 C.2   233  TYR233      0.2290
     87  O         -1.8340  -16.5470   49.4860 O.2   233  TYR233     -0.2864
     88  CB        -3.4410  -13.8360   49.5110 C.3   233  TYR233      0.0560
     89  CG        -4.3060  -12.8330   48.7940 C.ar  233  TYR233     -0.0198
     90  CD1       -4.5950  -12.9680   47.4570 C.ar  233  TYR233     -0.0009
     91  CD2       -4.7960  -11.7290   49.4520 C.ar  233  TYR233     -0.0009
     92  CE1       -5.3970  -12.0520   46.8060 C.ar  233  TYR233      0.0417
     93  CE2       -5.5720  -10.8030   48.8060 C.ar  233  TYR233      0.0417
     94  CZ        -5.8540  -10.9610   47.4870 C.ar  233  TYR233      0.1957
     95  OH        -6.6140  -10.0210   46.8620 O.3   233  TYR233     -0.2866
     96  N        -11.6690    0.2350   44.1530 N.3   260  ASP260     -0.1225
     97  CA       -12.7890    0.1980   45.0940 C.3   260  ASP260      0.1805
     98  C        -12.5270   -0.7070   46.3100 C.2   260  ASP260      0.2597
     99  O        -13.3260   -0.7030   47.2400 O.2   260  ASP260     -0.2718
    100  CB       -14.0780   -0.2700   44.3860 C.3   260  ASP260      0.1424
    101  CG       -13.9200   -1.6540   43.7000 C.2   260  ASP260      0.3668
    102  OD1      -12.8280   -1.9350   43.0770 O.co2 260  ASP260     -0.2456
    103  OD2      -14.9020   -2.4520   43.7860 O.co2 260  ASP260     -0.2456
    104  N        -11.4500   -1.4970   46.3090 N.am  261  ILE261     -0.1980
    105  CA       -11.1940   -2.3860   47.4390 C.3   261  ILE261      0.1595
    106  C         -9.8020   -2.2020   48.0620 C.2   261  ILE261      0.2287
    107  O         -9.2780   -3.0920   48.7200 O.2   261  ILE261     -0.2864
    108  CB       -11.4940   -3.8610   47.0750 C.3   261  ILE261      0.0276
    109  CG1      -10.5990   -4.3850   45.9370 C.3   261  ILE261      0.0022
    110  CG2      -12.9600   -4.0460   46.7080 C.3   261  ILE261      0.0022
    111  CD1      -10.8180   -5.8670   45.6200 C.3   261  ILE261      0.0001
    112  N         -7.2610   -4.1130   51.4940 N.3   265  HIS265     -0.1241
    113  CA        -5.9660   -4.7050   51.2220 C.3   265  HIS265      0.1621
    114  C         -4.8220   -3.9360   51.8040 C.2   265  HIS265      0.2264
    115  O         -3.7630   -4.5180   52.0480 O.2   265  HIS265     -0.2867
    116  CB        -5.7540   -4.8130   49.7430 C.3   265  HIS265      0.0745
    117  CG        -6.5290   -5.8990   49.0980 C.ar  265  HIS265      0.0817
    118  ND1       -7.8200   -5.7380   48.7010 N.ar  265  HIS265     -0.2268
    119  CD2       -6.1500   -7.1820   48.7190 C.ar  265  HIS265      0.1154
    120  CE1       -8.2460   -6.8840   48.1390 C.ar  265  HIS265      0.1986
    121  NE2       -7.2270   -7.7600   48.1460 N.ar  265  HIS265     -0.2212
@<TRIPOS>BOND
     1    33    34    2
     2    33    32    1
     3    31    32    1
     4    32    35    1
     5    35    36    1
     6    37    36   ar
     7    37    39   ar
     8    36    38   ar
     9    39    40   ar
    10    38    40   ar
    11    18    15    1
    12    22    21    2
    13     4     3    2
    14    15    14    1
    15    15    16    1
    16    21    20    1
    17    14     8   am
    18     1     2    1
    19    16    17    2
    20    16    19   am
    21   102   101   ar
    22     3     2    1
    23     3     6   am
    24    19    20    1
    25     5     2    1
    26     8     7    1
    27     8     9    2
    28    20    23    1
    29   101   103   ar
    30   101   100    1
    31     7     6    1
    32     7    10    1
    33    96    97    1
    34    23    24    1
    35   100    97    1
    36    12    10    1
    37    10    11    1
    38    97    98    1
    39    41    42    1
    40    24    25   ar
    41    24    26   ar
    42   111   109    1
    43    25    27   ar
    44   109   108    1
    45    44    43    2
    46    11    13    1
    47   104    98   am
    48   104   105    1
    49    98    99    2
    50    42    43    1
    51    42    45    1
    52    26    28   ar
    53   110   108    1
    54    92    90   ar
    55    92    94   ar
    56    45    46    1
    57    95    94    1
    58    27    29   ar
    59    82    81    2
    60   108   105    1
    61   105   106    1
    62    90    89   ar
    63    94    93   ar
    64    28    29   ar
    65    81    83   am
    66    81    80    1
    67    29    30    1
    68   106   107    2
    69   120   121   ar
    70   120   118   ar
    71   121   119   ar
    72    46    48   ar
    73    46    47   ar
    74   118   117   ar
    75   119   117   ar
    76    89    91   ar
    77    89    88    1
    78    93    91   ar
    79    80    77    1
    80    62    60   ar
    81    62    61   ar
    82   117   116    1
    83    79    78    2
    84    85    88    1
    85    85    84    1
    86    85    86    1
    87    87    86    2
    88    60    58   ar
    89    78    84   am
    90    78    77    1
    91   116   113    1
    92    61    59   ar
    93    77    76    1
    94    66    65    2
    95    67    64    1
    96    58    57   ar
    97    58    56   ar
    98   113   112    1
    99   113   114    1
   100    59    56   ar
   101    65    64    1
   102    65    68   am
   103    64    63    1
   104    75    73    1
   105    57    55   ar
   106    56    54   ar
   107   114   115    2
   108    71    70    2
   109    69    68    1
   110    69    70    1
   111    69    72    1
   112    73    72    1
   113    73    74    1
   114    55    54   ar
   115    54    53    1
   116    50    53    1
   117    50    49    1
   118    50    51    1
   119    52    51    2
