@<TRIPOS>MOLECULE
tmp/4dlpB00.pdb
 121 119 0 0 0
SMALL
GASTEIGER

@<TRIPOS>ATOM
      1  N          4.8250  -48.1100   71.8420 N.3    10  ALA10      -0.1231
      2  CA         4.9740  -48.2050   73.2980 C.3    10  ALA10       0.1694
      3  C          4.0950  -49.3810   73.7770 C.2    10  ALA10       0.2592
      4  O          3.0950  -49.7240   73.1410 O.2    10  ALA10      -0.2718
      5  CB         4.5220  -46.9160   73.9800 C.3    10  ALA10       0.0304
      6  N          4.4690  -49.9640   74.8990 N.am   11  ILE11      -0.1966
      7  CA         3.6740  -50.9990   75.5020 C.3    11  ILE11       0.1727
      8  C          2.9240  -50.4010   76.6830 C.2    11  ILE11       0.2616
      9  O          3.5250  -49.9060   77.6340 O.2    11  ILE11      -0.2715
     10  CB         4.5370  -52.2110   75.8760 C.3    11  ILE11       0.0290
     11  CG1        5.7440  -51.8510   76.7500 C.3    11  ILE11       0.0022
     12  CG2        5.0930  -52.8280   74.6110 C.3    11  ILE11       0.0023
     13  CD1        6.4950  -53.1020   77.1440 C.3    11  ILE11       0.0001
     14  N          1.6010  -50.3900   76.5980 N.am   12  ALA12      -0.1963
     15  CA         0.7820  -49.6910   77.6050 C.3    12  ALA12       0.1728
     16  C          0.7450  -50.4890   78.9090 C.2    12  ALA12       0.2616
     17  O          0.7840  -51.7520   78.9190 O.2    12  ALA12      -0.2715
     18  CB        -0.6340  -49.4650   77.0740 C.3    12  ALA12       0.0334
     19  N          0.6820  -49.7590   80.0150 N.am   13  TYR13      -0.1974
     20  CA         0.3030  -50.3580   81.2850 C.3    13  TYR13       0.1639
     21  C         -1.1450  -50.7930   81.1430 C.2    13  TYR13       0.2290
     22  O         -2.0020  -49.9790   80.8190 O.2    13  TYR13      -0.2864
     23  CB         0.3830  -49.3540   82.4210 C.3    13  TYR13       0.0560
     24  CG         1.7610  -48.9010   82.7950 C.ar   13  TYR13      -0.0198
     25  CD1        2.0750  -47.5490   82.8310 C.ar   13  TYR13      -0.0009
     26  CD2        2.7320  -49.8140   83.1900 C.ar   13  TYR13      -0.0009
     27  CE1        3.3230  -47.1080   83.2100 C.ar   13  TYR13       0.0417
     28  CE2        3.9940  -49.3850   83.5760 C.ar   13  TYR13       0.0417
     29  CZ         4.2850  -48.0180   83.5780 C.ar   13  TYR13       0.1957
     30  OH         5.5400  -47.5500   83.9630 O.3    13  TYR13      -0.2866
     31  N         -4.2860  -45.1830   73.1670 N.3    22  HIS22      -0.1241
     32  CA        -3.7060  -46.4820   72.8320 C.3    22  HIS22       0.1621
     33  C         -4.1320  -46.8900   71.4300 C.2    22  HIS22       0.2264
     34  O         -3.3600  -47.4430   70.6490 O.2    22  HIS22      -0.2867
     35  CB        -4.1620  -47.5700   73.8040 C.3    22  HIS22       0.0745
     36  CG        -3.9100  -47.2860   75.2820 C.ar   22  HIS22       0.0817
     37  ND1       -4.9030  -47.3060   76.2050 N.ar   22  HIS22      -0.2268
     38  CD2       -2.7220  -47.0670   75.9980 C.ar   22  HIS22       0.1154
     39  CE1       -4.3810  -47.0750   77.4330 C.ar   22  HIS22       0.1986
     40  NE2       -3.0570  -46.9340   77.3100 N.ar   22  HIS22      -0.2212
     41  N          3.0000  -53.6030   79.2160 N.3    50  ASP50      -0.1239
     42  CA         3.9630  -53.4170   80.3010 C.3    50  ASP50       0.1674
     43  C          3.2600  -53.7350   81.6260 C.2    50  ASP50       0.2266
     44  O          2.4720  -52.9470   82.1050 O.2    50  ASP50      -0.2867
     45  CB         4.4090  -51.9510   80.2930 C.3    50  ASP50       0.1410
     46  CG         5.5620  -51.6600   81.2090 C.2    50  ASP50       0.3668
     47  OD1        6.0750  -52.5610   81.9150 O.co2  50  ASP50      -0.2456
     48  OD2        5.9440  -50.4830   81.2400 O.co2  50  ASP50      -0.2456
     49  N         10.9870  -49.2990   84.1450 N.3   198  TRP198     -0.1241
     50  CA        11.4140  -48.8040   82.8370 C.3   198  TRP198      0.1605
     51  C         12.5700  -49.5850   82.2200 C.2   198  TRP198      0.2264
     52  O         12.6310  -49.7190   80.9840 O.2   198  TRP198     -0.2867
     53  CB        11.7400  -47.3120   82.9080 C.3   198  TRP198      0.0550
     54  CG        10.5090  -46.4690   82.7180 C.ar  198  TRP198      0.0003
     55  CD1        9.7930  -45.7990   83.6830 C.ar  198  TRP198      0.0946
     56  CD2        9.7870  -46.2170   81.4650 C.ar  198  TRP198      0.0152
     57  NE1        8.7290  -45.1400   83.1220 N.ar  198  TRP198     -0.2442
     58  CE2        8.6760  -45.3600   81.8000 C.ar  198  TRP198      0.0810
     59  CE3        9.9630  -46.6060   80.1480 C.ar  198  TRP198      0.0012
     60  CZ2        7.7770  -44.9290   80.8610 C.ar  198  TRP198      0.0191
     61  CZ3        9.0530  -46.1540   79.1840 C.ar  198  TRP198      0.0001
     62  CH2        7.9810  -45.3340   79.5360 C.ar  198  TRP198      0.0015
     63  N         10.7480  -52.4930   81.0420 N.3   201  ALA201     -0.1231
     64  CA         9.8480  -52.1200   79.9480 C.3   201  ALA201      0.1694
     65  C         10.5820  -51.8980   78.6170 C.2   201  ALA201      0.2591
     66  O         10.1690  -52.4450   77.5650 O.2   201  ALA201     -0.2718
     67  CB         9.0500  -50.8870   80.3050 C.3   201  ALA201      0.0304
     68  N         11.6730  -51.1300   78.6440 N.am  202  LEU202     -0.1980
     69  CA        12.3880  -50.7870   77.3950 C.3   202  LEU202      0.1596
     70  C         12.9620  -52.0300   76.6780 C.2   202  LEU202      0.2287
     71  O         12.9370  -52.1360   75.4460 O.2   202  LEU202     -0.2864
     72  CB        13.4730  -49.7360   77.6410 C.3   202  LEU202      0.0297
     73  CG        12.9150  -48.3630   77.9610 C.3   202  LEU202      0.0022
     74  CD1       13.9840  -47.5560   78.6440 C.3   202  LEU202      0.0001
     75  CD2       12.4110  -47.6640   76.7120 C.3   202  LEU202      0.0001
     76  N         11.6440  -54.7320   76.2420 N.3   204  ASN204     -0.1225
     77  CA        10.6330  -55.4010   75.4320 C.3   204  ASN204      0.1785
     78  C         11.0660  -55.3760   73.9660 C.2   204  ASN204      0.2597
     79  O         10.9420  -56.3590   73.2540 O.2   204  ASN204     -0.2718
     80  CB         9.2200  -54.7910   75.6590 C.3   204  ASN204      0.1169
     81  CG         8.8200  -53.7700   74.6100 C.2   204  ASN204      0.2627
     82  OD1        8.2610  -54.1240   73.5520 O.2   204  ASN204     -0.2716
     83  ND2        9.0970  -52.4800   74.8970 N.am  204  ASN204     -0.0877
     84  N         11.6160  -54.2520   73.5250 N.am  205  TYR205     -0.1976
     85  CA        11.8980  -54.0740   72.1130 C.3   205  TYR205      0.1639
     86  C         12.9510  -55.0400   71.5630 C.2   205  TYR205      0.2290
     87  O         12.9020  -55.3870   70.3840 O.2   205  TYR205     -0.2864
     88  CB        12.3350  -52.6370   71.8380 C.3   205  TYR205      0.0560
     89  CG        11.3620  -51.5670   72.2420 C.ar  205  TYR205     -0.0198
     90  CD1       10.0430  -51.5890   71.8100 C.ar  205  TYR205     -0.0009
     91  CD2       11.7880  -50.4840   72.9840 C.ar  205  TYR205     -0.0009
     92  CE1        9.1620  -50.5830   72.1530 C.ar  205  TYR205      0.0417
     93  CE2       10.9290  -49.4600   73.3260 C.ar  205  TYR205      0.0417
     94  CZ         9.6190  -49.5170   72.9170 C.ar  205  TYR205      0.1957
     95  OH         8.7790  -48.4840   73.2660 O.3   205  TYR205     -0.2866
     96  N          4.7980  -37.8970   76.3220 N.3   232  ASP232     -0.1225
     97  CA         5.0500  -37.9710   77.7660 C.3   232  ASP232      0.1805
     98  C          6.1540  -38.9580   78.1450 C.2   232  ASP232      0.2597
     99  O          6.5840  -38.9640   79.2910 O.2   232  ASP232     -0.2718
    100  CB         3.7580  -38.3530   78.5030 C.3   232  ASP232      0.1424
    101  CG         3.1310  -39.6970   77.9860 C.2   232  ASP232      0.3668
    102  OD1        3.0710  -39.9290   76.7300 O.co2 232  ASP232     -0.2456
    103  OD2        2.6800  -40.5000   78.8540 O.co2 232  ASP232     -0.2456
    104  N          6.6050  -39.8000   77.2140 N.am  233  ILE233     -0.1980
    105  CA         7.6240  -40.7780   77.5490 C.3   233  ILE233      0.1595
    106  C          8.8900  -40.7090   76.6700 C.2   233  ILE233      0.2287
    107  O          9.6400  -41.6830   76.5410 O.2   233  ILE233     -0.2864
    108  CB         7.0180  -42.2020   77.6100 C.3   233  ILE233      0.0276
    109  CG1        6.4470  -42.6460   76.2450 C.3   233  ILE233      0.0022
    110  CG2        5.9770  -42.2610   78.7140 C.3   233  ILE233      0.0022
    111  CD1        5.9620  -44.1000   76.1950 C.3   233  ILE233      0.0001
    112  N         12.9590  -42.9980   76.2020 N.3   237  HIS237     -0.1241
    113  CA        13.3190  -43.6000   74.9130 C.3   237  HIS237      0.1621
    114  C         14.4870  -42.9370   74.2320 C.2   237  HIS237      0.2264
    115  O         15.1760  -43.5820   73.4500 O.2   237  HIS237     -0.2867
    116  CB        12.1230  -43.5840   73.9680 C.3   237  HIS237      0.0745
    117  CG        11.0700  -44.5860   74.3020 C.ar  237  HIS237      0.0817
    118  ND1       10.0880  -44.3380   75.1720 N.ar  237  HIS237     -0.2268
    119  CD2       10.8370  -45.8800   73.8020 C.ar  237  HIS237      0.1154
    120  CE1        9.2830  -45.4460   75.2800 C.ar  237  HIS237      0.1986
    121  NE2        9.7430  -46.3830   74.4450 N.ar  237  HIS237     -0.2212
@<TRIPOS>BOND
     1    87    86    2
     2    34    33    2
     3    33    32    1
     4    86    85    1
     5    90    92   ar
     6    90    89   ar
     7    88    85    1
     8    88    89    1
     9     1     2    1
    10    85    84    1
    11    92    94   ar
    12    89    91   ar
    13    32    31    1
    14    32    35    1
    15    94    95    1
    16    94    93   ar
    17    91    93   ar
    18     4     3    2
    19    79    78    2
    20     2     3    1
    21     2     5    1
    22   115   114    2
    23    84    78   am
    24    82    81    2
    25     3     6   am
    26   119   117   ar
    27   119   121   ar
    28    35    36    1
    29    78    77    1
    30   116   117    1
    31   116   113    1
    32   114   113    1
    33   117   118   ar
    34   121   120   ar
    35    81    83   am
    36    81    80    1
    37    12    10    1
    38     6     7    1
    39   113   112    1
    40   118   120   ar
    41    36    38   ar
    42    36    37   ar
    43    77    80    1
    44    77    76    1
    45    71    70    2
    46     7    10    1
    47     7     8    1
    48    10    11    1
    49    38    40   ar
    50   111   109    1
    51    37    39   ar
    52   109   108    1
    53    96    97    1
    54   107   106    2
    55    14     8   am
    56    14    15    1
    57   106   105    1
    58    70    69    1
    59     8     9    2
    60    75    73    1
    61   102   101   ar
    62    11    13    1
    63    18    15    1
    64   104   105    1
    65   104    98   am
    66    40    39   ar
    67    69    72    1
    68    69    68    1
    69   105   108    1
    70    66    65    2
    71    15    16    1
    72   108   110    1
    73    72    73    1
    74    97    98    1
    75    97   100    1
    76    73    74    1
    77   101   100    1
    78   101   103   ar
    79    98    99    2
    80    65    68   am
    81    65    64    1
    82    16    17    2
    83    16    19   am
    84    61    62   ar
    85    61    59   ar
    86    41    42    1
    87    62    60   ar
    88    64    67    1
    89    64    63    1
    90    19    20    1
    91    59    56   ar
    92    45    42    1
    93    45    46    1
    94    42    43    1
    95    22    21    2
    96    60    58   ar
    97    52    51    2
    98    21    20    1
    99    46    48   ar
   100    46    47   ar
   101    20    23    1
   102    56    58   ar
   103    56    54   ar
   104    43    44    2
   105    58    57   ar
   106    51    50    1
   107    23    24    1
   108    54    53    1
   109    54    55   ar
   110    24    25   ar
   111    24    26   ar
   112    25    27   ar
   113    50    53    1
   114    50    49    1
   115    57    55   ar
   116    26    28   ar
   117    27    29   ar
   118    28    29   ar
   119    29    30    1
