@<TRIPOS>MOLECULE
tmp/4dlqA04.pdb
 81 77 0 0 0
SMALL
GASTEIGER

@<TRIPOS>ATOM
      1  N         67.3570   11.1220   -5.9620 N.3   261  LYS261     -0.1231
      2  CA        68.6390   10.5250   -5.5790 C.3   261  LYS261      0.1693
      3  C         69.7940   11.4300   -6.0110 C.2   261  LYS261      0.2592
      4  O         70.0670   11.5530   -7.2060 O.2   261  LYS261     -0.2718
      5  CB        68.8020    9.1500   -6.2300 C.3   261  LYS261      0.0285
      6  CG        67.5550    8.2720   -6.1620 C.3   261  LYS261      0.0035
      7  CD        67.0420    8.1330   -4.7330 C.3   261  LYS261      0.0206
      8  CE        65.7460    7.3340   -4.6790 C.3   261  LYS261      0.1093
      9  NZ        65.1090    7.4150   -3.3340 N.3   261  LYS261     -0.1314
     10  N         70.4620   12.0630   -5.0490 N.am  262  LEU262     -0.1966
     11  CA        71.5820   12.9620   -5.3560 C.3   262  LEU262      0.1728
     12  C         72.9320   12.2500   -5.4130 C.2   262  LEU262      0.2616
     13  O         73.2740   11.4870   -4.5120 O.2   262  LEU262     -0.2715
     14  CB        71.6740   14.0780   -4.3100 C.3   262  LEU262      0.0311
     15  CG        70.4620   14.9890   -4.1630 C.3   262  LEU262      0.0022
     16  CD1       70.6380   15.9200   -2.9540 C.3   262  LEU262      0.0001
     17  CD2       70.2360   15.7740   -5.4510 C.3   262  LEU262      0.0001
     18  N         73.7040   12.5350   -6.4590 N.am  263  ALA263     -0.1977
     19  CA        75.0440   11.9790   -6.6070 C.3   263  ALA263      0.1597
     20  C         76.1160   12.9750   -6.1720 C.2   263  ALA263      0.2287
     21  O         77.3040   12.7670   -6.4260 O.2   263  ALA263     -0.2864
     22  CB        75.2840   11.5480   -8.0420 C.3   263  ALA263      0.0319
     23  N         72.0800   17.1660  -11.4580 N.3   314  ASN314     -0.1225
     24  CA        71.3530   16.0410  -10.8770 C.3   314  ASN314      0.1785
     25  C         69.8630   15.9940  -11.2530 C.2   314  ASN314      0.2597
     26  O         68.9830   15.8920  -10.3920 O.2   314  ASN314     -0.2718
     27  CB        71.5000   16.0500   -9.3680 C.3   314  ASN314      0.1169
     28  CG        71.5410   14.6490   -8.7920 C.2   314  ASN314      0.2627
     29  OD1       72.6010   14.1630   -8.3930 O.2   314  ASN314     -0.2716
     30  ND2       70.3920   13.9800   -8.7740 N.am  314  ASN314     -0.0877
     31  N         69.5860   16.0810  -12.5420 N.am  315  ALA315     -0.1966
     32  CA        68.2120   15.9520  -13.0150 C.3   315  ALA315      0.1728
     33  C         67.6180   14.6330  -12.5060 C.2   315  ALA315      0.2616
     34  O         68.2560   13.5690  -12.5890 O.2   315  ALA315     -0.2715
     35  CB        68.1870   15.9880  -14.5320 C.3   315  ALA315      0.0334
     36  N         66.4020   14.7020  -11.9800 N.am  316  ASN316     -0.1958
     37  CA        65.6630   13.4990  -11.6110 C.3   316  ASN316      0.1819
     38  C         64.2340   13.5400  -12.1490 C.2   316  ASN316      0.2621
     39  O         63.4850   14.4900  -11.8740 O.2   316  ASN316     -0.2715
     40  CB        65.6380   13.3200  -10.0920 C.3   316  ASN316      0.1195
     41  CG        66.6330   12.2600   -9.6290 C.2   316  ASN316      0.2630
     42  OD1       66.4720   11.6620   -8.5700 O.2   316  ASN316     -0.2716
     43  ND2       67.6500   12.0060  -10.4690 N.am  316  ASN316     -0.0877
     44  N         63.8720   12.5080  -12.9050 N.am  317  CYS317     -0.1968
     45  CA        62.5330   12.3770  -13.4830 C.3   317  CYS317      0.1712
     46  C         61.5380   12.0230  -12.3910 C.2   317  CYS317      0.2296
     47  O         61.7370   11.0390  -11.6610 O.2   317  CYS317     -0.2864
     48  CB        62.5480   11.2680  -14.5470 C.3   317  CYS317      0.0983
     49  SG        63.7670   11.6050  -15.8510 S.3   317  CYS317     -0.0798
     50  N         60.1070    9.7310   -7.4750 N.3   333  THR333     -0.1218
     51  CA        60.8300    9.1910   -8.6200 C.3   333  THR333      0.1862
     52  C         60.4510    7.7340   -8.8700 C.2   333  THR333      0.2287
     53  O         61.0040    7.1020   -9.7630 O.2   333  THR333     -0.2866
     54  CB        62.3580    9.2670   -8.4140 C.3   333  THR333      0.1770
     55  OG1       62.7010    8.5970   -7.1930 O.3   333  THR333     -0.2211
     56  CG2       62.7990   10.7160   -8.3030 C.3   333  THR333      0.0375
     57  N         59.9890    5.9390  -12.3650 N.3   336  CYS336     -0.1221
     58  CA        60.5510    6.8240  -13.3980 C.3   336  CYS336      0.1808
     59  C         62.0460    6.5810  -13.5960 C.2   336  CYS336      0.2601
     60  O         62.7610    6.2340  -12.6580 O.2   336  CYS336     -0.2717
     61  CB        60.3150    8.2930  -13.0420 C.3   336  CYS336      0.0970
     62  SG        58.5960    8.7820  -13.1640 S.3   336  CYS336     -0.0800
     63  N         62.5130    6.7690  -14.8220 N.am  337  ARG337     -0.1965
     64  CA        63.9090    6.5210  -15.1540 C.3   337  ARG337      0.1729
     65  C         64.4430    7.5960  -16.1050 C.2   337  ARG337      0.2616
     66  O         63.7900    7.9580  -17.0860 O.2   337  ARG337     -0.2715
     67  CB        64.0510    5.1380  -15.7980 C.3   337  ARG337      0.0348
     68  CG        65.3960    4.8780  -16.4460 C.3   337  ARG337      0.0492
     69  CD        65.4660    3.4720  -17.0640 C.3   337  ARG337      0.2205
     70  NE        64.5050    3.2860  -18.1510 N.pl3 337  ARG337     -0.0865
     71  CZ        64.7560    3.5540  -19.4310 C.cat 337  ARG337      0.5346
     72  NH1       65.9420    4.0290  -19.7980 N.pl3 337  ARG337      0.1354
     73  NH2       63.8150    3.3530  -20.3460 N.pl3 337  ARG337      0.1354
     74  N         65.6370    8.0930  -15.8080 N.am  338  LEU338     -0.1977
     75  CA        66.2970    9.0510  -16.6790 C.3   338  LEU338      0.1596
     76  C         66.8060    8.3460  -17.9300 C.2   338  LEU338      0.2287
     77  O         67.5310    7.3560  -17.8430 O.2   338  LEU338     -0.2864
     78  CB        67.4440    9.7410  -15.9300 C.3   338  LEU338      0.0297
     79  CG        68.0910   10.9450  -16.6240 C.3   338  LEU338      0.0022
     80  CD1       68.6580   11.9000  -15.5960 C.3   338  LEU338      0.0001
     81  CD2       69.1820   10.4660  -17.5780 C.3   338  LEU338      0.0001
@<TRIPOS>BOND
     1    73    71    1
     2    72    71    1
     3    71    70    2
     4    70    69    1
     5    76    77    2
     6    76    75    1
     7    81    79    1
     8    66    65    2
     9    69    68    1
    10    75    78    1
    11    75    74    1
    12    79    78    1
    13    79    80    1
    14    68    67    1
    15    65    74   am
    16    65    64    1
    17    49    48    1
    18    67    64    1
    19    64    63    1
    20    63    59   am
    21    48    45    1
    22    35    32    1
    23    59    58    1
    24    59    60    2
    25    45    44    1
    26    45    46    1
    27    58    61    1
    28    58    57    1
    29    62    61    1
    30    32    31    1
    31    32    33    1
    32    44    38   am
    33    34    33    2
    34    31    25   am
    35    33    36   am
    36    46    47    2
    37    38    39    2
    38    38    37    1
    39    36    37    1
    40    37    40    1
    41    23    24    1
    42    25    24    1
    43    25    26    2
    44    24    27    1
    45    43    41   am
    46    40    41    1
    47    53    52    2
    48    41    42    2
    49    27    28    1
    50    52    51    1
    51    28    30   am
    52    28    29    2
    53    51    54    1
    54    51    50    1
    55    54    56    1
    56    54    55    1
    57    22    19    1
    58     4     3    2
    59    19    18    1
    60    19    20    1
    61    18    12   am
    62    21    20    2
    63     5     6    1
    64     5     2    1
    65     6     7    1
    66     3     2    1
    67     3    10   am
    68     1     2    1
    69    17    15    1
    70    12    11    1
    71    12    13    2
    72    11    10    1
    73    11    14    1
    74     7     8    1
    75     8     9    1
    76    14    15    1
    77    15    16    1
