@<TRIPOS>MOLECULE
tmp/4dm3A01.pdb
 133 124 0 0 0
SMALL
GASTEIGER

@<TRIPOS>ATOM
      1  N         37.5520   48.5660   15.8230 N.3    12  TYR12      -0.1241
      2  CA        36.1270   48.2860   15.9670 C.3    12  TYR12       0.1605
      3  C         35.3790   48.2450   14.6180 C.2    12  TYR12       0.2264
      4  O         34.5720   47.3450   14.3820 O.2    12  TYR12      -0.2867
      5  CB        35.4780   49.2840   16.9220 C.3    12  TYR12       0.0534
      6  CG        33.9830   49.1260   17.0440 C.ar   12  TYR12      -0.0201
      7  CD1       33.4240   48.1600   17.8840 C.ar   12  TYR12      -0.0009
      8  CD2       33.1190   49.9480   16.3260 C.ar   12  TYR12      -0.0009
      9  CE1       32.0410   48.0220   17.9920 C.ar   12  TYR12       0.0417
     10  CE2       31.7440   49.8160   16.4280 C.ar   12  TYR12       0.0417
     11  CZ        31.2090   48.8540   17.2560 C.ar   12  TYR12       0.1957
     12  OH        29.8440   48.7410   17.3490 O.3    12  TYR12      -0.2866
     13  N         33.6780   44.7970   12.8820 N.3    16  ASN16      -0.1225
     14  CA        32.2190   44.7770   12.7980 C.3    16  ASN16       0.1785
     15  C         31.6220   45.2640   11.4780 C.2    16  ASN16       0.2597
     16  O         30.4840   44.9300   11.1460 O.2    16  ASN16      -0.2718
     17  CB        31.6110   45.5430   13.9820 C.3    16  ASN16       0.1169
     18  CG        31.9330   44.8850   15.3250 C.2    16  ASN16       0.2627
     19  OD1       31.4400   43.8100   15.6260 O.2    16  ASN16      -0.2716
     20  ND2       32.7790   45.5250   16.1150 N.am   16  ASN16      -0.0877
     21  N         32.3910   46.0380   10.7200 N.am   17  TYR17      -0.1976
     22  CA        31.8390   46.6800    9.5320 C.3    17  TYR17       0.1639
     23  C         32.6690   46.4580    8.2740 C.2    17  TYR17       0.2290
     24  O         32.3840   47.0490    7.2330 O.2    17  TYR17      -0.2864
     25  CB        31.5470   48.1650    9.8030 C.3    17  TYR17       0.0560
     26  CG        30.5100   48.2950   10.8940 C.ar   17  TYR17      -0.0198
     27  CD1       30.8830   48.4740   12.2180 C.ar   17  TYR17      -0.0009
     28  CD2       29.1580   48.1610   10.6060 C.ar   17  TYR17      -0.0009
     29  CE1       29.9240   48.5560   13.2210 C.ar   17  TYR17       0.0417
     30  CE2       28.2130   48.2380   11.5850 C.ar   17  TYR17       0.0417
     31  CZ        28.5920   48.4340   12.8950 C.ar   17  TYR17       0.1957
     32  OH        27.6290   48.5140   13.8780 O.3    17  TYR17      -0.2866
     33  N         31.3810   40.3290    8.4950 N.3    21  ARG21      -0.1245
     34  CA        30.1940   40.9720    9.0670 C.3    21  ARG21       0.1563
     35  C         29.7600   42.2110    8.3150 C.2    21  ARG21       0.2260
     36  O         28.6040   42.6210    8.4090 O.2    21  ARG21      -0.2867
     37  CB        30.4180   41.3210   10.5350 C.3    21  ARG21       0.0307
     38  CG        30.4470   40.0920   11.4130 C.3    21  ARG21       0.0489
     39  CD        30.6370   40.4600   12.8260 C.3    21  ARG21       0.2205
     40  NE        30.6220   39.2790   13.6770 N.pl3  21  ARG21      -0.0865
     41  CZ        30.4340   39.3270   14.9920 C.cat  21  ARG21       0.5346
     42  NH1       30.2360   40.5050   15.5860 N.pl3  21  ARG21       0.1354
     43  NH2       30.4480   38.2050   15.7090 N.pl3  21  ARG21       0.1354
     44  N         20.0780   44.5150    9.9060 N.3    34  LYS34      -0.1245
     45  CA        20.0070   45.7950   10.6160 C.3    34  LYS34       0.1561
     46  C         19.4200   46.9320    9.7650 C.2    34  LYS34       0.2260
     47  O         18.4690   47.6050   10.1840 O.2    34  LYS34      -0.2867
     48  CB        21.3840   46.1820   11.1590 C.3    34  LYS34       0.0271
     49  CG        21.8510   45.2960   12.3350 C.3    34  LYS34       0.0035
     50  CD        22.9800   45.9190   13.1370 C.3    34  LYS34       0.0206
     51  CE        24.1960   46.2150   12.2910 C.3    34  LYS34       0.1093
     52  NZ        25.3250   46.7560   13.0860 N.3    34  LYS34      -0.1314
     53  N         23.9000   49.3000   20.0340 N.3   159  PHE159     -0.1241
     54  CA        25.0370   48.6130   20.6320 C.3   159  PHE159      0.1605
     55  C         25.7530   49.4630   21.6790 C.2   159  PHE159      0.2264
     56  O         26.9500   49.3060   21.9090 O.2   159  PHE159     -0.2867
     57  CB        26.0110   48.1650   19.5490 C.3   159  PHE159      0.0534
     58  CG        25.4180   47.2040   18.5690 C.ar  159  PHE159     -0.0203
     59  CD1       25.0390   47.6290   17.3030 C.ar  159  PHE159     -0.0042
     60  CD2       25.2330   45.8680   18.9110 C.ar  159  PHE159     -0.0042
     61  CE1       24.4950   46.7390   16.3910 C.ar  159  PHE159     -0.0003
     62  CE2       24.6870   44.9670   18.0030 C.ar  159  PHE159     -0.0003
     63  CZ        24.3170   45.4070   16.7390 C.ar  159  PHE159     -0.0000
     64  N         23.9120   48.0780   26.5650 N.3   162  GLU162     -0.1231
     65  CA        24.3810   46.7990   27.0950 C.3   162  GLU162      0.1699
     66  C         25.9070   46.7210   27.0670 C.2   162  GLU162      0.2592
     67  O         26.5280   46.0420   27.8920 O.2   162  GLU162     -0.2718
     68  CB        23.7350   45.6110   26.3610 C.3   162  GLU162      0.0402
     69  CG        24.2210   45.3410   24.9340 C.3   162  GLU162      0.1161
     70  CD        23.6820   46.3410   23.9050 C.2   162  GLU162      0.3649
     71  OE1       22.7640   47.1270   24.2390 O.co2 162  GLU162     -0.2457
     72  OE2       24.1870   46.3360   22.7610 O.co2 162  GLU162     -0.2457
     73  N         26.5020   47.4540   26.1370 N.am  163  ALA163     -0.1980
     74  CA        27.9510   47.4700   25.9760 C.3   163  ALA163      0.1597
     75  C         28.6670   48.4100   26.9570 C.2   163  ALA163      0.2287
     76  O         29.8960   48.4560   26.9750 O.2   163  ALA163     -0.2864
     77  CB        28.3090   47.8490   24.5360 C.3   163  ALA163      0.0319
     78  N         23.2230   43.9380   21.1610 N.3   193  ALA193     -0.1245
     79  CA        23.7090   42.5660   21.1960 C.3   193  ALA193      0.1562
     80  C         22.9050   41.7180   22.1800 C.2   193  ALA193      0.2260
     81  O         22.5490   42.1750   23.2730 O.2   193  ALA193     -0.2867
     82  CB        25.1840   42.5470   21.5620 C.3   193  ALA193      0.0290
     83  N         25.5180   38.7120   24.8890 N.3   196  GLU196     -0.1245
     84  CA        26.9430   38.9630   24.7080 C.3   196  GLU196      0.1567
     85  C         27.5890   39.3570   26.0420 C.2   196  GLU196      0.2260
     86  O         26.9670   40.0570   26.8590 O.2   196  GLU196     -0.2867
     87  CB        27.1640   40.0590   23.6610 C.3   196  GLU196      0.0388
     88  CG        28.6020   40.5390   23.5590 C.3   196  GLU196      0.1160
     89  CD        28.7910   41.5880   22.4570 C.2   196  GLU196      0.3649
     90  OE1       28.8880   41.2020   21.2720 O.co2 196  GLU196     -0.2457
     91  OE2       28.8310   42.7900   22.7690 O.co2 196  GLU196     -0.2457
     92  N         33.3990   42.0570   23.9140 N.3   199  TYR199     -0.1241
     93  CA        33.8880   42.2050   22.5460 C.3   199  TYR199      0.1605
     94  C         35.1870   42.9900   22.5680 C.2   199  TYR199      0.2264
     95  O         35.4770   43.6840   23.5440 O.2   199  TYR199     -0.2867
     96  CB        32.8670   42.9070   21.6560 C.3   199  TYR199      0.0534
     97  CG        32.6900   44.3780   21.9520 C.ar  199  TYR199     -0.0201
     98  CD1       33.2910   45.3420   21.1420 C.ar  199  TYR199     -0.0009
     99  CD2       31.9140   44.8100   23.0200 C.ar  199  TYR199     -0.0009
    100  CE1       33.1240   46.7010   21.3870 C.ar  199  TYR199      0.0417
    101  CE2       31.7470   46.1720   23.2780 C.ar  199  TYR199      0.0417
    102  CZ        32.3570   47.1110   22.4520 C.ar  199  TYR199      0.1957
    103  OH        32.1980   48.4640   22.6630 O.3   199  TYR199     -0.2866
    104  N         22.7070   35.0820   15.2180 N.3   235  MET235     -0.1245
    105  CA        24.0200   35.2070   14.5710 C.3   235  MET235      0.1570
    106  C         24.4970   33.8920   13.9240 C.2   235  MET235      0.2261
    107  O         24.8220   32.9330   14.6110 O.2   235  MET235     -0.2867
    108  CB        25.0580   35.7000   15.5920 C.3   235  MET235      0.0387
    109  CG        26.3610   36.2340   14.9880 C.3   235  MET235      0.0595
    110  SD        26.2120   37.7830   14.0480 S.3   235  MET235     -0.1393
    111  CE        24.9120   38.6370   14.9030 C.3   235  MET235      0.0692
    112  N         34.0630   38.7780   19.5190 N.3   244  ASP244     -0.1239
    113  CA        33.1000   38.8660   20.5940 C.3   244  ASP244      0.1674
    114  C         32.4480   37.5120   20.7980 C.2   244  ASP244      0.2266
    115  O         32.8170   36.5330   20.1540 O.2   244  ASP244     -0.2867
    116  CB        32.0320   39.9340   20.2980 C.3   244  ASP244      0.1410
    117  CG        31.2600   39.6700   19.0010 C.2   244  ASP244      0.3668
    118  OD1       30.8770   38.5140   18.7210 O.co2 244  ASP244     -0.2456
    119  OD2       31.0220   40.6390   18.2590 O.co2 244  ASP244     -0.2456
    120  N         28.8350   37.4650   20.8030 N.3   246  VAL246     -0.1245
    121  CA        27.4380   37.8430   20.5710 C.3   246  VAL246      0.1561
    122  C         26.6530   36.6240   20.0960 C.2   246  VAL246      0.2260
    123  O         27.1710   35.8190   19.3120 O.2   246  VAL246     -0.2867
    124  CB        27.3370   38.9860   19.5280 C.3   246  VAL246      0.0252
    125  CG1       28.0330   38.5860   18.2300 C.3   246  VAL246      0.0019
    126  CG2       25.8750   39.3710   19.2430 C.3   246  VAL246      0.0019
    127  N         21.1960   39.5540   17.5770 N.3   249  VAL249     -0.1245
    128  CA        21.0350   40.9980   17.6310 C.3   249  VAL249      0.1561
    129  C         19.5560   41.2460   17.7710 C.2   249  VAL249      0.2260
    130  O         18.7440   40.5280   17.1810 O.2   249  VAL249     -0.2867
    131  CB        21.5630   41.7030   16.3310 C.3   249  VAL249      0.0252
    132  CG1       21.2240   43.1850   16.3320 C.3   249  VAL249      0.0019
    133  CG2       23.0750   41.4700   16.1520 C.3   249  VAL249      0.0019
@<TRIPOS>BOND
     1    24    23    2
     2    23    22    1
     3    35    36    2
     4    35    34    1
     5    33    34    1
     6    34    37    1
     7    22    25    1
     8    22    21    1
     9    46    47    2
    10    46    45    1
    11    25    26    1
    12    44    45    1
    13    37    38    1
    14    28    26   ar
    15    28    30   ar
    16    45    48    1
    17    21    15   am
    18    26    27   ar
    19    16    15    2
    20    48    49    1
    21    38    39    1
    22    15    14    1
    23    30    31   ar
    24    27    29   ar
    25    51    52    1
    26    51    50    1
    27    49    50    1
    28    14    13    1
    29    14    17    1
    30    39    40    1
    31    31    29   ar
    32    31    32    1
    33    40    41    2
    34   106   105    1
    35   106   107    2
    36    17    18    1
    37   110   111    1
    38   110   109    1
    39     4     3    2
    40   105   104    1
    41   105   108    1
    42     3     2    1
    43   109   108    1
    44    41    42    1
    45    41    43    1
    46    18    19    2
    47    18    20   am
    48     1     2    1
    49     2     5    1
    50   133   131    1
    51     8    10   ar
    52     8     6   ar
    53   131   132    1
    54   131   128    1
    55    61    63   ar
    56    61    59   ar
    57    10    11   ar
    58    63    62   ar
    59     5     6    1
    60     6     7   ar
    61   130   129    2
    62    11    12    1
    63    11     9   ar
    64    59    58   ar
    65   127   128    1
    66   128   129    1
    67     7     9   ar
    68    62    60   ar
    69   125   124    1
    70   119   117   ar
    71    58    60   ar
    72    58    57    1
    73   118   117   ar
    74   117   116    1
    75   126   124    1
    76   123   122    2
    77   112   113    1
    78   124   121    1
    79    57    54    1
    80    53    54    1
    81   122   121    1
    82   115   114    2
    83   116   113    1
    84   121   120    1
    85   113   114    1
    86    54    55    1
    87    98   100   ar
    88    98    97   ar
    89    78    79    1
    90    79    82    1
    91    79    80    1
    92    90    89   ar
    93   100   102   ar
    94    96    97    1
    95    96    93    1
    96    55    56    2
    97    97    99   ar
    98    80    81    2
    99   102   103    1
   100   102   101   ar
   101    89    91   ar
   102    89    88    1
   103    93    94    1
   104    93    92    1
   105    94    95    2
   106    72    70   ar
   107    99   101   ar
   108    88    87    1
   109    87    84    1
   110    70    71   ar
   111    70    69    1
   112    77    74    1
   113    84    83    1
   114    84    85    1
   115    69    68    1
   116    74    73    1
   117    74    75    1
   118    85    86    2
   119    73    66   am
   120    68    65    1
   121    64    65    1
   122    75    76    2
   123    66    65    1
   124    66    67    2
