@<TRIPOS>MOLECULE
tmp/4dm6B00.pdb
 139 131 0 0 0
SMALL
GASTEIGER

@<TRIPOS>ATOM
      1  N         -4.6430   12.2840   53.7840 N.3    60  ILE60      -0.1245
      2  CA        -4.1560   12.3920   55.1510 C.3    60  ILE60       0.1561
      3  C         -3.6170   11.0260   55.5760 C.2    60  ILE60       0.2260
      4  O         -2.5850   10.9400   56.2400 O.2    60  ILE60      -0.2867
      5  CB        -5.2890   12.8460   56.1100 C.3    60  ILE60       0.0252
      6  CG1       -5.6750   14.2910   55.7870 C.3    60  ILE60       0.0019
      7  CG2       -4.8470   12.6950   57.5670 C.3    60  ILE60       0.0019
      8  CD1       -6.8920   14.8020   56.5570 C.3    60  ILE60       0.0001
      9  N         -0.2140   10.2780   54.0270 N.3    63  VAL63      -0.1245
     10  CA         0.8820   10.9710   54.7060 C.3    63  VAL63       0.1561
     11  C          1.2680   10.1680   55.9430 C.2    63  VAL63       0.2260
     12  O          2.4480   10.0500   56.2780 O.2    63  VAL63      -0.2867
     13  CB         0.4810   12.4020   55.1280 C.3    63  VAL63       0.0252
     14  CG1        1.6080   13.0440   55.9600 C.3    63  VAL63       0.0019
     15  CG2        0.2080   13.2450   53.8860 C.3    63  VAL63       0.0019
     16  N          4.9560    8.4300   56.6800 N.3    67  LYS67      -0.1245
     17  CA         5.7080    8.6660   57.9070 C.3    67  LYS67       0.1561
     18  C          6.0830    7.3640   58.6020 C.2    67  LYS67       0.2260
     19  O          7.0240    7.3280   59.3990 O.2    67  LYS67      -0.2867
     20  CB         4.9160    9.5780   58.8520 C.3    67  LYS67       0.0271
     21  CG         4.5430   10.9150   58.2170 C.3    67  LYS67       0.0035
     22  CD         4.2440   12.0220   59.2290 C.3    67  LYS67       0.0206
     23  CE         3.1190   11.6640   60.1810 C.3    67  LYS67       0.1093
     24  NZ         2.6590   12.8500   60.9690 N.3    67  LYS67      -0.1314
     25  N         11.7800    7.3430   55.5160 N.3    72  PHE72      -0.1227
     26  CA        11.0860    8.4790   54.9230 C.3    72  PHE72       0.1736
     27  C         11.3130    9.7540   55.7300 C.2    72  PHE72       0.2596
     28  O         11.6470   10.7900   55.1640 O.2    72  PHE72      -0.2718
     29  CB         9.5860    8.2150   54.8240 C.3    72  PHE72       0.0547
     30  CG         8.8380    9.2780   54.0690 C.ar   72  PHE72      -0.0202
     31  CD1        8.8830    9.3230   52.6830 C.ar   72  PHE72      -0.0042
     32  CD2        8.1020   10.2450   54.7450 C.ar   72  PHE72      -0.0042
     33  CE1        8.2000   10.3240   51.9750 C.ar   72  PHE72      -0.0003
     34  CE2        7.4220   11.2430   54.0450 C.ar   72  PHE72      -0.0003
     35  CZ         7.4750   11.2770   52.6540 C.ar   72  PHE72      -0.0000
     36  N         11.1340    9.6900   57.0480 N.am   73  THR73      -0.1953
     37  CA        11.3320   10.8850   57.8590 C.3    73  THR73       0.1897
     38  C         12.8070   11.2380   58.0380 C.2    73  THR73       0.2313
     39  O         13.1540   12.1470   58.7970 O.2    73  THR73      -0.2863
     40  CB        10.6280   10.7820   59.2430 C.3    73  THR73       0.1794
     41  OG1       11.0650    9.6060   59.9340 O.3    73  THR73      -0.2208
     42  CG2        9.1170   10.7410   59.0610 C.3    73  THR73       0.0378
     43  N         12.7680   17.8430   54.5750 N.3    77  ILE77      -0.1231
     44  CA        11.3510   18.1740   54.5880 C.3    77  ILE77       0.1692
     45  C         10.8780   18.4710   53.1650 C.2    77  ILE77       0.2591
     46  O          9.8160   17.9980   52.7420 O.2    77  ILE77      -0.2718
     47  CB        11.0640   19.3830   55.5060 C.3    77  ILE77       0.0266
     48  CG1       11.4590   19.0470   56.9560 C.3    77  ILE77       0.0019
     49  CG2        9.6120   19.7710   55.4010 C.3    77  ILE77       0.0020
     50  CD1       10.7150   17.8400   57.5630 C.3    77  ILE77       0.0001
     51  N         11.6820   19.2220   52.4130 N.am   78  ALA78      -0.1980
     52  CA        11.3120   19.5460   51.0390 C.3    78  ALA78       0.1597
     53  C         11.1500   18.2720   50.2010 C.2    78  ALA78       0.2287
     54  O         10.2330   18.1810   49.3870 O.2    78  ALA78      -0.2864
     55  CB        12.3630   20.4670   50.4070 C.3    78  ALA78       0.0319
     56  N         10.3780   15.2100   51.3260 N.3    80  GLN80      -0.1231
     57  CA         9.1980   14.4780   51.7730 C.3    80  GLN80       0.1698
     58  C          7.9670   15.0510   51.0670 C.2    80  GLN80       0.2592
     59  O          7.1090   14.3070   50.5860 O.2    80  GLN80      -0.2718
     60  CB         9.0450   14.5980   53.2850 C.3    80  GLN80       0.0381
     61  CG        10.0410   13.7490   54.0590 C.3    80  GLN80       0.0905
     62  CD         9.9000   13.9380   55.5530 C.2    80  GLN80       0.2608
     63  OE1        8.7940   13.8730   56.0960 O.2    80  GLN80      -0.2717
     64  NE2       11.0170   14.1690   56.2260 N.am   80  GLN80      -0.0878
     65  N          7.8990   16.3770   51.0000 N.am   81  ILE81      -0.1980
     66  CA         6.7960   17.0700   50.3490 C.3    81  ILE81       0.1595
     67  C          6.7740   16.7540   48.8520 C.2    81  ILE81       0.2287
     68  O          5.7360   16.3970   48.2850 O.2    81  ILE81      -0.2864
     69  CB         6.9180   18.6060   50.5100 C.3    81  ILE81       0.0276
     70  CG1        6.8680   19.0040   51.9910 C.3    81  ILE81       0.0022
     71  CG2        5.8160   19.2870   49.7330 C.3    81  ILE81       0.0022
     72  CD1        5.5570   18.6960   52.6700 C.3    81  ILE81       0.0001
     73  N          5.6360   13.1110   48.2700 N.3    84  LEU84      -0.1231
     74  CA         4.2070   12.9560   48.5450 C.3    84  LEU84       0.1693
     75  C          3.3570   13.5650   47.4290 C.2    84  LEU84       0.2591
     76  O          2.3940   12.9530   46.9690 O.2    84  LEU84      -0.2718
     77  CB         3.8620   13.6030   49.8830 C.3    84  LEU84       0.0284
     78  CG         4.2610   12.7670   51.1080 C.3    84  LEU84       0.0019
     79  CD1        4.2680   13.6080   52.3690 C.3    84  LEU84       0.0001
     80  CD2        3.2990   11.6170   51.2360 C.3    84  LEU84       0.0001
     81  N          3.7130   14.7690   46.9910 N.am   85  LYS85      -0.1980
     82  CA         2.9650   15.4290   45.9300 C.3    85  LYS85       0.1596
     83  C          3.0380   14.6540   44.6110 C.2    85  LYS85       0.2287
     84  O          2.0300   14.4860   43.9240 O.2    85  LYS85      -0.2864
     85  CB         3.4830   16.8560   45.7110 C.3    85  LYS85       0.0298
     86  CG         3.1130   17.8470   46.8160 C.3    85  LYS85       0.0038
     87  CD         3.5100   19.2790   46.4480 C.3    85  LYS85       0.0206
     88  CE         3.2160   20.2400   47.5990 C.3    85  LYS85       0.1093
     89  NZ         3.2990   21.6730   47.1940 N.3    85  LYS85      -0.1314
     90  N         -8.4130   22.4660   50.0950 N.3   231  PRO231     -0.2102
     91  CA        -7.0360   22.9540   50.1800 C.3   231  PRO231      0.1504
     92  C         -5.9160   21.9090   50.1530 C.2   231  PRO231      0.2575
     93  O         -4.8790   22.1470   49.5400 O.2   231  PRO231     -0.2718
     94  CB        -7.0460   23.8130   51.4580 C.3   231  PRO231      0.0282
     95  CG        -8.0970   23.1600   52.2990 C.3   231  PRO231      0.0208
     96  CD        -9.1870   22.8320   51.2950 C.3   231  PRO231      0.0893
     97  N         -6.1120   20.7590   50.7940 N.am  232  LEU232     -0.1980
     98  CA        -5.0690   19.7400   50.7740 C.3   232  LEU232      0.1596
     99  C         -4.9170   19.1790   49.3550 C.2   232  LEU232      0.2287
    100  O         -3.8220   18.8070   48.9450 O.2   232  LEU232     -0.2864
    101  CB        -5.3810   18.6160   51.7640 C.3   232  LEU232      0.0297
    102  CG        -4.3430   17.4910   51.8170 C.3   232  LEU232      0.0022
    103  CD1       -2.9560   18.0700   52.1430 C.3   232  LEU232      0.0001
    104  CD2       -4.7580   16.4720   52.8740 C.3   232  LEU232      0.0001
    105  N         -5.5700   20.9780   46.6640 N.3   234  GLN234     -0.1231
    106  CA        -4.9160   22.0810   45.9510 C.3   234  GLN234      0.1698
    107  C         -3.4010   21.9480   46.1270 C.2   234  GLN234      0.2592
    108  O         -2.6280   22.0570   45.1730 O.2   234  GLN234     -0.2718
    109  CB        -5.3280   23.4440   46.5260 C.3   234  GLN234      0.0381
    110  CG        -6.7490   23.9070   46.2260 C.3   234  GLN234      0.0905
    111  CD        -7.0390   25.2670   46.8480 C.2   234  GLN234      0.2608
    112  OE1       -6.3140   26.2330   46.6090 O.2   234  GLN234     -0.2717
    113  NE2       -8.0990   25.3460   47.6500 N.am  234  GLN234     -0.0878
    114  N         -2.9790   21.7190   47.3660 N.am  235  GLU235     -0.1966
    115  CA        -1.5620   21.5950   47.6620 C.3   235  GLU235      0.1733
    116  C         -0.8870   20.3920   46.9970 C.2   235  GLU235      0.2616
    117  O          0.1820   20.5310   46.3960 O.2   235  GLU235     -0.2715
    118  CB        -1.3610   21.5580   49.1810 C.3   235  GLU235      0.0429
    119  CG         0.0630   21.2990   49.6270 C.3   235  GLU235      0.1163
    120  CD         0.3050   21.7490   51.0560 C.2   235  GLU235      0.3649
    121  OE1       -0.6090   21.5980   51.8980 O.co2 235  GLU235     -0.2457
    122  OE2        1.4140   22.2490   51.3370 O.co2 235  GLU235     -0.2457
    123  N         -1.5080   19.2230   47.1000 N.am  236  MET236     -0.1977
    124  CA        -0.9570   18.0010   46.5090 C.3   236  MET236      0.1605
    125  C         -0.8280   18.0530   44.9880 C.2   236  MET236      0.2287
    126  O          0.1290   17.5260   44.4150 O.2   236  MET236     -0.2864
    127  CB        -1.8310   16.7930   46.8610 C.3   236  MET236      0.0413
    128  CG        -1.9610   16.5020   48.3390 C.3   236  MET236      0.0598
    129  SD        -0.3760   16.5130   49.1610 S.3   236  MET236     -0.1393
    130  CE         0.3680   15.2250   48.3470 C.3   236  MET236      0.0692
    131  N         -0.4880   20.7550   43.2150 N.3   238  GLU238     -0.1245
    132  CA         0.2290   21.9740   42.8660 C.3   238  GLU238      0.1567
    133  C          1.4530   21.7070   41.9980 C.2   238  GLU238      0.2260
    134  O          2.3000   20.8850   42.3360 O.2   238  GLU238     -0.2867
    135  CB         0.6460   22.6880   44.1510 C.3   238  GLU238      0.0388
    136  CG         0.4410   24.1890   44.1370 C.3   238  GLU238      0.1160
    137  CD         0.2750   24.7530   45.5380 C.2   238  GLU238      0.3649
    138  OE1        1.1600   24.5070   46.3880 O.co2 238  GLU238     -0.2457
    139  OE2       -0.7430   25.4400   45.7890 O.co2 238  GLU238     -0.2457
@<TRIPOS>BOND
     1   133   134    2
     2   133   132    1
     3   132   131    1
     4   132   135    1
     5    84    83    2
     6   136   135    1
     7   136   137    1
     8   126   125    2
     9    83    82    1
    10   125   124    1
    11   108   107    2
    12   137   139   ar
    13   137   138   ar
    14    85    82    1
    15    85    86    1
    16    82    81    1
    17   106   107    1
    18   106   109    1
    19   106   105    1
    20   107   114   am
    21   110   109    1
    22   110   111    1
    23   117   116    2
    24    87    86    1
    25    87    88    1
    26   124   127    1
    27   124   123    1
    28   112   111    2
    29   111   113   am
    30   127   128    1
    31    76    75    2
    32    81    75   am
    33   116   123   am
    34   116   115    1
    35    89    88    1
    36   114   115    1
    37    75    74    1
    38   115   118    1
    39    73    74    1
    40    68    67    2
    41   128   129    1
    42   130   129    1
    43    74    77    1
    44    67    66    1
    45   100    99    2
    46   118   119    1
    47    99    98    1
    48    54    53    2
    49    93    92    2
    50   119   120    1
    51    71    69    1
    52    77    78    1
    53    90    91    1
    54    90    96    1
    55    92    91    1
    56    92    97   am
    57    91    94    1
    58    53    52    1
    59    66    69    1
    60    66    65    1
    61    55    52    1
    62    69    70    1
    63    59    58    2
    64    98    97    1
    65    98   101    1
    66    65    58   am
    67    52    51    1
    68   120   122   ar
    69   120   121   ar
    70    58    57    1
    71    78    80    1
    72    78    79    1
    73    96    95    1
    74    56    57    1
    75    94    95    1
    76   101   102    1
    77    57    60    1
    78   102   103    1
    79   102   104    1
    80    33    35   ar
    81    33    31   ar
    82    70    72    1
    83    51    45   am
    84    35    34   ar
    85    31    30   ar
    86    46    45    2
    87    45    44    1
    88    60    61    1
    89     1     2    1
    90    15    13    1
    91     9    10    1
    92    34    32   ar
    93    61    62    1
    94    30    32   ar
    95    30    29    1
    96    43    44    1
    97    44    47    1
    98    10    13    1
    99    10    11    1
   100    29    26    1
   101    26    25    1
   102    26    27    1
   103    13    14    1
   104     2     3    1
   105     2     5    1
   106    28    27    2
   107    49    47    1
   108    47    48    1
   109    62    63    2
   110    62    64   am
   111     3     4    2
   112    27    36   am
   113     6     5    1
   114     6     8    1
   115    11    12    2
   116     5     7    1
   117    16    17    1
   118    48    50    1
   119    36    37    1
   120    37    38    1
   121    37    40    1
   122    17    18    1
   123    17    20    1
   124    38    39    2
   125    21    20    1
   126    21    22    1
   127    18    19    2
   128    42    40    1
   129    22    23    1
   130    40    41    1
   131    23    24    1
