@<TRIPOS>MOLECULE
tmp/4dm8A00.pdb
 116 109 0 0 0
SMALL
GASTEIGER

@<TRIPOS>ATOM
      1  N         11.8680    5.9210   14.5430 N.3    62  ILE62      -0.1245
      2  CA        11.9900    4.9060   13.4980 C.3    62  ILE62       0.1561
      3  C         12.9060    3.7830   13.9900 C.2    62  ILE62       0.2260
      4  O         12.5960    2.6040   13.8420 O.2    62  ILE62      -0.2867
      5  CB        12.5730    5.5020   12.1870 C.3    62  ILE62       0.0252
      6  CG1       11.5100    6.3540   11.4780 C.3    62  ILE62       0.0019
      7  CG2       13.0280    4.3840   11.2540 C.3    62  ILE62       0.0019
      8  CD1       12.0610    7.1890   10.3510 C.3    62  ILE62       0.0001
      9  N         11.3050    1.4330   16.5260 N.3    65  VAL65      -0.1245
     10  CA        10.4390    0.4440   15.8890 C.3    65  VAL65       0.1561
     11  C         11.3340   -0.6650   15.3630 C.2    65  VAL65       0.2260
     12  O         10.9860   -1.8440   15.4180 O.2    65  VAL65      -0.2867
     13  CB         9.6660    1.0420   14.6950 C.3    65  VAL65       0.0252
     14  CG1        8.8990   -0.0590   13.9840 C.3    65  VAL65       0.0019
     15  CG2        8.7100    2.1250   15.1800 C.3    65  VAL65       0.0019
     16  N         11.0580   -4.6820   16.5390 N.3    69  LYS69      -0.1245
     17  CA        10.9640   -5.8480   15.6530 C.3    69  LYS69       0.1561
     18  C         12.1320   -6.8190   15.8250 C.2    69  LYS69       0.2260
     19  O         12.0480   -7.9740   15.4070 O.2    69  LYS69      -0.2867
     20  CB        10.8790   -5.4050   14.1830 C.3    69  LYS69       0.0271
     21  CG         9.6500   -4.5660   13.8670 C.3    69  LYS69       0.0035
     22  CD         9.6330   -4.0850   12.4220 C.3    69  LYS69       0.0206
     23  CE         9.1890   -5.1900   11.4770 C.3    69  LYS69       0.1093
     24  NZ         9.2350   -4.7800   10.0430 N.3    69  LYS69      -0.1314
     25  N          8.3570  -10.2660   19.4440 N.3    74  PHE74      -0.1227
     26  CA         7.5840   -9.0360   19.2250 C.3    74  PHE74       0.1736
     27  C          6.6880   -9.1100   17.9930 C.2    74  PHE74       0.2596
     28  O          5.4950   -8.8090   18.0680 O.2    74  PHE74      -0.2718
     29  CB         8.5020   -7.8190   19.0760 C.3    74  PHE74       0.0547
     30  CG         7.7550   -6.5210   18.9290 C.ar   74  PHE74      -0.0202
     31  CD1        7.1100   -5.9480   20.0200 C.ar   74  PHE74      -0.0042
     32  CD2        7.6400   -5.9050   17.6890 C.ar   74  PHE74      -0.0042
     33  CE1        6.3570   -4.7850   19.8790 C.ar   74  PHE74      -0.0003
     34  CE2        6.8880   -4.7390   17.5390 C.ar   74  PHE74      -0.0003
     35  CZ         6.2440   -4.1810   18.6380 C.ar   74  PHE74      -0.0000
     36  N          7.2700   -9.4930   16.8590 N.am   75  THR75      -0.1953
     37  CA         6.5170   -9.5940   15.6130 C.3    75  THR75       0.1897
     38  C          5.4810  -10.7170   15.6570 C.2    75  THR75       0.2313
     39  O          4.5670  -10.7590   14.8330 O.2    75  THR75      -0.2863
     40  CB         7.4570   -9.8020   14.3950 C.3    75  THR75       0.1794
     41  OG1        8.3130  -10.9300   14.6180 O.3    75  THR75      -0.2208
     42  CG2        8.3170   -8.5580   14.1730 C.3    75  THR75       0.0378
     43  N         -0.7100   -7.2960   15.1170 N.3    79  ILE79      -0.1245
     44  CA        -0.3020   -5.9670   14.6660 C.3    79  ILE79       0.1561
     45  C         -0.8400   -4.8950   15.5930 C.2    79  ILE79       0.2260
     46  O         -0.1260   -3.9610   15.9560 O.2    79  ILE79      -0.2867
     47  CB        -0.8050   -5.6600   13.2370 C.3    79  ILE79       0.0252
     48  CG1       -0.0560   -6.5200   12.2170 C.3    79  ILE79       0.0019
     49  CG2       -0.5940   -4.1810   12.9190 C.3    79  ILE79       0.0019
     50  CD1        1.4110   -6.1840   12.0920 C.3    79  ILE79       0.0001
     51  N          1.3230   -4.7230   18.7260 N.3    82  GLN82      -0.1231
     52  CA         2.6270   -4.1270   18.4550 C.3    82  GLN82       0.1698
     53  C          2.5120   -2.6050   18.4370 C.2    82  GLN82       0.2592
     54  O          3.3260   -1.9030   19.0280 O.2    82  GLN82      -0.2718
     55  CB         3.1720   -4.6280   17.1110 C.3    82  GLN82       0.0381
     56  CG         3.5040   -6.1170   17.0920 C.3    82  GLN82       0.0905
     57  CD         3.8310   -6.6320   15.6990 C.2    82  GLN82       0.2608
     58  OE1        4.7190   -6.1100   15.0240 O.2    82  GLN82      -0.2717
     59  NE2        3.1130   -7.6650   15.2640 N.am   82  GLN82      -0.0878
     60  N          1.4900   -2.1080   17.7560 N.am   83  ILE83      -0.1980
     61  CA         1.2380   -0.6760   17.6580 C.3    83  ILE83       0.1595
     62  C          0.9070   -0.1340   19.0460 C.2    83  ILE83       0.2287
     63  O          1.4180    0.9200   19.4600 O.2    83  ILE83      -0.2864
     64  CB         0.0470   -0.4060   16.7180 C.3    83  ILE83       0.0276
     65  CG1        0.4090   -0.8610   15.3040 C.3    83  ILE83       0.0022
     66  CG2       -0.3470    1.0610   16.7600 C.3    83  ILE83       0.0022
     67  CD1       -0.6830   -0.6280   14.2700 C.3    83  ILE83       0.0001
     68  N          4.0370   -0.0290   21.1600 N.3    86  LEU86      -0.1231
     69  CA         4.9000    1.0550   20.7330 C.3    86  LEU86       0.1693
     70  C          4.4010    2.4190   21.1970 C.2    86  LEU86       0.2591
     71  O          5.1520    3.1800   21.8050 O.2    86  LEU86      -0.2718
     72  CB         5.0780    1.0210   19.2120 C.3    86  LEU86       0.0284
     73  CG         6.0030   -0.1370   18.8110 C.3    86  LEU86       0.0019
     74  CD1        5.9380   -0.3920   17.3110 C.3    86  LEU86       0.0001
     75  CD2        7.4340    0.1960   19.2650 C.3    86  LEU86       0.0001
     76  N          3.1290    2.7120   20.9490 N.am   87  LYS87      -0.1980
     77  CA         2.5610    3.9990   21.3440 C.3    87  LYS87       0.1596
     78  C          2.6630    4.2680   22.8410 C.2    87  LYS87       0.2287
     79  O          2.8570    5.4050   23.2640 O.2    87  LYS87      -0.2864
     80  CB         1.0890    4.0940   20.9120 C.3    87  LYS87       0.0298
     81  CG         0.8620    3.9230   19.4070 C.3    87  LYS87       0.0038
     82  CD        -0.5570    4.2870   18.9910 C.3    87  LYS87       0.0206
     83  CE        -1.5880    3.4430   19.7150 C.3    87  LYS87       0.1093
     84  NZ        -2.9770    3.7980   19.3130 N.3    87  LYS87      -0.1314
     85  N          4.2960   13.7830   11.4390 N.3   231  PRO231     -0.2102
     86  CA         3.3600   12.6530   11.4810 C.3   231  PRO231      0.1504
     87  C          3.7110   11.4480   12.3580 C.2   231  PRO231      0.2575
     88  O          2.8540   10.9510   13.0950 O.2   231  PRO231     -0.2718
     89  CB         3.1880   12.2920    9.9970 C.3   231  PRO231      0.0282
     90  CG         4.4970   12.7120    9.3870 C.3   231  PRO231      0.0208
     91  CD         4.7360   14.0430   10.0550 C.3   231  PRO231      0.0893
     92  N          4.9530   10.9750   12.3000 N.am  232  LEU232     -0.1980
     93  CA         5.3200    9.8200   13.1130 C.3   232  LEU232      0.1596
     94  C          5.2270   10.1630   14.5960 C.2   232  LEU232      0.2287
     95  O          4.8090    9.3320   15.4040 O.2   232  LEU232     -0.2864
     96  CB         6.7240    9.3390   12.7650 C.3   232  LEU232      0.0297
     97  CG         7.1480    7.9940   13.3650 C.3   232  LEU232      0.0022
     98  CD1        6.1640    6.9120   12.9750 C.3   232  LEU232      0.0001
     99  CD2        8.5440    7.6410   12.8700 C.3   232  LEU232      0.0001
    100  N          1.5670    9.9670   15.6170 N.3   235  GLU235     -0.1231
    101  CA         1.0340    8.6210   15.8150 C.3   235  GLU235      0.1699
    102  C          1.4670    8.0280   17.1550 C.2   235  GLU235      0.2592
    103  O          0.7080    7.3040   17.7910 O.2   235  GLU235     -0.2718
    104  CB         1.4800    7.6800   14.6870 C.3   235  GLU235      0.0402
    105  CG         0.9990    8.0700   13.2990 C.3   235  GLU235      0.1161
    106  CD         1.1830    6.9550   12.2820 C.2   235  GLU235      0.3649
    107  OE1        0.9180    7.1920   11.0840 O.co2 235  GLU235     -0.2457
    108  OE2        1.5860    5.8370   12.6800 O.co2 235  GLU235     -0.2457
    109  N          2.6840    8.3470   17.5850 N.am  236  MET236     -0.1979
    110  CA         3.2200    7.8230   18.8380 C.3   236  MET236      0.1605
    111  C          2.8270    8.5710   20.1130 C.2   236  MET236      0.2287
    112  O          2.9340    8.0190   21.2080 O.2   236  MET236     -0.2864
    113  CB         4.7480    7.7410   18.7510 C.3   236  MET236      0.0413
    114  CG         5.2480    6.7340   17.7280 C.3   236  MET236      0.0598
    115  SD         4.8870    5.0210   18.1910 S.3   236  MET236     -0.1393
    116  CE         6.5250    4.3650   18.4560 C.3   236  MET236      0.0692
@<TRIPOS>BOND
     1    90    89    1
     2    90    91    1
     3    89    86    1
     4    24    23    1
     5    91    85    1
     6     8     6    1
     7   107   106   ar
     8     7     5    1
     9    85    86    1
    10    23    22    1
    11     6     5    1
    12    86    87    1
    13    50    48    1
    14     5     2    1
    15    48    47    1
    16   106   108   ar
    17   106   105    1
    18    92    87   am
    19    92    93    1
    20    87    88    2
    21    22    21    1
    22    96    93    1
    23    96    97    1
    24    99    97    1
    25    49    47    1
    26    98    97    1
    27    93    94    1
    28    47    44    1
    29   105   104    1
    30     2     3    1
    31     2     1    1
    32     4     3    2
    33    21    20    1
    34    14    13    1
    35    42    40    1
    36    20    17    1
    37    67    65    1
    38    40    41    1
    39    40    37    1
    40    94    95    2
    41    44    43    1
    42    44    45    1
    43   104   101    1
    44    13    15    1
    45    13    10    1
    46    39    38    2
    47    58    57    2
    48    59    57   am
    49    65    64    1
    50    11    12    2
    51    11    10    1
    52    19    18    2
    53    45    46    2
    54    37    38    1
    55    37    36    1
    56   100   101    1
    57    17    18    1
    58    17    16    1
    59    57    56    1
    60   101   102    1
    61    10     9    1
    62    64    66    1
    63    64    61    1
    64    36    27   am
    65    56    55    1
    66    55    52    1
    67   102   109   am
    68   102   103    2
    69    74    73    1
    70    34    32   ar
    71    34    35   ar
    72   109   110    1
    73    61    60    1
    74    61    62    1
    75    32    30   ar
    76   114   115    1
    77   114   113    1
    78    60    53   am
    79    27    28    2
    80    27    26    1
    81   115   116    1
    82    53    52    1
    83    53    54    2
    84    52    51    1
    85    35    33   ar
    86   113   110    1
    87    73    72    1
    88    73    75    1
    89   110   111    1
    90    30    29    1
    91    30    31   ar
    92    82    81    1
    93    82    83    1
    94    62    63    2
    95    29    26    1
    96    72    69    1
    97    26    25    1
    98    84    83    1
    99    81    80    1
   100    33    31   ar
   101   111   112    2
   102    69    68    1
   103    69    70    1
   104    80    77    1
   105    76    70   am
   106    76    77    1
   107    70    71    2
   108    77    78    1
   109    78    79    2
