@<TRIPOS>MOLECULE
tmp/4dmaB01.pdb
 167 156 0 0 0
SMALL
GASTEIGER

@<TRIPOS>ATOM
      1  N         -8.1860  -14.4640   23.6090 N.3    41  MET41      -0.1245
      2  CA        -8.2530  -13.1160   23.0600 C.3    41  MET41       0.1570
      3  C         -8.9060  -12.1610   24.0430 C.2    41  MET41       0.2261
      4  O         -8.5840  -10.9770   24.0730 O.2    41  MET41      -0.2867
      5  CB        -9.0490  -13.1180   21.7550 C.3    41  MET41       0.0387
      6  CG        -8.3020  -13.6380   20.5340 C.3    41  MET41       0.0595
      7  SD        -6.9740  -12.5440   20.0150 S.3    41  MET41      -0.1393
      8  CE        -5.5830  -13.4830   20.5270 C.3    41  MET41       0.0692
      9  N         -6.3090  -11.1070   26.7510 N.3    44  LEU44      -0.1231
     10  CA        -5.3290  -10.1850   26.2020 C.3    44  LEU44       0.1693
     11  C         -5.8550   -8.7760   25.9680 C.2    44  LEU44       0.2592
     12  O         -5.1940   -7.8040   26.3350 O.2    44  LEU44      -0.2718
     13  CB        -4.7390  -10.7490   24.9060 C.3    44  LEU44       0.0284
     14  CG        -4.0430  -12.1100   25.0460 C.3    44  LEU44       0.0019
     15  CD1       -3.3210  -12.4580   23.7390 C.3    44  LEU44       0.0001
     16  CD2       -3.0570  -12.0790   26.2000 C.3    44  LEU44       0.0001
     17  N         -7.0400   -8.6660   25.3730 N.am   45  THR45      -0.1953
     18  CA        -7.6400   -7.3670   25.0860 C.3    45  THR45       0.1897
     19  C         -8.1090   -6.6550   26.3360 C.2    45  THR45       0.2313
     20  O         -8.1740   -5.4330   26.3740 O.2    45  THR45      -0.2863
     21  CB        -8.8440   -7.4970   24.1400 C.3    45  THR45       0.1794
     22  OG1       -9.8180   -8.3650   24.7320 O.3    45  THR45      -0.2208
     23  CG2       -8.3980   -8.0400   22.7740 C.3    45  THR45       0.0378
     24  N         -6.5690   -6.9330   29.2360 N.3    47  LEU47      -0.1231
     25  CA        -5.3010   -6.4890   29.8130 C.3    47  LEU47       0.1693
     26  C         -4.7550   -5.2350   29.1150 C.2    47  LEU47       0.2591
     27  O         -4.4470   -4.2370   29.7720 O.2    47  LEU47      -0.2718
     28  CB        -4.2690   -7.6190   29.7300 C.3    47  LEU47       0.0284
     29  CG        -2.8780   -7.3290   30.2970 C.3    47  LEU47       0.0019
     30  CD1       -2.9640   -7.0240   31.7930 C.3    47  LEU47       0.0001
     31  CD2       -1.9780   -8.5290   30.0460 C.3    47  LEU47       0.0001
     32  N         -4.6550   -5.2890   27.7890 N.am   48  ALA48      -0.1980
     33  CA        -4.1540   -4.1710   26.9870 C.3    48  ALA48       0.1597
     34  C         -4.9830   -2.9080   27.1700 C.2    48  ALA48       0.2287
     35  O         -4.4490   -1.7930   27.2410 O.2    48  ALA48      -0.2864
     36  CB        -4.1410   -4.5560   25.5240 C.3    48  ALA48       0.0319
     37  N         -3.8600   -1.4530   30.2740 N.3    51  GLU51      -0.1245
     38  CA        -2.4780   -0.9930   30.1670 C.3    51  GLU51       0.1567
     39  C         -2.4020    0.3130   29.3890 C.2    51  GLU51       0.2260
     40  O         -1.5650    1.1680   29.6820 O.2    51  GLU51      -0.2867
     41  CB        -1.6070   -2.0220   29.4370 C.3    51  GLU51       0.0388
     42  CG        -1.2090   -3.2600   30.2300 C.3    51  GLU51       0.1160
     43  CD        -0.5140   -4.2930   29.3450 C.2    51  GLU51       0.3649
     44  OE1       -1.1820   -4.8410   28.4400 O.co2  51  GLU51      -0.2457
     45  OE2        0.6980   -4.5480   29.5340 O.co2  51  GLU51      -0.2457
     46  N          1.0580    3.0360   19.8560 N.3    81  TRP81      -0.1227
     47  CA         0.5280    2.2850   20.9890 C.3    81  TRP81       0.1737
     48  C          0.7880    0.7770   21.0070 C.2    81  TRP81       0.2595
     49  O          1.1150    0.2380   22.0560 O.2    81  TRP81      -0.2718
     50  CB        -0.9740    2.5420   21.1660 C.3    81  TRP81       0.0564
     51  CG        -1.8570    1.8900   20.1380 C.ar   81  TRP81       0.0003
     52  CD1       -2.2810    2.4310   18.9620 C.ar   81  TRP81       0.0946
     53  CD2       -2.4770    0.6000   20.2340 C.ar   81  TRP81       0.0152
     54  NE1       -3.1390    1.5650   18.3190 N.ar   81  TRP81      -0.2442
     55  CE2       -3.2770    0.4330   19.0770 C.ar   81  TRP81       0.0810
     56  CE3       -2.4410   -0.4300   21.1860 C.ar   81  TRP81       0.0012
     57  CZ2       -4.0350   -0.7260   18.8450 C.ar   81  TRP81       0.0191
     58  CZ3       -3.1960   -1.5860   20.9530 C.ar   81  TRP81       0.0001
     59  CH2       -3.9820   -1.7200   19.7910 C.ar   81  TRP81       0.0015
     60  N          0.6500    0.0930   19.8730 N.am   82  LEU82      -0.1980
     61  CA         0.8690   -1.3500   19.8860 C.3    82  LEU82       0.1596
     62  C          2.3490   -1.6940   19.9550 C.2    82  LEU82       0.2287
     63  O          2.7200   -2.7100   20.5350 O.2    82  LEU82      -0.2864
     64  CB         0.2110   -2.0360   18.6690 C.3    82  LEU82       0.0297
     65  CG         0.2130   -3.5710   18.7090 C.3    82  LEU82       0.0022
     66  CD1       -0.2590   -4.0360   20.0810 C.3    82  LEU82       0.0001
     67  CD2       -0.7100   -4.1400   17.6190 C.3    82  LEU82       0.0001
     68  N          3.2370   -1.3690   23.6810 N.3    85  LEU85      -0.1231
     69  CA         2.7580   -2.4830   24.5040 C.3    85  LEU85       0.1693
     70  C          3.6130   -3.7180   24.2380 C.2    85  LEU85       0.2591
     71  O          3.9290   -4.4680   25.1540 O.2    85  LEU85      -0.2718
     72  CB         1.2960   -2.8310   24.1940 C.3    85  LEU85       0.0284
     73  CG         0.2000   -1.8850   24.6760 C.3    85  LEU85       0.0019
     74  CD1       -1.1460   -2.3570   24.1640 C.3    85  LEU85       0.0001
     75  CD2        0.2100   -1.8390   26.1950 C.3    85  LEU85       0.0001
     76  N          3.9900   -3.9230   22.9810 N.am   86  MET86      -0.1979
     77  CA         4.7830   -5.0890   22.6220 C.3    86  MET86       0.1605
     78  C          6.2250   -5.0840   23.1350 C.2    86  MET86       0.2287
     79  O          6.7140   -6.1150   23.5990 O.2    86  MET86      -0.2864
     80  CB         4.7600   -5.2940   21.1060 C.3    86  MET86       0.0413
     81  CG         3.3780   -5.7190   20.5810 C.3    86  MET86       0.0598
     82  SD         3.3800   -6.0770   18.8070 S.3    86  MET86      -0.1393
     83  CE         2.2160   -7.4660   18.7220 C.3    86  MET86       0.0692
     84  N          5.9830   -6.0870   26.5310 N.3    89  LEU89      -0.1245
     85  CA         5.7920   -7.5270   26.6650 C.3    89  LEU89       0.1561
     86  C          7.1180   -8.2740   26.4590 C.2    89  LEU89       0.2260
     87  O          7.4350   -9.2000   27.1970 O.2    89  LEU89      -0.2867
     88  CB         4.7590   -8.0190   25.6510 C.3    89  LEU89       0.0270
     89  CG         4.6150   -9.5370   25.5150 C.3    89  LEU89       0.0019
     90  CD1        4.3350  -10.1450   26.8920 C.3    89  LEU89       0.0001
     91  CD2        3.4810   -9.8630   24.5300 C.3    89  LEU89       0.0001
     92  N          9.3570   -7.7130   29.6160 N.3    92  ARG92      -0.1245
     93  CA         8.9010   -8.4950   30.7660 C.3    92  ARG92       0.1563
     94  C          9.1450   -9.9930   30.5900 C.2    92  ARG92       0.2260
     95  O          9.2650  -10.7170   31.5730 O.2    92  ARG92      -0.2867
     96  CB         7.3970   -8.3180   31.0040 C.3    92  ARG92       0.0307
     97  CG         6.9160   -6.9470   31.3670 C.3    92  ARG92       0.0489
     98  CD         5.5420   -7.0620   32.0300 C.3    92  ARG92       0.2205
     99  NE         4.5060   -7.6280   31.1600 N.pl3  92  ARG92      -0.0865
    100  CZ         3.8450   -6.9490   30.2200 C.cat  92  ARG92       0.5346
    101  NH1        4.1000   -5.6670   29.9950 N.pl3  92  ARG92       0.1354
    102  NH2        2.8830   -7.5350   29.5260 N.pl3  92  ARG92       0.1354
    103  N          2.6150  -11.9850   29.8050 N.3   102  PHE102     -0.1241
    104  CA         1.6370  -10.9370   29.5550 C.3   102  PHE102      0.1605
    105  C          1.3100  -10.2320   30.8620 C.2   102  PHE102      0.2264
    106  O          1.0160   -9.0410   30.8790 O.2   102  PHE102     -0.2867
    107  CB         0.3760  -11.5420   28.9370 C.3   102  PHE102      0.0534
    108  CG         0.5260  -11.8940   27.4830 C.ar  102  PHE102     -0.0203
    109  CD1        0.3560  -10.9220   26.4980 C.ar  102  PHE102     -0.0042
    110  CD2        0.8380  -13.1930   27.0920 C.ar  102  PHE102     -0.0042
    111  CE1        0.4920  -11.2380   25.1460 C.ar  102  PHE102     -0.0003
    112  CE2        0.9770  -13.5150   25.7350 C.ar  102  PHE102     -0.0003
    113  CZ         0.8020  -12.5320   24.7660 C.ar  102  PHE102     -0.0000
    114  N         -2.2200  -16.6010   15.6490 N.3   119  MET119     -0.1245
    115  CA        -1.5320  -16.0200   16.7850 C.3   119  MET119      0.1570
    116  C         -0.1300  -16.5780   17.0130 C.2   119  MET119      0.2261
    117  O          0.7650  -15.8470   17.4450 O.2   119  MET119     -0.2867
    118  CB        -2.3610  -16.2010   18.0570 C.3   119  MET119      0.0387
    119  CG        -1.6920  -15.6340   19.2960 C.3   119  MET119      0.0595
    120  SD        -1.2200  -13.8990   19.0670 S.3   119  MET119     -0.1393
    121  CE        -2.6070  -13.0780   19.8180 C.3   119  MET119      0.0692
    122  N          2.7750  -14.6750   15.4280 N.3   122  ILE122     -0.1245
    123  CA         3.1020  -13.4500   16.1430 C.3   122  ILE122      0.1561
    124  C          3.8410  -13.7970   17.4210 C.2   122  ILE122      0.2260
    125  O          4.7820  -13.1100   17.8030 O.2   122  ILE122     -0.2867
    126  CB         1.8400  -12.6750   16.5000 C.3   122  ILE122      0.0252
    127  CG1        1.0530  -12.3680   15.2220 C.3   122  ILE122      0.0019
    128  CG2        2.2110  -11.3960   17.2450 C.3   122  ILE122      0.0019
    129  CD1       -0.3160  -11.7880   15.4830 C.3   122  ILE122      0.0001
    130  N          7.6330  -12.4940   18.7570 N.3   126  LEU126     -0.1245
    131  CA         7.7960  -11.8880   20.0730 C.3   126  LEU126      0.1561
    132  C          8.7970  -12.6910   20.9130 C.2   126  LEU126      0.2260
    133  O          9.6200  -12.1120   21.6280 O.2   126  LEU126     -0.2867
    134  CB         6.4420  -11.8130   20.7900 C.3   126  LEU126      0.0270
    135  CG         5.4360  -10.7710   20.2670 C.3   126  LEU126      0.0019
    136  CD1        4.0090  -11.1820   20.5940 C.3   126  LEU126      0.0001
    137  CD2        5.7600   -9.4190   20.8700 C.3   126  LEU126      0.0001
    138  N          0.4160   -7.6200   14.2290 N.3   208  GLY208     -0.1225
    139  CA        -0.5610   -7.7310   15.2960 C.3   208  GLY208      0.1811
    140  C         -1.7560   -6.8160   15.1040 C.2   208  GLY208      0.2280
    141  O         -2.8510   -7.1270   15.5560 O.2   208  GLY208     -0.2866
    142  N         -3.8960   -8.6040   12.5980 N.3   211  HIS211     -0.1226
    143  CA        -4.4640   -9.7640   13.2670 C.3   211  HIS211      0.1752
    144  C         -5.5450   -9.3460   14.2560 C.2   211  HIS211      0.2595
    145  O         -6.5690  -10.0160   14.3920 O.2   211  HIS211     -0.2718
    146  CB        -3.3630  -10.5530   13.9860 C.3   211  HIS211      0.0759
    147  CG        -3.8660  -11.7550   14.7230 C.ar  211  HIS211      0.0818
    148  ND1       -4.4850  -11.6700   15.9520 N.ar  211  HIS211     -0.2268
    149  CD2       -3.8860  -13.0670   14.3840 C.ar  211  HIS211      0.1154
    150  CE1       -4.8650  -12.8730   16.3390 C.ar  211  HIS211      0.1986
    151  NE2       -4.5140  -13.7390   15.4040 N.ar  211  HIS211     -0.2212
    152  N         -5.3260   -8.2290   14.9390 N.am  212  LEU212     -0.1980
    153  CA        -6.2980   -7.7540   15.9050 C.3   212  LEU212      0.1596
    154  C         -7.5610   -7.2820   15.1830 C.2   212  LEU212      0.2287
    155  O         -8.6700   -7.4960   15.6580 O.2   212  LEU212     -0.2864
    156  CB        -5.6980   -6.6220   16.7440 C.3   212  LEU212      0.0297
    157  CG        -6.4400   -6.2780   18.0390 C.3   212  LEU212      0.0022
    158  CD1       -6.6310   -7.5390   18.8870 C.3   212  LEU212      0.0001
    159  CD2       -5.6460   -5.2250   18.8070 C.3   212  LEU212      0.0001
    160  N         -9.1650    0.7560   23.7650 N.3   227  LEU227     -0.1245
    161  CA        -8.5040   -0.1360   22.8110 C.3   227  LEU227      0.1561
    162  C         -9.1460   -0.0260   21.4320 C.2   227  LEU227      0.2260
    163  O         -8.4570    0.0970   20.4130 O.2   227  LEU227     -0.2867
    164  CB        -8.5710   -1.5880   23.2990 C.3   227  LEU227      0.0270
    165  CG        -8.1560   -2.6790   22.3070 C.3   227  LEU227      0.0019
    166  CD1       -6.6960   -2.5370   21.9000 C.3   227  LEU227      0.0001
    167  CD2       -8.3900   -4.0270   22.9480 C.3   227  LEU227      0.0001
@<TRIPOS>BOND
     1   142   143    1
     2   143   146    1
     3   143   144    1
     4   146   147    1
     5   138   139    1
     6   144   145    2
     7   144   152   am
     8   149   147   ar
     9   149   151   ar
    10   147   148   ar
    11   152   153    1
    12   140   139    1
    13   140   141    2
    14   154   155    2
    15   154   153    1
    16   127   129    1
    17   127   126    1
    18   151   150   ar
    19   122   123    1
    20   114   115    1
    21   153   156    1
    22   148   150   ar
    23   123   126    1
    24   123   124    1
    25   126   128    1
    26   156   157    1
    27   115   116    1
    28   115   118    1
    29   116   117    2
    30   124   125    2
    31    67    65    1
    32   157   159    1
    33   157   158    1
    34   118   119    1
    35    54    52   ar
    36    54    55   ar
    37    64    65    1
    38    64    61    1
    39    65    66    1
    40    83    82    1
    41   130   131    1
    42    82    81    1
    43    57    55   ar
    44    57    59   ar
    45    52    51   ar
    46   120   119    1
    47   120   121    1
    48    55    53   ar
    49    59    58   ar
    50    46    47    1
    51    60    61    1
    52    60    48   am
    53    61    62    1
    54    62    63    2
    55     7     8    1
    56     7     6    1
    57   131   134    1
    58   131   132    1
    59    51    53   ar
    60    51    50    1
    61    53    56   ar
    62   135   136    1
    63   135   134    1
    64   135   137    1
    65   163   162    2
    66     6     5    1
    67    81    80    1
    68   132   133    2
    69    58    56   ar
    70    47    48    1
    71    47    50    1
    72    48    49    2
    73    80    77    1
    74   162   161    1
    75     5     2    1
    76   166   165    1
    77   165   167    1
    78   165   164    1
    79    77    76    1
    80    77    78    1
    81    23    21    1
    82   161   164    1
    83   161   160    1
    84    76    70   am
    85     2     1    1
    86     2     3    1
    87    78    79    2
    88    68    69    1
    89    15    14    1
    90     3     4    2
    91    21    22    1
    92    21    18    1
    93    74    73    1
    94    72    69    1
    95    72    73    1
    96    70    69    1
    97    70    71    2
    98    91    89    1
    99    73    75    1
   100   113   111   ar
   101   113   112   ar
   102    13    14    1
   103    13    10    1
   104    14    16    1
   105    18    17    1
   106    18    19    1
   107   111   109   ar
   108    17    11   am
   109    89    88    1
   110    89    90    1
   111    36    33    1
   112    88    85    1
   113   112   110   ar
   114    11    10    1
   115    11    12    2
   116    10     9    1
   117    19    20    2
   118    86    85    1
   119    86    87    2
   120   109   108   ar
   121    84    85    1
   122    33    34    1
   123    33    32    1
   124   110   108   ar
   125    34    35    2
   126   108   107    1
   127    32    26   am
   128    44    43   ar
   129   107   104    1
   130    26    27    2
   131    26    25    1
   132    24    25    1
   133    43    45   ar
   134    43    42    1
   135    39    40    2
   136    39    38    1
   137    41    38    1
   138    41    42    1
   139   102   100    1
   140   104   103    1
   141   104   105    1
   142    92    93    1
   143    28    25    1
   144    28    29    1
   145   101   100    1
   146    31    29    1
   147    38    37    1
   148   100    99    2
   149    29    30    1
   150    94    93    1
   151    94    95    2
   152    93    96    1
   153   105   106    2
   154    96    97    1
   155    99    98    1
   156    97    98    1
