@<TRIPOS>MOLECULE
tmp/4dmgA00.pdb
 209 205 0 0 0
SMALL
GASTEIGER

@<TRIPOS>ATOM
      1  N         52.3060   26.0130   68.4540 N.3   193  GLN193     -0.1245
      2  CA        52.0840   24.6970   69.0640 C.3   193  GLN193      0.1566
      3  C         50.7880   24.6870   69.8750 C.2   193  GLN193      0.2260
      4  O         50.5280   25.6120   70.6490 O.2   193  GLN193     -0.2867
      5  CB        53.2540   24.3070   69.9750 C.3   193  GLN193      0.0367
      6  CG        54.5430   23.9720   69.2340 C.3   193  GLN193      0.0905
      7  CD        55.6990   23.6840   70.1720 C.2   193  GLN193      0.2608
      8  OE1       55.4900   23.3200   71.3310 O.2   193  GLN193     -0.2717
      9  NE2       56.9310   23.8570   69.6780 N.am  193  GLN193     -0.0878
     10  N         50.1320   28.6170   73.0820 N.3   197  TYR197     -0.1227
     11  CA        50.8630   29.0610   74.2630 C.3   197  TYR197      0.1736
     12  C         50.5340   28.1990   75.4920 C.2   197  TYR197      0.2595
     13  O         49.3850   27.7860   75.6800 O.2   197  TYR197     -0.2718
     14  CB        50.5000   30.5230   74.5090 C.3   197  TYR197      0.0548
     15  CG        51.3090   31.2210   75.5610 C.ar  197  TYR197     -0.0200
     16  CD1       50.8110   31.3860   76.8470 C.ar  197  TYR197     -0.0009
     17  CD2       52.5660   31.7320   75.2710 C.ar  197  TYR197     -0.0009
     18  CE1       51.5460   32.0310   77.8160 C.ar  197  TYR197      0.0417
     19  CE2       53.3110   32.3790   76.2340 C.ar  197  TYR197      0.0417
     20  CZ        52.7930   32.5310   77.5030 C.ar  197  TYR197      0.1957
     21  OH        53.5240   33.1680   78.4690 O.3   197  TYR197     -0.2866
     22  N         51.5470   27.9320   76.3180 N.am  198  TYR198     -0.1976
     23  CA        51.4240   27.1000   77.5200 C.3   198  TYR198      0.1639
     24  C         51.0030   27.9190   78.7450 C.2   198  TYR198      0.2290
     25  O         51.8340   28.3940   79.5300 O.2   198  TYR198     -0.2864
     26  CB        52.7270   26.3120   77.7820 C.3   198  TYR198      0.0560
     27  CG        53.0210   25.3450   76.6550 C.ar  198  TYR198     -0.0198
     28  CD1       52.4470   24.0770   76.6350 C.ar  198  TYR198     -0.0009
     29  CD2       53.8300   25.7150   75.5880 C.ar  198  TYR198     -0.0009
     30  CE1       52.6860   23.1940   75.5910 C.ar  198  TYR198      0.0417
     31  CE2       54.0720   24.8410   74.5360 C.ar  198  TYR198      0.0417
     32  CZ        53.4960   23.5810   74.5440 C.ar  198  TYR198      0.1957
     33  OH        53.7330   22.7080   73.5000 O.3   198  TYR198     -0.2866
     34  N         51.8380   26.9690   82.6730 N.3   201  GLN201     -0.1245
     35  CA        53.0870   27.2860   83.3800 C.3   201  GLN201      0.1566
     36  C         53.0980   28.7000   83.9810 C.2   201  GLN201      0.2260
     37  O         54.1160   29.1540   84.4980 O.2   201  GLN201     -0.2867
     38  CB        54.2870   27.1160   82.4410 C.3   201  GLN201      0.0367
     39  CG        54.6700   25.6590   82.1820 C.3   201  GLN201      0.0905
     40  CD        55.3690   25.0050   83.3690 C.2   201  GLN201      0.2608
     41  OE1       55.4020   25.5500   84.4680 O.2   201  GLN201     -0.2717
     42  NE2       55.9200   23.8210   83.1460 N.am  201  GLN201     -0.0878
     43  N         56.0810   30.3600   86.2250 N.3   205  ARG205     -0.1245
     44  CA        56.8540   31.4600   85.6580 C.3   205  ARG205      0.1563
     45  C         56.9090   32.6340   86.6320 C.2   205  ARG205      0.2260
     46  O         57.9550   33.2680   86.7790 O.2   205  ARG205     -0.2867
     47  CB        56.2980   31.8840   84.2860 C.3   205  ARG205      0.0307
     48  CG        56.5520   30.8250   83.2040 C.3   205  ARG205      0.0489
     49  CD        56.2390   31.2680   81.7650 C.3   205  ARG205      0.2205
     50  NE        54.8050   31.3920   81.5380 N.pl3 205  ARG205     -0.0865
     51  CZ        54.0680   30.5950   80.7650 C.cat 205  ARG205      0.5346
     52  NH1       54.6020   29.5830   80.0810 N.pl3 205  ARG205      0.1354
     53  NH2       52.7720   30.8300   80.6710 N.pl3 205  ARG205      0.1354
     54  N         67.3130   27.9530   80.1770 N.3   220  ASP220     -0.1239
     55  CA        65.8900   27.6520   79.9990 C.3   220  ASP220      0.1674
     56  C         65.7280   26.5910   78.9090 C.2   220  ASP220      0.2266
     57  O         65.7560   26.9000   77.7240 O.2   220  ASP220     -0.2867
     58  CB        65.1250   28.9390   79.6510 C.3   220  ASP220      0.1410
     59  CG        63.6370   28.7080   79.4340 C.2   220  ASP220      0.3668
     60  OD1       63.1310   27.6400   79.8360 O.co2 220  ASP220     -0.2456
     61  OD2       62.9720   29.6080   78.8680 O.co2 220  ASP220     -0.2456
     62  N         63.8550   23.5170   76.7910 N.3   222  TYR222     -0.1227
     63  CA        62.5150   23.3830   76.2100 C.3   222  TYR222      0.1736
     64  C         61.7720   24.6980   76.4200 C.2   222  TYR222      0.2596
     65  O         60.6990   24.7430   77.0240 O.2   222  TYR222     -0.2718
     66  CB        61.7230   22.2400   76.8400 C.3   222  TYR222      0.0548
     67  CG        62.4240   20.9000   76.9310 C.ar  222  TYR222     -0.0200
     68  CD1       62.3060   19.9590   75.9190 C.ar  222  TYR222     -0.0009
     69  CD2       63.1700   20.5590   78.0570 C.ar  222  TYR222     -0.0009
     70  CE1       62.9290   18.7210   76.0120 C.ar  222  TYR222      0.0417
     71  CE2       63.7870   19.3210   78.1610 C.ar  222  TYR222      0.0417
     72  CZ        63.6610   18.4100   77.1370 C.ar  222  TYR222      0.1957
     73  OH        64.2720   17.1820   77.2380 O.3   222  TYR222     -0.2866
     74  N         62.3620   25.7710   75.9100 N.am  223  SER223     -0.1938
     75  CA        61.9310   27.1180   76.2370 C.3   223  SER223      0.2055
     76  C         60.6210   27.5180   75.5800 C.2   223  SER223      0.2643
     77  O         59.9530   28.4260   76.0610 O.2   223  SER223     -0.2714
     78  CB        63.0030   28.1280   75.8170 C.3   223  SER223      0.2130
     79  OG        63.1620   28.1330   74.4020 O.3   223  SER223     -0.2179
     80  N         60.2790   26.8480   74.4820 N.am  224  TYR224     -0.1959
     81  CA        59.2400   27.3280   73.5690 C.3   224  TYR224      0.1771
     82  C         59.5120   28.8090   73.2950 C.2   224  TYR224      0.2619
     83  O         60.6540   29.1850   73.0230 O.2   224  TYR224     -0.2715
     84  CB        57.8260   27.0730   74.1290 C.3   224  TYR224      0.0574
     85  CG        56.6950   27.3270   73.1330 C.ar  224  TYR224     -0.0198
     86  CD1       56.7450   26.8180   71.8380 C.ar  224  TYR224     -0.0009
     87  CD2       55.5740   28.0660   73.5000 C.ar  224  TYR224     -0.0009
     88  CE1       55.7070   27.0570   70.9320 C.ar  224  TYR224      0.0417
     89  CE2       54.5400   28.3020   72.6090 C.ar  224  TYR224      0.0417
     90  CZ        54.6090   27.7980   71.3280 C.ar  224  TYR224      0.1957
     91  OH        53.5660   28.0520   70.4470 O.3   224  TYR224     -0.2866
     92  N         58.4940   29.6550   73.3910 N.am  225  VAL225     -0.1977
     93  CA        58.6690   31.0680   73.0470 C.3   225  VAL225      0.1596
     94  C         59.3500   31.8890   74.1390 C.2   225  VAL225      0.2287
     95  O         59.4830   33.1050   74.0150 O.2   225  VAL225     -0.2864
     96  CB        57.3430   31.7280   72.6210 C.3   225  VAL225      0.0276
     97  CG1       56.7840   31.0050   71.4020 C.3   225  VAL225      0.0022
     98  CG2       56.3400   31.7320   73.7830 C.3   225  VAL225      0.0022
     99  N         58.9500   32.1360   77.7660 N.3   227  GLY227     -0.1210
    100  CA        58.3120   32.6950   78.9480 C.3   227  GLY227      0.1956
    101  C         59.2260   32.7630   80.1630 C.2   227  GLY227      0.2611
    102  O         59.3050   33.7940   80.8350 O.2   227  GLY227     -0.2717
    103  N         59.9290   31.6720   80.4520 N.am  228  PHE228     -0.1976
    104  CA        60.8870   31.6920   81.5560 C.3   228  PHE228      0.1639
    105  C         62.1170   32.5570   81.2300 C.2   228  PHE228      0.2290
    106  O         62.5150   33.4070   82.0330 O.2   228  PHE228     -0.2864
    107  CB        61.3070   30.2670   81.9640 C.3   228  PHE228      0.0560
    108  CG        60.2100   29.4640   82.6370 C.ar  228  PHE228     -0.0200
    109  CD1       60.0620   29.4870   84.0120 C.ar  228  PHE228     -0.0042
    110  CD2       59.3430   28.6710   81.8950 C.ar  228  PHE228     -0.0042
    111  CE1       59.0750   28.7440   84.6410 C.ar  228  PHE228     -0.0003
    112  CE2       58.3450   27.9230   82.5220 C.ar  228  PHE228     -0.0003
    113  CZ        58.2200   27.9540   83.8970 C.ar  228  PHE228     -0.0000
    114  N         66.9050   27.1700   75.0980 N.3   242  VAL242     -0.1231
    115  CA        67.1560   26.0210   74.2240 C.3   242  VAL242      0.1692
    116  C         65.8360   25.3900   73.7830 C.2   242  VAL242      0.2592
    117  O         65.0070   25.0140   74.6110 O.2   242  VAL242     -0.2718
    118  CB        67.9660   24.9370   74.9570 C.3   242  VAL242      0.0266
    119  CG1       68.3040   23.7860   74.0160 C.3   242  VAL242      0.0020
    120  CG2       69.2350   25.5430   75.5640 C.3   242  VAL242      0.0020
    121  N         65.6480   25.2730   72.4780 N.am  243  ASP243     -0.1960
    122  CA        64.4730   24.5890   71.9500 C.3   243  ASP243      0.1840
    123  C         64.7880   24.1030   70.5460 C.2   243  ASP243      0.2622
    124  O         65.5830   24.7120   69.8460 O.2   243  ASP243     -0.2715
    125  CB        63.2690   25.5270   71.9060 C.3   243  ASP243      0.1450
    126  CG        61.9480   24.7780   71.9300 C.2   243  ASP243      0.3671
    127  OD1       61.5560   24.2010   70.8870 O.co2 243  ASP243     -0.2456
    128  OD2       61.3060   24.7580   73.0030 O.co2 243  ASP243     -0.2456
    129  N         64.1510   23.0170   70.1300 N.am  244  LYS244     -0.1963
    130  CA        64.4040   22.4880   68.7940 C.3   244  LYS244      0.1728
    131  C         63.4420   23.0610   67.7530 C.2   244  LYS244      0.2616
    132  O         63.5680   22.7680   66.5650 O.2   244  LYS244     -0.2715
    133  CB        64.3280   20.9630   68.7990 C.3   244  LYS244      0.0311
    134  CG        62.9130   20.4110   68.8150 C.3   244  LYS244      0.0038
    135  CD        62.9460   18.8970   68.7260 C.3   244  LYS244      0.0206
    136  CE        61.5700   18.3340   68.4220 C.3   244  LYS244      0.1093
    137  NZ        61.6270   16.8740   68.1390 N.3   244  LYS244     -0.1314
    138  N         62.4870   23.8720   68.2060 N.am  245  ASP245     -0.1971
    139  CA        61.5170   24.5020   67.3160 C.3   245  ASP245      0.1709
    140  C         61.9870   25.9090   66.9660 C.2   245  ASP245      0.2293
    141  O         61.8470   26.8360   67.7660 O.2   245  ASP245     -0.2864
    142  CB        60.1430   24.5550   67.9870 C.3   245  ASP245      0.1436
    143  CG        59.0370   25.0120   67.0370 C.2   245  ASP245      0.3671
    144  OD1       59.3230   25.7470   66.0760 O.co2 245  ASP245     -0.2456
    145  OD2       57.8690   24.6430   67.2670 O.co2 245  ASP245     -0.2456
    146  N         68.4590   23.7140   69.1030 N.3   268  GLY268     -0.1210
    147  CA        68.9860   22.3750   69.2160 C.3   268  GLY268      0.1956
    148  C         68.1700   21.5590   70.1860 C.2   268  GLY268      0.2612
    149  O         67.2830   22.0830   70.8680 O.2   268  GLY268     -0.2717
    150  N         68.4620   20.2660   70.2350 N.am  269  GLU269     -0.1965
    151  CA        67.7690   19.3780   71.1480 C.3   269  GLU269      0.1733
    152  C         68.3850   19.4720   72.5390 C.2   269  GLU269      0.2616
    153  O         69.5790   19.7290   72.6910 O.2   269  GLU269     -0.2715
    154  CB        67.7960   17.9440   70.6260 C.3   269  GLU269      0.0429
    155  CG        66.8950   17.7680   69.4120 C.3   269  GLU269      0.1163
    156  CD        67.0700   16.4260   68.7310 C.2   269  GLU269      0.3649
    157  OE1       67.6620   15.5090   69.3360 O.co2 269  GLU269     -0.2457
    158  OE2       66.6090   16.3020   67.5830 O.co2 269  GLU269     -0.2457
    159  N         67.5530   19.2540   73.5510 N.am  270  ALA270     -0.1963
    160  CA        67.9330   19.4440   74.9460 C.3   270  ALA270      0.1728
    161  C         69.1430   18.6460   75.4040 C.2   270  ALA270      0.2616
    162  O         70.1260   19.2090   75.8860 O.2   270  ALA270     -0.2715
    163  CB        66.7520   19.1200   75.8380 C.3   270  ALA270      0.0334
    164  N         69.0670   17.3260   75.2850 N.am  271  LEU271     -0.1977
    165  CA        70.1430   16.4930   75.8100 C.3   271  LEU271      0.1596
    166  C         71.4640   16.7150   75.0500 C.2   271  LEU271      0.2287
    167  O         72.5140   16.8930   75.6790 O.2   271  LEU271     -0.2864
    168  CB        69.7290   15.0120   75.8740 C.3   271  LEU271      0.0297
    169  CG        70.7910   14.0510   76.4100 C.3   271  LEU271      0.0022
    170  CD1       71.2670   14.4960   77.7930 C.3   271  LEU271      0.0001
    171  CD2       70.2620   12.6200   76.4530 C.3   271  LEU271      0.0001
    172  N         61.5430   21.7530   81.0190 N.3   287  ASP287     -0.1225
    173  CA        60.0960   21.6150   80.8100 C.3   287  ASP287      0.1790
    174  C         59.8070   20.7480   79.5920 C.2   287  ASP287      0.2440
    175  O         59.3310   21.2420   78.5690 O.2   287  ASP287     -0.2733
    176  CB        59.4590   22.9930   80.6330 C.3   287  ASP287      0.1423
    177  CG        57.9360   22.9520   80.6650 C.2   287  ASP287      0.3668
    178  OD1       57.3600   21.9420   81.1200 O.co2 287  ASP287     -0.2456
    179  OD2       57.3160   23.9480   80.2400 O.co2 287  ASP287     -0.2456
    180  N         60.0910   19.4470   79.6940 N.am  288  PRO288     -0.2718
    181  CA        59.9830   18.5880   78.5130 C.3   288  PRO288      0.1520
    182  C         58.5470   18.4480   78.0110 C.2   288  PRO288      0.2440
    183  O         57.5970   18.7570   78.7430 O.2   288  PRO288     -0.2731
    184  CB        60.5150   17.2380   79.0180 C.3   288  PRO288      0.0310
    185  CG        60.3220   17.2960   80.5170 C.3   288  PRO288      0.0237
    186  CD        60.6100   18.7160   80.8640 C.3   288  PRO288      0.0939
    187  N         58.3850   18.0090   76.7530 N.am  289  PRO289     -0.2727
    188  CA        57.0580   17.6640   76.2330 C.3   289  PRO289      0.1402
    189  C         56.5120   16.4350   76.9590 C.2   289  PRO289      0.2269
    190  O         57.2000   15.8840   77.8060 O.2   289  PRO289     -0.2865
    191  CB        57.3360   17.3450   74.7610 C.3   289  PRO289      0.0296
    192  CG        58.7570   16.9220   74.7320 C.3   289  PRO289      0.0237
    193  CD        59.4460   17.7850   75.7540 C.3   289  PRO289      0.0939
    194  N         65.8280    8.3330   80.0330 N.3   304  HIS304     -0.1241
    195  CA        66.1670    9.5590   79.3130 C.3   304  HIS304      0.1621
    196  C         66.2530   10.7580   80.2560 C.2   304  HIS304      0.2264
    197  O         67.1680   11.5730   80.1540 O.2   304  HIS304     -0.2867
    198  CB        65.1580    9.8350   78.1980 C.3   304  HIS304      0.0745
    199  CG        65.4200   11.1080   77.4520 C.ar  304  HIS304      0.0817
    200  ND1       66.5820   11.3310   76.7410 N.ar  304  HIS304     -0.2268
    201  CD2       64.6730   12.2290   77.3110 C.ar  304  HIS304      0.1154
    202  CE1       66.5380   12.5340   76.1970 C.ar  304  HIS304      0.1986
    203  NE2       65.3870   13.0980   76.5220 N.ar  304  HIS304     -0.2212
    204  N         54.5550   16.9820   82.2180 N.3   327  CYS327     -0.1235
    205  CA        53.1920   17.2960   81.8010 C.3   327  CYS327      0.1677
    206  C         52.4460   16.0510   81.3330 C.2   327  CYS327      0.2270
    207  O         51.4620   16.1410   80.5960 O.2   327  CYS327     -0.2867
    208  CB        53.1740   18.3990   80.7370 C.3   327  CYS327      0.0956
    209  SG        54.0730   18.0060   79.2180 S.3   327  CYS327     -0.0801
@<TRIPOS>BOND
     1   144   143   ar
     2   132   131    2
     3   140   139    1
     4   140   141    2
     5   143   145   ar
     6   143   142    1
     7   139   142    1
     8   139   138    1
     9   158   156   ar
    10   131   138   am
    11   131   130    1
    12   137   136    1
    13   136   135    1
    14     1     2    1
    15   135   134    1
    16   156   157   ar
    17   156   155    1
    18   130   133    1
    19   130   129    1
    20   133   134    1
    21     2     3    1
    22     2     5    1
    23   146   147    1
    24   147   148    1
    25     6     5    1
    26     6     7    1
    27   155   154    1
    28     9     7   am
    29   124   123    2
    30     3     4    2
    31   129   123   am
    32     7     8    2
    33   148   150   am
    34   148   149    2
    35   150   151    1
    36    91    90    1
    37   123   122    1
    38   154   151    1
    39   127   126   ar
    40    88    90   ar
    41    88    86   ar
    42   151   152    1
    43    90    89   ar
    44    97    96    1
    45    86    85   ar
    46   125   126    1
    47   125   122    1
    48   126   128   ar
    49   122   121    1
    50   121   116   am
    51   152   153    2
    52   152   159   am
    53    89    87   ar
    54    96    93    1
    55    96    98    1
    56    83    82    2
    57    93    92    1
    58    93    94    1
    59    10    11    1
    60    85    87   ar
    61    85    84    1
    62    82    92   am
    63    82    81    1
    64    33    32    1
    65   159   160    1
    66    81    84    1
    67    81    80    1
    68   116   115    1
    69   116   117    2
    70    95    94    2
    71   119   118    1
    72   115   118    1
    73   115   114    1
    74    11    14    1
    75    11    12    1
    76    79    78    1
    77    80    76   am
    78    14    15    1
    79    31    32   ar
    80    31    29   ar
    81    32    30   ar
    82   192   191    1
    83   192   193    1
    84   191   188    1
    85   160   161    1
    86   160   163    1
    87   118   120    1
    88   166   167    2
    89   166   165    1
    90    17    15   ar
    91    17    19   ar
    92   164   161   am
    93   164   165    1
    94   161   162    2
    95    12    13    2
    96    12    22   am
    97    15    16   ar
    98    76    77    2
    99    76    75    1
   100    29    27   ar
   101    30    28   ar
   102   193   187    1
   103   165   168    1
   104    78    75    1
   105   168   169    1
   106    74    75    1
   107    74    64   am
   108    68    70   ar
   109    68    67   ar
   110    70    72   ar
   111   202   203   ar
   112   202   200   ar
   113    63    64    1
   114    63    62    1
   115    63    66    1
   116   188   187    1
   117   188   189    1
   118    19    20   ar
   119    22    23    1
   120   169   171    1
   121   169   170    1
   122    64    65    2
   123   203   201   ar
   124    28    27   ar
   125    27    26    1
   126   200   199   ar
   127   187   182   am
   128    66    67    1
   129    16    18   ar
   130    67    69   ar
   131   189   190    2
   132    72    73    1
   133    72    71   ar
   134   201   199   ar
   135   199   198    1
   136    20    18   ar
   137    20    21    1
   138    23    26    1
   139    23    24    1
   140    57    56    2
   141    99   100    1
   142   182   181    1
   143   182   183    2
   144    69    71   ar
   145   198   195    1
   146   181   184    1
   147   181   180    1
   148   175   174    2
   149    24    25    2
   150    61    59   ar
   151    56    55    1
   152   100   101    1
   153   184   185    1
   154   209   208    1
   155   195   194    1
   156   195   196    1
   157    59    58    1
   158    59    60   ar
   159   174   180   am
   160   174   173    1
   161    58    55    1
   162   180   186    1
   163    55    54    1
   164    52    51    1
   165   197   196    2
   166   101   103   am
   167   101   102    2
   168   179   177   ar
   169   103   104    1
   170   185   186    1
   171   207   206    2
   172   176   177    1
   173   176   173    1
   174   177   178   ar
   175    53    51    1
   176   208   205    1
   177    51    50    2
   178   173   172    1
   179   105   104    1
   180   105   106    2
   181   206   205    1
   182    50    49    1
   183   104   107    1
   184    49    48    1
   185   205   204    1
   186   110   112   ar
   187   110   108   ar
   188   107   108    1
   189    39    38    1
   190    39    40    1
   191    38    35    1
   192   112   113   ar
   193   108   109   ar
   194    34    35    1
   195    42    40   am
   196    48    47    1
   197    40    41    2
   198    35    36    1
   199   113   111   ar
   200    36    37    2
   201   109   111   ar
   202    47    44    1
   203    44    43    1
   204    44    45    1
   205    45    46    2
