@<TRIPOS>MOLECULE
tmp/4dmoA00.pdb
 108 105 0 0 0
SMALL
GASTEIGER

@<TRIPOS>ATOM
      1  N         90.0710  -36.5100   52.7460 N.3    95  TYR95      -0.1241
      2  CA        89.3510  -37.4470   53.5880 C.3    95  TYR95       0.1605
      3  C         88.1830  -36.7440   54.2320 C.2    95  TYR95       0.2264
      4  O         88.2760  -35.5910   54.6420 O.2    95  TYR95      -0.2867
      5  CB        90.2480  -38.0010   54.6770 C.3    95  TYR95       0.0534
      6  CG        89.6400  -39.1470   55.4660 C.ar   95  TYR95      -0.0201
      7  CD1       89.5860  -40.4270   54.9130 C.ar   95  TYR95      -0.0009
      8  CD2       89.1650  -38.9660   56.7760 C.ar   95  TYR95      -0.0009
      9  CE1       89.0670  -41.4840   55.6090 C.ar   95  TYR95       0.0417
     10  CE2       88.6350  -40.0380   57.4930 C.ar   95  TYR95       0.0417
     11  CZ        88.5880  -41.2970   56.8960 C.ar   95  TYR95       0.1957
     12  OH        88.0780  -42.3950   57.5610 O.3    95  TYR95      -0.2866
     13  N         86.4520  -36.8650   57.2280 N.3    97  ALA97      -0.1245
     14  CA        86.4580  -37.3310   58.6040 C.3    97  ALA97       0.1562
     15  C         85.0470  -37.5330   59.1500 C.2    97  ALA97       0.2260
     16  O         84.7800  -38.5350   59.8160 O.2    97  ALA97      -0.2867
     17  CB        87.2240  -36.3610   59.4770 C.3    97  ALA97       0.0290
     18  N         83.7000  -40.6820   57.7770 N.3   100  SER100     -0.1217
     19  CA        84.7320  -41.7100   57.7560 C.3   100  SER100      0.1889
     20  C         84.8790  -42.3730   56.3790 C.2   100  SER100      0.2288
     21  O         84.7560  -43.5780   56.2430 O.2   100  SER100     -0.2866
     22  CB        84.4280  -42.7880   58.8080 C.3   100  SER100      0.2089
     23  OG        84.4970  -42.2660   60.1230 O.3   100  SER100     -0.2183
     24  N         86.7150  -41.5920   52.0960 N.3   102  TRP102     -0.1241
     25  CA        87.4690  -40.7230   51.2170 C.3   102  TRP102      0.1605
     26  C         86.5540  -39.9080   50.3570 C.2   102  TRP102      0.2264
     27  O         85.4410  -40.3100   50.0880 O.2   102  TRP102     -0.2867
     28  CB        88.3970  -41.5280   50.3120 C.3   102  TRP102      0.0550
     29  CG        89.4510  -42.2650   51.0480 C.ar  102  TRP102      0.0003
     30  CD1       89.4550  -43.5980   51.3460 C.ar  102  TRP102      0.0946
     31  CD2       90.6660  -41.7160   51.5720 C.ar  102  TRP102      0.0152
     32  NE1       90.6090  -43.9170   52.0230 N.ar  102  TRP102     -0.2442
     33  CE2       91.3670  -42.7900   52.1910 C.ar  102  TRP102      0.0810
     34  CE3       91.2470  -40.4410   51.5960 C.ar  102  TRP102      0.0012
     35  CZ2       92.5960  -42.6140   52.8120 C.ar  102  TRP102      0.0191
     36  CZ3       92.4740  -40.2710   52.2070 C.ar  102  TRP102      0.0001
     37  CH2       93.1290  -41.3570   52.8200 C.ar  102  TRP102      0.0015
     38  N        103.0770  -41.4640   56.0180 N.3   154  GLU154     -0.1245
     39  CA       102.1800  -42.5690   56.2910 C.3   154  GLU154      0.1567
     40  C        101.4950  -43.0840   55.0330 C.2   154  GLU154      0.2260
     41  O        100.7840  -42.3640   54.3280 O.2   154  GLU154     -0.2867
     42  CB       101.1330  -42.1790   57.3090 C.3   154  GLU154      0.0388
     43  CG       100.2310  -43.3400   57.6550 C.3   154  GLU154      0.1160
     44  CD        99.2910  -43.0310   58.7980 C.2   154  GLU154      0.3649
     45  OE1       98.0760  -42.9510   58.5400 O.co2 154  GLU154     -0.2457
     46  OE2       99.7670  -42.8730   59.9540 O.co2 154  GLU154     -0.2457
     47  N         98.8980  -44.7470   52.9700 N.3   156  THR156     -0.1203
     48  CA        97.4810  -45.0480   52.9480 C.3   156  THR156      0.1994
     49  C         97.2720  -45.4800   51.5290 C.2   156  THR156      0.2617
     50  O         98.2090  -45.4890   50.7210 O.2   156  THR156     -0.2717
     51  CB        96.5340  -43.8210   53.2210 C.3   156  THR156      0.1784
     52  OG1       96.6070  -42.9070   52.1270 O.3   156  THR156     -0.2211
     53  CG2       96.8850  -43.0960   54.5090 C.3   156  THR156      0.0376
     54  N         96.0310  -45.8000   51.2160 N.am  157  GLU157     -0.1979
     55  CA        95.6720  -46.1680   49.8670 C.3   157  GLU157      0.1602
     56  C         95.5130  -44.9200   48.9800 C.2   157  GLU157      0.2287
     57  O         95.1390  -45.0430   47.8170 O.2   157  GLU157     -0.2864
     58  CB        94.3760  -46.9600   49.8790 C.3   157  GLU157      0.0415
     59  CG        93.1580  -46.1100   50.1950 C.3   157  GLU157      0.1163
     60  CD        91.8660  -46.9260   50.2680 C.2   157  GLU157      0.3649
     61  OE1       91.4200  -47.2860   51.3940 O.co2 157  GLU157     -0.2457
     62  OE2       91.3110  -47.1940   49.1870 O.co2 157  GLU157     -0.2457
     63  N         97.5510  -33.8070   58.5980 N.3   164  GLU164     -0.1245
     64  CA        96.6680  -33.9540   59.7220 C.3   164  GLU164      0.1567
     65  C         96.3740  -32.5950   60.3120 C.2   164  GLU164      0.2260
     66  O         97.1460  -31.6660   60.1890 O.2   164  GLU164     -0.2867
     67  CB        97.3350  -34.8160   60.8000 C.3   164  GLU164      0.0388
     68  CG        96.9950  -36.2810   60.7430 C.3   164  GLU164      0.1160
     69  CD        97.8220  -37.0790   61.7160 C.2   164  GLU164      0.3649
     70  OE1       98.9650  -36.6540   61.9890 O.co2 164  GLU164     -0.2457
     71  OE2       97.3270  -38.1040   62.2290 O.co2 164  GLU164     -0.2457
     72  N         90.8770  -33.7460   68.3460 N.3   169  ASP169     -0.1225
     73  CA        92.1000  -34.5120   68.2240 C.3   169  ASP169      0.1805
     74  C         92.4910  -34.5380   66.7500 C.2   169  ASP169      0.2598
     75  O         91.6890  -34.2240   65.8690 O.2   169  ASP169     -0.2718
     76  CB        91.9220  -35.9330   68.7970 C.3   169  ASP169      0.1424
     77  CG        90.7090  -36.6650   68.2110 C.2   169  ASP169      0.3668
     78  OD1       90.8910  -37.5610   67.3550 O.co2 169  ASP169     -0.2456
     79  OD2       89.5640  -36.3440   68.5960 O.co2 169  ASP169     -0.2456
     80  N         93.7400  -34.9030   66.5070 N.am  170  TRP170     -0.1962
     81  CA        94.2800  -34.9720   65.1830 C.3   170  TRP170      0.1771
     82  C         93.4050  -35.8100   64.2590 C.2   170  TRP170      0.2620
     83  O         92.9800  -36.9020   64.5960 O.2   170  TRP170     -0.2715
     84  CB        95.6790  -35.5370   65.2490 C.3   170  TRP170      0.0590
     85  CG        96.6370  -34.5880   65.8340 C.ar  170  TRP170      0.0006
     86  CD1       97.2210  -34.6760   67.0590 C.ar  170  TRP170      0.0946
     87  CD2       97.1390  -33.3920   65.2420 C.ar  170  TRP170      0.0152
     88  NE1       98.0610  -33.6200   67.2620 N.ar  170  TRP170     -0.2442
     89  CE2       98.0260  -32.7990   66.1380 C.ar  170  TRP170      0.0810
     90  CE3       96.9260  -32.7530   64.0040 C.ar  170  TRP170      0.0012
     91  CZ2       98.6970  -31.6190   65.8910 C.ar  170  TRP170      0.0191
     92  CZ3       97.5970  -31.5910   63.7370 C.ar  170  TRP170      0.0001
     93  CH2       98.4760  -31.0310   64.6700 C.ar  170  TRP170      0.0015
     94  N         93.0900  -35.2600   63.1020 N.am  171  THR171     -0.1937
     95  CA        92.3000  -35.9840   62.1160 C.3   171  THR171      0.2028
     96  C         92.8840  -35.7520   60.7180 C.2   171  THR171      0.2642
     97  O         93.5000  -34.7140   60.4440 O.2   171  THR171     -0.2714
     98  CB        90.8110  -35.5910   62.2120 C.3   171  THR171      0.1808
     99  OG1       90.6910  -34.1710   62.3070 O.3   171  THR171     -0.2208
    100  CG2       90.2050  -36.1700   63.4850 C.3   171  THR171      0.0379
    101  N         92.7450  -36.7660   59.8680 N.am  172  LEU172     -0.1977
    102  CA        93.2680  -36.7440   58.5290 C.3   172  LEU172      0.1596
    103  C         92.5490  -35.6980   57.6870 C.2   172  LEU172      0.2287
    104  O         91.3180  -35.7080   57.6180 O.2   172  LEU172     -0.2864
    105  CB        93.0970  -38.1170   57.9040 C.3   172  LEU172      0.0297
    106  CG        93.5640  -38.2440   56.4590 C.3   172  LEU172      0.0022
    107  CD1       95.0020  -37.8140   56.3280 C.3   172  LEU172      0.0001
    108  CD2       93.3720  -39.6910   55.9560 C.3   172  LEU172      0.0001
@<TRIPOS>BOND
     1    57    56    2
     2    56    55    1
     3    62    60   ar
     4    55    58    1
     5    55    54    1
     6    58    59    1
     7    27    26    2
     8    59    60    1
     9    60    61   ar
    10    28    29    1
    11    28    25    1
    12    26    25    1
    13    50    49    2
    14    29    30   ar
    15    29    31   ar
    16    54    49   am
    17    25    24    1
    18    30    32   ar
    19    49    48    1
    20    31    34   ar
    21    31    33   ar
    22    34    36   ar
    23    32    33   ar
    24    52    51    1
    25    33    35   ar
    26    36    37   ar
    27     1     2    1
    28    35    37   ar
    29    48    47    1
    30    48    51    1
    31    51    53    1
    32     2     3    1
    33     2     5    1
    34     3     4    2
    35    41    40    2
    36     5     6    1
    37     7     6   ar
    38     7     9   ar
    39    40    39    1
    40     6     8   ar
    41     9    11   ar
    42   108   106    1
    43    38    39    1
    44    21    20    2
    45    39    42    1
    46   107   106    1
    47    20    19    1
    48   106   105    1
    49     8    10   ar
    50    11    10   ar
    51    11    12    1
    52    13    14    1
    53    42    43    1
    54   104   103    2
    55    43    44    1
    56   103   102    1
    57    19    18    1
    58    19    22    1
    59   105   102    1
    60   102   101    1
    61    45    44   ar
    62    63    64    1
    63    14    15    1
    64    14    17    1
    65    44    46   ar
    66    22    23    1
    67    15    16    2
    68    64    65    1
    69    64    67    1
    70   101    96   am
    71    66    65    2
    72    97    96    2
    73    96    95    1
    74    68    67    1
    75    68    69    1
    76    69    70   ar
    77    69    71   ar
    78    95    98    1
    79    95    94    1
    80    98    99    1
    81    98   100    1
    82    94    82   am
    83    92    90   ar
    84    92    93   ar
    85    90    87   ar
    86    82    83    2
    87    82    81    1
    88    93    91   ar
    89    81    84    1
    90    81    80    1
    91    87    85   ar
    92    87    89   ar
    93    84    85    1
    94    85    86   ar
    95    75    74    2
    96    91    89   ar
    97    89    88   ar
    98    80    74   am
    99    74    73    1
   100    86    88   ar
   101    78    77   ar
   102    77    79   ar
   103    77    76    1
   104    73    72    1
   105    73    76    1
