@<TRIPOS>MOLECULE
tmp/4dmwA00.pdb
 160 154 0 0 0
SMALL
GASTEIGER

@<TRIPOS>ATOM
      1  N          6.3450   29.3730   25.0930 N.3    99  VAL99      -0.1231
      2  CA         5.1280   29.4700   24.3160 C.3    99  VAL99       0.1692
      3  C          4.9260   28.2120   23.5090 C.2    99  VAL99       0.2592
      4  O          5.8370   27.7760   22.8160 O.2    99  VAL99      -0.2718
      5  CB         5.1700   30.6660   23.3240 C.3    99  VAL99       0.0266
      6  CG1        3.9120   30.6960   22.4470 C.3    99  VAL99       0.0020
      7  CG2        5.3930   32.0100   24.0520 C.3    99  VAL99       0.0020
      8  N          3.7300   27.6260   23.5940 N.am  100  TRP100     -0.1962
      9  CA         3.3510   26.5880   22.6310 C.3   100  TRP100      0.1771
     10  C          1.9160   26.6890   22.1110 C.2   100  TRP100      0.2619
     11  O          0.9770   26.1890   22.7150 O.2   100  TRP100     -0.2715
     12  CB         3.6330   25.1790   23.1470 C.3   100  TRP100      0.0590
     13  CG         3.6240   24.1730   22.0250 C.ar  100  TRP100      0.0006
     14  CD1        2.5900   23.3530   21.6640 C.ar  100  TRP100      0.0946
     15  CD2        4.6960   23.8910   21.1120 C.ar  100  TRP100      0.0152
     16  NE1        2.9560   22.5720   20.5920 N.ar  100  TRP100     -0.2442
     17  CE2        4.2390   22.8870   20.2280 C.ar  100  TRP100      0.0810
     18  CE3        5.9980   24.3900   20.9550 C.ar  100  TRP100      0.0012
     19  CZ2        5.0380   22.3720   19.1980 C.ar  100  TRP100      0.0191
     20  CZ3        6.7930   23.8790   19.9300 C.ar  100  TRP100      0.0001
     21  CH2        6.3070   22.8820   19.0660 C.ar  100  TRP100      0.0015
     22  N          1.7710   27.3290   20.9600 N.am  101  ILE101     -0.1963
     23  CA         0.4840   27.4360   20.2970 C.3   101  ILE101      0.1727
     24  C          0.4300   26.4210   19.1540 C.2   101  ILE101      0.2616
     25  O          1.4670   25.9240   18.7140 O.2   101  ILE101     -0.2715
     26  CB         0.2970   28.8360   19.7300 C.3   101  ILE101      0.0290
     27  CG1        1.3720   29.0980   18.6730 C.3   101  ILE101      0.0022
     28  CG2        0.4010   29.8840   20.8460 C.3   101  ILE101      0.0023
     29  CD1        1.4370   30.5470   18.1840 C.3   101  ILE101      0.0001
     30  N         -0.7790   26.0900   18.7010 N.am  102  GLY102     -0.1955
     31  CA        -0.9460   25.3740   17.4480 C.3   102  GLY102      0.1869
     32  C         -1.2330   23.8910   17.5150 C.2   102  GLY102      0.2309
     33  O         -1.7480   23.3330   16.5600 O.2   102  GLY102     -0.2863
     34  N         -2.0000   23.2030   13.3590 N.3   137  ASN137     -0.1240
     35  CA        -0.9280   22.3650   12.8480 C.3   137  ASN137      0.1653
     36  C         -1.4450   21.1540   12.0510 C.2   137  ASN137      0.2266
     37  O         -0.9430   20.8600   10.9650 O.2   137  ASN137     -0.2867
     38  CB        -0.0110   21.9320   13.9920 C.3   137  ASN137      0.1155
     39  CG         1.3280   21.4460   13.5040 C.2   137  ASN137      0.2627
     40  OD1        2.1680   22.2370   13.0470 O.2   137  ASN137     -0.2716
     41  ND2        1.5420   20.1340   13.5850 N.am  137  ASN137     -0.0877
     42  N          3.0680   28.9660   12.8460 N.3   261  LEU261     -0.1231
     43  CA         3.1060   28.9990   14.3010 C.3   261  LEU261      0.1693
     44  C          4.3410   29.7190   14.8610 C.2   261  LEU261      0.2591
     45  O          4.2600   30.4210   15.8810 O.2   261  LEU261     -0.2718
     46  CB         2.9850   27.5860   14.8720 C.3   261  LEU261      0.0284
     47  CG         1.5620   27.0380   14.9840 C.3   261  LEU261      0.0019
     48  CD1        0.5540   28.1810   14.9660 C.3   261  LEU261      0.0001
     49  CD2        1.2600   26.0000   13.9090 C.3   261  LEU261      0.0001
     50  N          5.4790   29.5480   14.2030 N.am  262  ALA262     -0.1980
     51  CA         6.6860   30.2610   14.6060 C.3   262  ALA262      0.1597
     52  C          6.4290   31.7740   14.7070 C.2   262  ALA262      0.2287
     53  O          6.6700   32.3760   15.7560 O.2   262  ALA262     -0.2864
     54  CB         7.8340   29.9690   13.6250 C.3   262  ALA262      0.0319
     55  N          3.8910   32.8040   17.2910 N.3   265  SER265     -0.1217
     56  CA         4.6870   32.7460   18.5190 C.3   265  SER265      0.1889
     57  C          5.5940   33.9740   18.7920 C.2   265  SER265      0.2288
     58  O          5.6960   34.4140   19.9420 O.2   265  SER265     -0.2866
     59  CB         5.5200   31.4680   18.5360 C.3   265  SER265      0.2089
     60  OG         6.4050   31.4490   19.6400 O.3   265  SER265     -0.2183
     61  N          5.5250   36.2260   22.4100 N.3   269  ARG269     -0.1245
     62  CA         6.6340   36.3100   23.3590 C.3   269  ARG269      0.1563
     63  C          6.8660   37.7700   23.7790 C.2   269  ARG269      0.2260
     64  O          7.0450   38.0630   24.9650 O.2   269  ARG269     -0.2867
     65  CB         7.9060   35.5930   22.8440 C.3   269  ARG269      0.0307
     66  CG         8.7440   36.3730   21.8420 C.3   269  ARG269      0.0489
     67  CD         9.8000   35.4940   21.1600 C.3   269  ARG269      0.2205
     68  NE         9.1700   34.4220   20.4010 N.pl3 269  ARG269     -0.0865
     69  CZ         9.8260   33.4940   19.7150 C.cat 269  ARG269      0.5346
     70  NH1       11.1510   33.5200   19.6720 N.pl3 269  ARG269      0.1354
     71  NH2        9.1500   32.5460   19.0610 N.pl3 269  ARG269      0.1354
     72  N         12.0020   35.2520   28.4790 N.3   280  TYR280     -0.1241
     73  CA        11.4000   34.3450   27.4950 C.3   280  TYR280      0.1605
     74  C         12.4200   33.3190   26.9920 C.2   280  TYR280      0.2264
     75  O         13.5830   33.6530   26.7770 O.2   280  TYR280     -0.2867
     76  CB        10.8020   35.0650   26.2820 C.3   280  TYR280      0.0534
     77  CG        10.4760   34.0570   25.1870 C.ar  280  TYR280     -0.0201
     78  CD1        9.2870   33.3500   25.2120 C.ar  280  TYR280     -0.0009
     79  CD2       11.3930   33.7650   24.1720 C.ar  280  TYR280     -0.0009
     80  CE1        9.0030   32.4190   24.2610 C.ar  280  TYR280      0.0417
     81  CE2       11.1190   32.8230   23.2140 C.ar  280  TYR280      0.0417
     82  CZ         9.9210   32.1490   23.2640 C.ar  280  TYR280      0.1957
     83  OH         9.6260   31.2020   22.3130 O.3   280  TYR280     -0.2866
     84  N         12.6490   29.8530   24.1130 N.3   282  ASP282     -0.1225
     85  CA        12.1530   28.8310   23.1870 C.3   282  ASP282      0.1805
     86  C         12.2690   27.5240   23.9510 C.2   282  ASP282      0.2598
     87  O         13.1520   27.4020   24.8010 O.2   282  ASP282     -0.2718
     88  CB        13.0000   28.7740   21.9010 C.3   282  ASP282      0.1424
     89  CG        12.6230   29.8580   20.8710 C.2   282  ASP282      0.3668
     90  OD1       11.7810   30.7350   21.1510 O.co2 282  ASP282     -0.2456
     91  OD2       13.1830   29.8360   19.7550 O.co2 282  ASP282     -0.2456
     92  N         11.3890   26.5600   23.6690 N.am  283  VAL283     -0.1966
     93  CA        11.3360   25.2980   24.4280 C.3   283  VAL283      0.1727
     94  C         12.4680   24.3080   24.1080 C.2   283  VAL283      0.2616
     95  O         12.5400   23.2090   24.6820 O.2   283  VAL283     -0.2715
     96  CB         9.9790   24.5800   24.2700 C.3   283  VAL283      0.0290
     97  CG1        8.8270   25.5230   24.5880 C.3   283  VAL283      0.0023
     98  CG2        9.8340   24.0240   22.8720 C.3   283  VAL283      0.0023
     99  N         13.3630   24.6900   23.2050 N.am  284  ASP284     -0.1971
    100  CA        14.5430   23.8630   22.9710 C.3   284  ASP284      0.1709
    101  C         15.8170   24.4460   23.5830 C.2   284  ASP284      0.2293
    102  O         16.9150   24.0230   23.2350 O.2   284  ASP284     -0.2864
    103  CB        14.7370   23.5570   21.4800 C.3   284  ASP284      0.1436
    104  CG        14.6800   24.8020   20.6070 C.2   284  ASP284      0.3671
    105  OD1       15.0090   25.9190   21.0900 O.co2 284  ASP284     -0.2456
    106  OD2       14.2900   24.6520   19.4300 O.co2 284  ASP284     -0.2456
    107  N         19.3170   36.7760   17.9230 N.3   379  ILE379     -0.1245
    108  CA        18.3550   35.7340   17.6310 C.3   379  ILE379      0.1561
    109  C         17.3780   35.6360   18.7960 C.2   379  ILE379      0.2260
    110  O         17.7800   35.5500   19.9560 O.2   379  ILE379     -0.2867
    111  CB        19.0530   34.3900   17.2840 C.3   379  ILE379      0.0252
    112  CG1       18.0360   33.3580   16.7670 C.3   379  ILE379      0.0019
    113  CG2       19.8980   33.8760   18.4480 C.3   379  ILE379      0.0019
    114  CD1       18.6480   31.9910   16.4330 C.3   379  ILE379      0.0001
    115  N         15.4670   33.7170   20.3900 N.3   381  GLN381     -0.1245
    116  CA        15.1360   32.4900   21.1240 C.3   381  GLN381      0.1566
    117  C         15.3230   32.5700   22.6490 C.2   381  GLN381      0.2260
    118  O         14.8860   31.6800   23.3680 O.2   381  GLN381     -0.2867
    119  CB        15.8970   31.2910   20.5470 C.3   381  GLN381      0.0367
    120  CG        17.3970   31.4770   20.4510 C.3   381  GLN381      0.0905
    121  CD        18.0770   30.3010   19.7780 C.2   381  GLN381      0.2608
    122  OE1       17.4180   29.4340   19.1930 O.2   381  GLN381     -0.2717
    123  NE2       19.4020   30.2630   19.8590 N.am  381  GLN381     -0.0878
    124  N         17.2900   22.0850   19.3850 N.3   511  GLU511     -0.1245
    125  CA        17.6240   23.3280   18.7080 C.3   511  GLU511      0.1567
    126  C         18.2120   23.0160   17.3480 C.2   511  GLU511      0.2260
    127  O         17.8430   23.6160   16.3410 O.2   511  GLU511     -0.2867
    128  CB        18.6500   24.1160   19.5160 C.3   511  GLU511      0.0388
    129  CG        18.4350   25.6140   19.4720 C.3   511  GLU511      0.1160
    130  CD        18.8920   26.2540   18.1740 C.2   511  GLU511      0.3649
    131  OE1       20.1100   26.1510   17.8670 O.co2 511  GLU511     -0.2457
    132  OE2       18.0370   26.8750   17.4810 O.co2 511  GLU511     -0.2457
    133  N         15.3210   21.3420   15.1020 N.3   514  SER514     -0.1202
    134  CA        14.3620   22.3700   14.6970 C.3   514  SER514      0.2020
    135  C         15.0050   23.5750   13.9860 C.2   514  SER514      0.2619
    136  O         14.3480   24.5930   13.7680 O.2   514  SER514     -0.2717
    137  CB        13.5740   22.8620   15.9200 C.3   514  SER514      0.2103
    138  OG        13.1930   21.7750   16.7490 O.3   514  SER514     -0.2182
    139  N         16.2790   23.4690   13.6220 N.am  515  LEU515     -0.1965
    140  CA        16.9430   24.5900   12.9610 C.3   515  LEU515      0.1728
    141  C         16.7650   24.5530   11.4320 C.2   515  LEU515      0.2616
    142  O         16.9280   23.5040   10.7980 O.2   515  LEU515     -0.2715
    143  CB        18.4270   24.6640   13.3500 C.3   515  LEU515      0.0311
    144  CG        19.0400   26.0650   13.3200 C.3   515  LEU515      0.0022
    145  CD1       18.1690   26.9990   14.1280 C.3   515  LEU515      0.0001
    146  CD2       20.4480   26.0550   13.8720 C.3   515  LEU515      0.0001
    147  N         16.4240   25.7150   10.8670 N.am  516  TRP516     -0.1974
    148  CA        16.1860   25.8940    9.4310 C.3   516  TRP516      0.1640
    149  C         17.2760   25.2850    8.5490 C.2   516  TRP516      0.2290
    150  O         18.4670   25.5580    8.7200 O.2   516  TRP516     -0.2864
    151  CB        16.0460   27.3900    9.1020 C.3   516  TRP516      0.0576
    152  CG        15.6230   27.6990    7.6770 C.ar  516  TRP516      0.0006
    153  CD1       14.3570   27.9850    7.2430 C.ar  516  TRP516      0.0946
    154  CD2       16.4670   27.7560    6.5100 C.ar  516  TRP516      0.0152
    155  NE1       14.3600   28.2040    5.8860 N.ar  516  TRP516     -0.2442
    156  CE2       15.6400   28.0720    5.4120 C.ar  516  TRP516      0.0810
    157  CE3       17.8370   27.5570    6.2870 C.ar  516  TRP516      0.0012
    158  CZ2       16.1390   28.2050    4.1100 C.ar  516  TRP516      0.0191
    159  CZ3       18.3310   27.6890    4.9910 C.ar  516  TRP516      0.0001
    160  CH2       17.4810   28.0080    3.9210 C.ar  516  TRP516      0.0015
@<TRIPOS>BOND
     1   160   158   ar
     2   160   159   ar
     3   158   156   ar
     4   159   157   ar
     5   156   155   ar
     6   156   154   ar
     7   155   153   ar
     8   157   154   ar
     9   154   152   ar
    10   153   152   ar
    11   152   151    1
    12   149   150    2
    13   149   148    1
    14   151   148    1
    15   148   147    1
    16   142   141    2
    17   147   141   am
    18    37    36    2
    19   141   140    1
    20    36    35    1
    21    42    43    1
    22    35    34    1
    23    35    38    1
    24   140   143    1
    25   140   139    1
    26    40    39    2
    27   144   143    1
    28   144   146    1
    29   144   145    1
    30    39    41   am
    31    39    38    1
    32   139   135   am
    33    54    51    1
    34   136   135    2
    35    49    47    1
    36   135   134    1
    37    50    51    1
    38    50    44   am
    39    43    44    1
    40    43    46    1
    41    51    52    1
    42   134   133    1
    43   134   137    1
    44    52    53    2
    45    44    45    2
    46    46    47    1
    47    48    47    1
    48   137   138    1
    49   127   126    2
    50   114   112    1
    51    33    32    2
    52   112   111    1
    53   111   108    1
    54   111   113    1
    55    55    56    1
    56   126   125    1
    57    31    32    1
    58    31    30    1
    59   132   130   ar
    60   108   107    1
    61   108   109    1
    62   131   130   ar
    63   130   129    1
    64    29    27    1
    65    56    59    1
    66    56    57    1
    67    59    60    1
    68    27    26    1
    69    30    24   am
    70   125   124    1
    71   125   128    1
    72    25    24    2
    73    57    58    2
    74   109   110    2
    75    71    69    1
    76    21    19   ar
    77    21    20   ar
    78    24    23    1
    79   122   121    2
    80    19    17   ar
    81   106   104   ar
    82   129   128    1
    83    70    69    1
    84    69    68    2
    85    26    23    1
    86    26    28    1
    87    91    89   ar
    88   121   123   am
    89   121   120    1
    90    20    18   ar
    91    17    16   ar
    92    17    15   ar
    93    23    22    1
    94   115   116    1
    95    68    67    1
    96   120   119    1
    97   119   116    1
    98    16    14   ar
    99   104   105   ar
   100   104   103    1
   101    89    90   ar
   102    89    88    1
   103    18    15   ar
   104    22    10   am
   105    15    13   ar
   106   116   117    1
   107    67    66    1
   108   103   100    1
   109    14    13   ar
   110    66    65    1
   111    88    85    1
   112    13    12    1
   113    10     9    1
   114    10    11    2
   115    83    82    1
   116    61    62    1
   117     6     5    1
   118     9    12    1
   119     9     8    1
   120   117   118    2
   121     4     3    2
   122    65    62    1
   123    98    96    1
   124   100    99    1
   125   100   101    1
   126    85    86    1
   127    85    84    1
   128    99    94   am
   129    81    82   ar
   130    81    79   ar
   131   102   101    2
   132    82    80   ar
   133     5     7    1
   134     5     2    1
   135    62    63    1
   136     3     8   am
   137     3     2    1
   138    92    86   am
   139    92    93    1
   140    63    64    2
   141    86    87    2
   142    94    93    1
   143    94    95    2
   144    79    77   ar
   145    80    78   ar
   146    96    93    1
   147    96    97    1
   148     2     1    1
   149    77    78   ar
   150    77    76    1
   151    76    73    1
   152    75    74    2
   153    74    73    1
   154    73    72    1
