@<TRIPOS>MOLECULE
tmp/4dmxA00.pdb
 140 136 0 0 0
SMALL
GASTEIGER

@<TRIPOS>ATOM
      1  N          5.7690    8.5180   15.6220 N.3    19  GLN19      -0.1245
      2  CA         4.4330    9.0340   15.3110 C.3    19  GLN19       0.1566
      3  C          3.8170    9.9130   16.4270 C.2    19  GLN19       0.2260
      4  O          2.8660   10.6680   16.1860 O.2    19  GLN19      -0.2867
      5  CB         3.4830    7.8800   14.9550 C.3    19  GLN19       0.0367
      6  CG         3.2410    6.8900   16.0400 C.3    19  GLN19       0.0905
      7  CD         2.4370    5.6890   15.5650 C.2    19  GLN19       0.2608
      8  OE1        2.9680    4.7720   14.9390 O.2    19  GLN19      -0.2717
      9  NE2        1.1620    5.6630   15.9240 N.am   19  GLN19      -0.0878
     10  N         -2.5260    8.5920   15.8590 N.3    23  GLY23      -0.1225
     11  CA        -2.7300    7.2050   15.4020 C.3    23  GLY23       0.1811
     12  C         -2.4490    7.0940   13.9260 C.2    23  GLY23       0.2280
     13  O         -3.3230    6.7560   13.1140 O.2    23  GLY23      -0.2866
     14  N          0.2260    5.4250   12.4720 N.3    25  CYS25      -0.1221
     15  CA         1.0930    4.3050   12.0750 C.3    25  CYS25       0.1808
     16  C          0.8940    3.9350   10.5960 C.2    25  CYS25       0.2601
     17  O          1.8620    3.6660    9.8680 O.2    25  CYS25      -0.2717
     18  CB         0.8180    3.0880   12.9720 C.3    25  CYS25       0.0970
     19  SG        -0.8740    2.4490   12.8650 S.3    25  CYS25      -0.0800
     20  N         -0.3600    3.8810   10.1590 N.am   26  TRP26      -0.1976
     21  CA        -0.6870    3.5940    8.7470 C.3    26  TRP26       0.1640
     22  C          0.0090    4.5220    7.7690 C.2    26  TRP26       0.2290
     23  O          0.4240    4.1080    6.6930 O.2    26  TRP26      -0.2864
     24  CB        -2.2050    3.6210    8.5320 C.3    26  TRP26       0.0576
     25  CG        -2.8330    4.9130    8.7980 C.ar   26  TRP26       0.0006
     26  CD1       -3.3520    5.3550    9.9750 C.ar   26  TRP26       0.0946
     27  CD2       -3.0120    5.9610    7.8600 C.ar   26  TRP26       0.0152
     28  NE1       -3.8570    6.6210    9.8290 N.ar   26  TRP26      -0.2442
     29  CE2       -3.6740    7.0170    8.5270 C.ar   26  TRP26       0.0810
     30  CE3       -2.6730    6.1130    6.5170 C.ar   26  TRP26       0.0012
     31  CZ2       -4.0100    8.2070    7.8850 C.ar   26  TRP26       0.0191
     32  CZ3       -2.9990    7.2870    5.8900 C.ar   26  TRP26       0.0001
     33  CH2       -3.6850    8.3120    6.5620 C.ar   26  TRP26       0.0015
     34  N         -8.9520   11.0120    2.6400 N.3    58  SER58      -0.1202
     35  CA       -10.2780   11.1670    3.2320 C.3    58  SER58       0.2020
     36  C        -10.9170    9.8320    3.6160 C.2    58  SER58       0.2619
     37  O        -11.7680    9.7810    4.4990 O.2    58  SER58      -0.2717
     38  CB       -11.2030   11.9450    2.2880 C.3    58  SER58       0.2103
     39  OG       -11.3460   11.2740    1.0460 O.3    58  SER58      -0.2182
     40  N        -10.4700    8.7530    2.9850 N.am   59  GLU59      -0.1965
     41  CA       -11.0080    7.4230    3.2590 C.3    59  GLU59       0.1733
     42  C        -10.5320    6.8830    4.5980 C.2    59  GLU59       0.2616
     43  O        -11.1170    5.9510    5.1370 O.2    59  GLU59      -0.2715
     44  CB       -10.6110    6.4450    2.1540 C.3    59  GLU59       0.0429
     45  CG       -11.2920    6.6960    0.8260 C.3    59  GLU59       0.1163
     46  CD       -10.6600    7.8250    0.0260 C.2    59  GLU59       0.3649
     47  OE1      -11.2700    8.2230   -0.9860 O.co2  59  GLU59      -0.2457
     48  OE2       -9.5590    8.3140    0.4000 O.co2  59  GLU59      -0.2457
     49  N         -9.4430    7.4370    5.1160 N.am   60  ASN60      -0.1958
     50  CA        -8.9620    7.0410    6.4240 C.3    60  ASN60       0.1819
     51  C         -9.4160    8.0510    7.4700 C.2    60  ASN60       0.2621
     52  O        -10.1080    9.0250    7.1490 O.2    60  ASN60      -0.2715
     53  CB        -7.4540    6.8920    6.4120 C.3    60  ASN60       0.1195
     54  CG        -6.9840    5.6450    5.6670 C.2    60  ASN60       0.2630
     55  OD1       -7.7220    4.6750    5.5260 O.2    60  ASN60      -0.2716
     56  ND2       -5.7160    5.6460    5.2560 N.am   60  ASN60      -0.0877
     57  N         -9.0440    7.8070    8.7220 N.am   61  ASP61      -0.1971
     58  CA        -9.5560    8.5890    9.8360 C.3    61  ASP61       0.1709
     59  C         -8.4750    9.4500   10.5040 C.2    61  ASP61       0.2293
     60  O         -8.5450    9.7210   11.6940 O.2    61  ASP61      -0.2864
     61  CB       -10.1860    7.6300   10.8460 C.3    61  ASP61       0.1436
     62  CG       -11.1740    8.3090   11.7560 C.2    61  ASP61       0.3671
     63  OD1      -11.9180    9.1990   11.2840 O.co2  61  ASP61      -0.2456
     64  OD2      -11.2010    7.9370   12.9500 O.co2  61  ASP61      -0.2456
     65  N         -7.1250    8.8540   13.8270 N.3    64  GLY64      -0.1210
     66  CA        -7.9680    7.7420   14.2740 C.3    64  GLY64       0.1956
     67  C         -7.6090    6.3910   13.6710 C.2    64  GLY64       0.2612
     68  O         -8.1650    5.3570   14.0630 O.2    64  GLY64      -0.2717
     69  N         -6.6840    6.3830   12.7190 N.am   65  GLY65      -0.1942
     70  CA        -6.2880    5.1430   12.0620 C.3    65  GLY65       0.2014
     71  C         -6.6010    5.1260   10.5780 C.2    65  GLY65       0.2639
     72  O         -7.2220    6.0460   10.0390 O.2    65  GLY65      -0.2714
     73  N         -6.1790    4.0580    9.9140 N.am   66  GLY66      -0.1939
     74  CA        -6.3420    3.9710    8.4740 C.3    66  GLY66       0.2014
     75  C         -5.7490    2.7270    7.8520 C.2    66  GLY66       0.2639
     76  O         -5.0090    1.9880    8.5070 O.2    66  GLY66      -0.2714
     77  N         -6.0750    2.5280    6.5710 N.am   67  TYR67      -0.1959
     78  CA        -5.5400    1.4310    5.7820 C.3    67  TYR67       0.1771
     79  C         -4.4940    1.9610    4.8280 C.2    67  TYR67       0.2619
     80  O         -4.6870    3.0150    4.2410 O.2    67  TYR67      -0.2715
     81  CB        -6.6490    0.6990    5.0120 C.3    67  TYR67       0.0574
     82  CG        -7.6320    0.0160    5.9190 C.ar   67  TYR67      -0.0198
     83  CD1       -7.3310   -1.2120    6.5110 C.ar   67  TYR67      -0.0009
     84  CD2       -8.8530    0.6040    6.2200 C.ar   67  TYR67      -0.0009
     85  CE1       -8.2280   -1.8370    7.3750 C.ar   67  TYR67       0.0417
     86  CE2       -9.7450   -0.0170    7.0740 C.ar   67  TYR67       0.0417
     87  CZ        -9.4360   -1.2300    7.6410 C.ar   67  TYR67       0.1957
     88  OH       -10.3550   -1.8070    8.4850 O.3    67  TYR67      -0.2866
     89  N         -3.3910    1.2220    4.6890 N.am   68  MET68      -0.1977
     90  CA        -2.2960    1.6310    3.8020 C.3    68  MET68       0.1605
     91  C         -2.7530    1.6330    2.3260 C.2    68  MET68       0.2287
     92  O         -2.3270    2.4830    1.5260 O.2    68  MET68      -0.2864
     93  CB        -1.0740    0.7400    3.9710 C.3    68  MET68       0.0413
     94  CG        -0.4640    0.7390    5.3630 C.3    68  MET68       0.0598
     95  SD        -1.3860   -0.2440    6.5620 S.3    68  MET68      -0.1393
     96  CE        -0.5400   -1.8300    6.3940 C.3    68  MET68       0.0692
     97  N          0.4410   -5.0510    8.5120 N.3   134  ALA134     -0.1245
     98  CA        -0.2550   -4.7780    9.7780 C.3   134  ALA134      0.1562
     99  C         -0.1350   -5.9570   10.7390 C.2   134  ALA134      0.2260
    100  O         -0.1040   -7.1100   10.3150 O.2   134  ALA134     -0.2867
    101  CB        -1.6720   -4.4620    9.5340 C.3   134  ALA134      0.0290
    102  N         -5.6060   -6.7510   14.0310 N.3   160  LEU160     -0.1231
    103  CA        -4.5950   -5.9360   13.3630 C.3   160  LEU160      0.1693
    104  C         -4.7930   -4.4920   13.7950 C.2   160  LEU160      0.2592
    105  O         -5.7370   -3.8420   13.3760 O.2   160  LEU160     -0.2718
    106  CB        -4.7390   -6.0690   11.8560 C.3   160  LEU160      0.0284
    107  CG        -4.7210   -7.5050   11.3400 C.3   160  LEU160      0.0019
    108  CD1       -4.9880   -7.4880    9.8480 C.3   160  LEU160      0.0001
    109  CD2       -3.3890   -8.1780   11.6700 C.3   160  LEU160      0.0001
    110  N         -3.9470   -4.0180   14.6910 N.am  161  ASN161     -0.1960
    111  CA        -4.1320   -2.7100   15.3110 C.3   161  ASN161      0.1819
    112  C         -2.9680   -1.7630   15.0300 C.2   161  ASN161      0.2621
    113  O         -2.9910   -0.6270   15.4900 O.2   161  ASN161     -0.2715
    114  CB        -4.3450   -2.8450   16.8440 C.3   161  ASN161      0.1195
    115  CG        -3.3170   -3.7880   17.5070 C.2   161  ASN161      0.2630
    116  OD1       -2.1060   -3.6050   17.3490 O.2   161  ASN161     -0.2716
    117  ND2       -3.8100   -4.8300   18.2040 N.am  161  ASN161     -0.0877
    118  N         -1.9510   -2.2130   14.2970 N.am  162  HIS162     -0.1959
    119  CA        -0.7670   -1.3850   14.0930 C.3   162  HIS162      0.1787
    120  C         -0.1740   -1.6730   12.7290 C.2   162  HIS162      0.2620
    121  O         -0.1900   -2.8100   12.2720 O.2   162  HIS162     -0.2715
    122  CB         0.2390   -1.6860   15.1970 C.3   162  HIS162      0.0785
    123  CG         1.4180   -0.7710   15.2290 C.ar  162  HIS162      0.0821
    124  ND1        1.3030    0.6010   15.1540 N.ar  162  HIS162     -0.2267
    125  CD2        2.7370   -1.0310   15.3810 C.ar  162  HIS162      0.1154
    126  CE1        2.5060    1.1420   15.2340 C.ar  162  HIS162      0.1986
    127  NE2        3.3930    0.1780   15.3730 N.ar  162  HIS162     -0.2212
    128  N          0.3410   -0.6400   12.0820 N.am  163  ALA163     -0.1977
    129  CA         0.9380   -0.7760   10.7510 C.3   163  ALA163      0.1597
    130  C          2.4260   -0.4950   10.8640 C.2   163  ALA163      0.2287
    131  O          2.8230    0.4420   11.5540 O.2   163  ALA163     -0.2864
    132  CB         0.3140    0.2000    9.8040 C.3   163  ALA163      0.0319
    133  N         -2.5820   -8.3590    6.1360 N.3   209  LEU209     -0.1245
    134  CA        -2.9460   -7.0780    5.5070 C.3   209  LEU209      0.1561
    135  C         -1.6820   -6.4180    4.9920 C.2   209  LEU209      0.2260
    136  O         -1.2660   -5.3560    5.4610 O.2   209  LEU209     -0.2867
    137  CB        -3.6950   -6.1780    6.5040 C.3   209  LEU209      0.0270
    138  CG        -4.5030   -5.0060    5.9240 C.3   209  LEU209      0.0019
    139  CD1       -5.7460   -5.4970    5.2270 C.3   209  LEU209      0.0001
    140  CD2       -4.8590   -4.0630    7.0390 C.3   209  LEU209      0.0001
@<TRIPOS>BOND
     1    47    46   ar
     2    46    48   ar
     3    46    45    1
     4    45    44    1
     5    39    38    1
     6    92    91    2
     7    44    41    1
     8    38    35    1
     9    91    90    1
    10    34    35    1
    11    40    41    1
    12    40    36   am
    13    35    36    1
    14    41    42    1
    15    36    37    2
    16    90    93    1
    17    90    89    1
    18    93    94    1
    19    80    79    2
    20    42    49   am
    21    42    43    2
    22    89    79   am
    23    79    78    1
    24   135   136    2
    25   135   134    1
    26    81    78    1
    27    81    82    1
    28    49    50    1
    29   139   138    1
    30    56    54   am
    31    94    95    1
    32   134   133    1
    33   134   137    1
    34    55    54    2
    35    54    53    1
    36    78    77    1
    37    32    30   ar
    38    32    33   ar
    39    82    84   ar
    40    82    83   ar
    41   138   137    1
    42   138   140    1
    43    84    86   ar
    44    96    95    1
    45    53    50    1
    46    50    51    1
    47    83    85   ar
    48    30    27   ar
    49    33    31   ar
    50    77    75   am
    51    23    22    2
    52    86    87   ar
    53    52    51    2
    54    85    87   ar
    55    51    57   am
    56    87    88    1
    57    22    21    1
    58    75    74    1
    59    75    76    2
    60    27    29   ar
    61    27    25   ar
    62    31    29   ar
    63    74    73    1
    64    97    98    1
    65    29    28   ar
    66    24    21    1
    67    24    25    1
    68    57    58    1
    69    21    20    1
    70    25    26   ar
    71   101    98    1
    72    98    99    1
    73   132   129    1
    74    28    26   ar
    75    58    59    1
    76    58    61    1
    77   108   107    1
    78    17    16    2
    79    73    71   am
    80    72    71    2
    81    20    16   am
    82   100    99    2
    83    59    60    2
    84    71    70    1
    85    16    15    1
    86   129   130    1
    87   129   128    1
    88    61    62    1
    89   130   131    2
    90    63    62   ar
    91   107   109    1
    92   107   106    1
    93    62    64   ar
    94   106   103    1
    95    70    69    1
    96    15    14    1
    97    15    18    1
    98   128   120   am
    99   121   120    2
   100    69    67   am
   101   120   119    1
   102    19    18    1
   103    13    12    2
   104   103   104    1
   105   103   102    1
   106   105   104    2
   107    67    68    2
   108    67    66    1
   109   104   110   am
   110    65    66    1
   111    12    11    1
   112   119   118    1
   113   119   122    1
   114   118   112   am
   115   110   111    1
   116     8     7    2
   117     5     2    1
   118     5     6    1
   119   112   111    1
   120   112   113    2
   121   124   123   ar
   122   124   126   ar
   123   122   123    1
   124   123   125   ar
   125   126   127   ar
   126     2     1    1
   127     2     3    1
   128   111   114    1
   129   127   125   ar
   130    11    10    1
   131     7     9   am
   132     7     6    1
   133     4     3    2
   134   114   115    1
   135   116   115    2
   136   115   117   am
