@<TRIPOS>MOLECULE
tmp/4dmyB00.pdb
 148 143 0 0 0
SMALL
GASTEIGER

@<TRIPOS>ATOM
      1  N         -0.0550    9.8410   28.4490 N.3    19  GLN19      -0.1245
      2  CA        -1.4300    9.5690   28.0570 C.3    19  GLN19       0.1566
      3  C         -2.1390   10.7610   27.4010 C.2    19  GLN19       0.2260
      4  O         -3.2370   10.5890   26.8710 O.2    19  GLN19      -0.2867
      5  CB        -2.2490    9.0750   29.2530 C.3    19  GLN19       0.0367
      6  CG        -2.5370   10.1310   30.3210 C.3    19  GLN19       0.0905
      7  CD        -3.2370    9.5420   31.5390 C.2    19  GLN19       0.2608
      8  OE1       -2.6380    8.8030   32.3240 O.2    19  GLN19      -0.2717
      9  NE2       -4.4960    9.8850   31.7130 N.am   19  GLN19      -0.0878
     10  N         -8.4950   10.2310   29.3210 N.3    23  GLY23      -0.1225
     11  CA        -8.5950    9.5110   30.5890 C.3    23  GLY23       0.1811
     12  C         -8.3460    8.0210   30.4210 C.2    23  GLY23       0.2280
     13  O         -9.1800    7.1870   30.8130 O.2    23  GLY23      -0.2866
     14  N         -5.6530    6.2770   31.6670 N.3    25  CYS25      -0.1221
     15  CA        -4.6790    5.7760   32.6520 C.3    25  CYS25       0.1808
     16  C         -4.8840    4.2760   32.8820 C.2    25  CYS25       0.2601
     17  O         -3.9250    3.5280   33.0320 O.2    25  CYS25      -0.2717
     18  CB        -4.8190    6.5180   33.9850 C.3    25  CYS25       0.0970
     19  SG        -6.4780    6.5070   34.6750 S.3    25  CYS25      -0.0800
     20  N         -6.1480    3.8470   32.9250 N.am   26  TRP26      -0.1976
     21  CA        -6.4770    2.4400   33.1260 C.3    26  TRP26       0.1640
     22  C         -5.8760    1.5360   32.0310 C.2    26  TRP26       0.2290
     23  O         -5.4810    0.4040   32.2910 O.2    26  TRP26      -0.2864
     24  CB        -7.9970    2.2520   33.1950 C.3    26  TRP26       0.0576
     25  CG        -8.7220    2.6560   31.9490 C.ar   26  TRP26       0.0006
     26  CD1       -9.2750    3.8680   31.6770 C.ar   26  TRP26       0.0946
     27  CD2       -8.9840    1.8310   30.8100 C.ar   26  TRP26       0.0152
     28  NE1       -9.8560    3.8570   30.4340 N.ar   26  TRP26      -0.2442
     29  CE2       -9.6830    2.6190   29.8760 C.ar   26  TRP26       0.0810
     30  CE3       -8.6510    0.5240   30.4690 C.ar   26  TRP26       0.0012
     31  CZ2      -10.0800    2.1260   28.6310 C.ar   26  TRP26       0.0191
     32  CZ3       -9.0560    0.0350   29.2390 C.ar   26  TRP26       0.0001
     33  CH2       -9.7620    0.8320   28.3390 C.ar   26  TRP26       0.0015
     34  N        -16.5910   -2.5320   27.6390 N.3    59  GLU59      -0.1231
     35  CA       -16.9630   -2.5920   29.0600 C.3    59  GLU59       0.1699
     36  C        -16.4940   -1.3340   29.8450 C.2    59  GLU59       0.2592
     37  O        -16.9200   -1.0980   30.9820 O.2    59  GLU59      -0.2718
     38  CB       -16.3380   -3.8420   29.6810 C.3    59  GLU59       0.0402
     39  CG       -16.9520   -5.1670   29.2590 C.3    59  GLU59       0.1161
     40  CD       -16.6060   -5.6460   27.8600 C.2    59  GLU59       0.3649
     41  OE1      -17.2870   -6.5990   27.4330 O.co2  59  GLU59      -0.2457
     42  OE2      -15.6820   -5.1080   27.1970 O.co2  59  GLU59      -0.2457
     43  N        -15.5800   -0.5750   29.2440 N.am   60  ASN60      -0.1960
     44  CA       -15.0140    0.6280   29.8210 C.3    60  ASN60       0.1819
     45  C        -15.5050    1.8220   29.0160 C.2    60  ASN60       0.2621
     46  O        -16.2210    1.6580   28.0160 O.2    60  ASN60      -0.2715
     47  CB       -13.4730    0.5660   29.8320 C.3    60  ASN60       0.1195
     48  CG       -12.9190   -0.2730   30.9770 C.2    60  ASN60       0.2630
     49  OD1      -13.6140   -0.5770   31.9540 O.2    60  ASN60      -0.2716
     50  ND2      -11.6610   -0.6330   30.8730 N.am   60  ASN60      -0.0877
     51  N        -15.1310    3.0170   29.4450 N.am   61  ASP61      -0.1971
     52  CA       -15.6200    4.2360   28.8280 C.3    61  ASP61       0.1709
     53  C        -14.5320    4.9810   28.0440 C.2    61  ASP61       0.2293
     54  O        -14.5750    6.1960   27.9210 O.2    61  ASP61      -0.2864
     55  CB       -16.2200    5.1380   29.9110 C.3    61  ASP61       0.1436
     56  CG       -17.1490    6.2040   29.3550 C.2    61  ASP61       0.3671
     57  OD1      -17.7980    5.9750   28.2980 O.co2  61  ASP61      -0.2456
     58  OD2      -17.2360    7.2710   30.0080 O.co2  61  ASP61      -0.2456
     59  N        -11.7650    7.1840   26.7950 N.3    63  CYS63      -0.1221
     60  CA       -11.0770    8.3220   27.4320 C.3    63  CYS63       0.1808
     61  C        -11.8170    8.8830   28.6480 C.2    63  CYS63       0.2602
     62  O        -11.3060    9.7810   29.3050 O.2    63  CYS63      -0.2717
     63  CB       -10.8280    9.4610   26.4430 C.3    63  CYS63       0.0970
     64  SG        -9.5900    9.1310   25.1710 S.3    63  CYS63      -0.0800
     65  N        -13.0080    8.3600   28.9340 N.am   64  GLY64      -0.1942
     66  CA       -13.7660    8.7150   30.1440 C.3    64  GLY64       0.2014
     67  C        -13.4600    7.8720   31.3810 C.2    64  GLY64       0.2639
     68  O        -13.9660    8.1490   32.4640 O.2    64  GLY64      -0.2714
     69  N        -12.6460    6.8350   31.2340 N.am   65  GLY65      -0.1939
     70  CA       -12.2180    6.0440   32.3790 C.3    65  GLY65       0.2014
     71  C        -12.5510    4.5820   32.1920 C.2    65  GLY65       0.2639
     72  O        -13.1910    4.2010   31.2140 O.2    65  GLY65      -0.2714
     73  N        -12.1050    3.7580   33.1320 N.am   66  GLY66      -0.1939
     74  CA       -12.3570    2.3310   33.0660 C.3    66  GLY66       0.2014
     75  C        -11.6900    1.5620   34.1810 C.2    66  GLY66       0.2639
     76  O        -10.9880    2.1390   35.0280 O.2    66  GLY66      -0.2714
     77  N        -11.9120    0.2540   34.1720 N.am   67  TYR67      -0.1959
     78  CA       -11.2680   -0.6510   35.0950 C.3    67  TYR67       0.1771
     79  C        -10.2660   -1.5220   34.3600 C.2    67  TYR67       0.2619
     80  O        -10.5140   -1.9930   33.2330 O.2    67  TYR67      -0.2715
     81  CB       -12.3150   -1.5310   35.7890 C.3    67  TYR67       0.0574
     82  CG       -13.1250   -0.8000   36.8300 C.ar   67  TYR67      -0.0198
     83  CD1      -12.5030   -0.2040   37.9280 C.ar   67  TYR67      -0.0009
     84  CD2      -14.5180   -0.7230   36.7430 C.ar   67  TYR67      -0.0009
     85  CE1      -13.2420    0.4680   38.8980 C.ar   67  TYR67       0.0417
     86  CE2      -15.2570   -0.0560   37.7060 C.ar   67  TYR67       0.0417
     87  CZ       -14.6160    0.5340   38.7850 C.ar   67  TYR67       0.1957
     88  OH       -15.3550    1.2000   39.7550 O.3    67  TYR67      -0.2866
     89  N         -9.1430   -1.7770   35.0270 N.am   68  MET68      -0.1977
     90  CA        -8.1080   -2.6610   34.4900 C.3    68  MET68       0.1605
     91  C         -8.6080   -4.0910   34.3400 C.2    68  MET68       0.2287
     92  O         -8.2810   -4.7430   33.3640 O.2    68  MET68      -0.2864
     93  CB        -6.8470   -2.6280   35.3670 C.3    68  MET68       0.0413
     94  CG        -6.1580   -1.2740   35.3890 C.3    68  MET68       0.0598
     95  SD        -6.9300   -0.0420   36.4860 S.3    68  MET68      -0.1393
     96  CE        -6.1110   -0.2990   38.0610 C.3    68  MET68       0.0692
     97  N        -11.5070   -5.1310   33.3960 N.3    70  ASN70      -0.1240
     98  CA       -12.1990   -5.2110   32.1110 C.3    70  ASN70       0.1653
     99  C        -11.2300   -5.3110   30.9460 C.2    70  ASN70       0.2266
    100  O        -11.5080   -6.0050   29.9520 O.2    70  ASN70      -0.2867
    101  CB       -13.1160   -4.0020   31.9210 C.3    70  ASN70       0.1155
    102  CG       -14.3440   -4.0410   32.8420 C.2    70  ASN70       0.2627
    103  OD1      -14.7940   -5.1170   33.2500 O.2    70  ASN70      -0.2716
    104  ND2      -14.8800   -2.8680   33.1610 N.am   70  ASN70      -0.0877
    105  N         -4.8490    1.3080   41.5670 N.3   134  ALA134     -0.1245
    106  CA        -5.5890    2.5390   41.4620 C.3   134  ALA134      0.1562
    107  C         -5.3150    3.3880   42.7030 C.2   134  ALA134      0.2260
    108  O         -5.2010    2.8600   43.8030 O.2   134  ALA134     -0.2867
    109  CB        -7.0880    2.2300   41.3380 C.3   134  ALA134      0.0290
    110  N        -10.6830    6.7050   44.2870 N.3   160  LEU160     -0.1231
    111  CA        -9.7380    6.0930   43.3360 C.3   160  LEU160      0.1693
    112  C         -9.9960    6.6520   41.9490 C.2   160  LEU160      0.2592
    113  O        -10.9620    6.2720   41.2880 O.2   160  LEU160     -0.2718
    114  CB        -9.8780    4.5780   43.3340 C.3   160  LEU160      0.0284
    115  CG        -9.6840    3.8930   44.6830 C.3   160  LEU160      0.0019
    116  CD1       -9.8560    2.3810   44.5470 C.3   160  LEU160      0.0001
    117  CD2       -8.3260    4.2720   45.3180 C.3   160  LEU160      0.0001
    118  N         -9.1440    7.5710   41.5130 N.am  161  ASN161     -0.1960
    119  CA        -9.3830    8.3170   40.2890 C.3   161  ASN161      0.1819
    120  C         -8.2900    8.2040   39.2420 C.2   161  ASN161      0.2621
    121  O         -8.3740    8.8450   38.1980 O.2   161  ASN161     -0.2715
    122  CB        -9.5860    9.7930   40.6360 C.3   161  ASN161      0.1195
    123  CG        -8.4690   10.3480   41.5010 C.2   161  ASN161      0.2630
    124  OD1       -7.2910   10.3680   41.1070 O.2   161  ASN161     -0.2716
    125  ND2       -8.8280   10.7730   42.7060 N.am  161  ASN161     -0.0877
    126  N         -7.2660    7.3980   39.5110 N.am  162  HIS162     -0.1959
    127  CA        -6.1230    7.2910   38.5900 C.3   162  HIS162      0.1787
    128  C         -5.5230    5.9090   38.7160 C.2   162  HIS162      0.2620
    129  O         -5.5000    5.3570   39.7960 O.2   162  HIS162     -0.2715
    130  CB        -5.0960    8.3710   38.9220 C.3   162  HIS162      0.0785
    131  CG        -3.9410    8.4320   37.9720 C.ar  162  HIS162      0.0821
    132  ND1       -4.1100    8.5500   36.6110 N.ar  162  HIS162     -0.2267
    133  CD2       -2.6040    8.4420   38.1880 C.ar  162  HIS162      0.1154
    134  CE1       -2.9260    8.5900   36.0250 C.ar  162  HIS162      0.1986
    135  NE2       -1.9940    8.5280   36.9590 N.ar  162  HIS162     -0.2212
    136  N         -5.0440    5.3540   37.6050 N.am  163  ALA163     -0.1977
    137  CA        -4.4870    4.0010   37.5730 C.3   163  ALA163      0.1597
    138  C         -3.0210    4.1300   37.1930 C.2   163  ALA163      0.2287
    139  O         -2.6660    4.9040   36.2990 O.2   163  ALA163     -0.2864
    140  CB        -5.2230    3.1290   36.5610 C.3   163  ALA163      0.0319
    141  N         -7.5970   -1.4440   44.8620 N.3   209  LEU209     -0.1245
    142  CA        -8.0490   -1.9110   43.5360 C.3   209  LEU209      0.1561
    143  C         -6.8700   -2.3510   42.6780 C.2   209  LEU209      0.2260
    144  O         -6.6130   -1.8040   41.5910 O.2   209  LEU209     -0.2867
    145  CB        -8.8780   -0.8350   42.8420 C.3   209  LEU209      0.0270
    146  CG        -9.7510   -1.3300   41.6870 C.3   209  LEU209      0.0019
    147  CD1      -10.9010   -2.1670   42.2020 C.3   209  LEU209      0.0001
    148  CD2      -10.2770   -0.1410   40.9070 C.3   209  LEU209      0.0001
@<TRIPOS>BOND
     1    64    63    1
     2    63    60    1
     3    59    60    1
     4     4     3    2
     5    42    40   ar
     6     3     2    1
     7    60    61    1
     8    41    40   ar
     9    34    35    1
    10    40    39    1
    11    54    53    2
    12    46    45    2
    13    53    52    1
    14     2     1    1
    15     2     5    1
    16    57    56   ar
    17    33    31   ar
    18    33    32   ar
    19    31    29   ar
    20    61    65   am
    21    61    62    2
    22    52    51    1
    23    52    55    1
    24    65    66    1
    25    45    51   am
    26    45    44    1
    27    35    38    1
    28    35    36    1
    29    32    30   ar
    30    43    44    1
    31    43    36   am
    32     5     6    1
    33    39    38    1
    34    10    11    1
    35    56    55    1
    36    56    58   ar
    37    44    47    1
    38    47    48    1
    39    36    37    2
    40    29    28   ar
    41    29    27   ar
    42   100    99    2
    43    66    67    1
    44     6     7    1
    45    12    11    1
    46    12    13    2
    47    28    26   ar
    48    30    27   ar
    49    27    25   ar
    50    50    48   am
    51    99    98    1
    52    48    49    2
    53    72    71    2
    54    69    67   am
    55    69    70    1
    56    67    68    2
    57     7     9   am
    58     7     8    2
    59    14    15    1
    60    26    25   ar
    61   101    98    1
    62   101   102    1
    63    25    24    1
    64    22    23    2
    65    22    21    1
    66    98    97    1
    67    71    70    1
    68    71    73   am
    69    15    16    1
    70    15    18    1
    71   102   104   am
    72   102   103    2
    73    16    20   am
    74    16    17    2
    75    20    21    1
    76    74    73    1
    77    74    75    1
    78    21    24    1
    79    80    79    2
    80    92    91    2
    81    18    19    1
    82    77    75   am
    83    77    78    1
    84    75    76    2
    85    91    90    1
    86    79    89   am
    87    79    78    1
    88    90    89    1
    89    90    93    1
    90    78    81    1
    91    93    94    1
    92    94    95    1
    93    81    82    1
    94   134   132   ar
    95   134   135   ar
    96   139   138    2
    97    95    96    1
    98   140   137    1
    99   132   131   ar
   100    84    82   ar
   101    84    86   ar
   102    82    83   ar
   103   135   133   ar
   104   138   137    1
   105   137   136    1
   106   136   128   am
   107    86    87   ar
   108    83    85   ar
   109   131   133   ar
   110   131   130    1
   111   121   120    2
   112   127   128    1
   113   127   130    1
   114   127   126    1
   115   128   129    2
   116    87    85   ar
   117    87    88    1
   118   120   126   am
   119   120   119    1
   120   119   122    1
   121   119   118    1
   122   122   123    1
   123   148   146    1
   124   124   123    2
   125   113   112    2
   126   109   106    1
   127   106   105    1
   128   106   107    1
   129   123   125   am
   130   118   112   am
   131   144   143    2
   132   146   147    1
   133   146   145    1
   134   112   111    1
   135   143   142    1
   136   107   108    2
   137   145   142    1
   138   114   111    1
   139   114   115    1
   140   111   110    1
   141   142   141    1
   142   116   115    1
   143   115   117    1
