@<TRIPOS>MOLECULE
tmp/4dn0A01.pdb
 90 84 0 0 0
SMALL
GASTEIGER

@<TRIPOS>ATOM
      1  N         10.8370   -7.0860   -1.6280 N.3     1  GLN1       -0.1245
      2  CA         9.8520   -6.1520   -2.1670 C.3     1  GLN1        0.1566
      3  C          8.4500   -6.7630   -2.1520 C.2     1  GLN1        0.2260
      4  O          7.4630   -6.0790   -1.8800 O.2     1  GLN1       -0.2867
      5  CB        10.2370   -5.7150   -3.5830 C.3     1  GLN1        0.0367
      6  CG         9.2970   -4.6820   -4.2030 C.3     1  GLN1        0.0905
      7  CD         9.3030   -3.3550   -3.4570 C.2     1  GLN1        0.2608
      8  OE1       10.3470   -2.8900   -2.9960 O.2     1  GLN1       -0.2717
      9  NE2        8.1300   -2.7450   -3.3300 N.am    1  GLN1       -0.0878
     10  N          6.6890   -5.7650    0.9120 N.3     4  ARG4       -0.1231
     11  CA         5.7510   -4.6590    1.0850 C.3     4  ARG4        0.1694
     12  C          4.3170   -5.1590    1.0460 C.2     4  ARG4        0.2592
     13  O          3.5400   -4.9270    1.9700 O.2     4  ARG4       -0.2718
     14  CB         5.9450   -3.5830    0.0050 C.3     4  ARG4        0.0321
     15  CG         4.7810   -2.5670   -0.1100 C.3     4  ARG4        0.0489
     16  CD         4.9380   -1.6370   -1.3340 C.3     4  ARG4        0.2205
     17  NE         3.8700   -0.6400   -1.4110 N.pl3   4  ARG4       -0.0865
     18  CZ         3.6760    0.2010   -2.4260 C.cat   4  ARG4        0.5346
     19  NH1        4.4760    0.1810   -3.4890 N.pl3   4  ARG4        0.1354
     20  NH2        2.6690    1.0660   -2.3800 N.pl3   4  ARG4        0.1354
     21  N          3.9830   -5.8490   -0.0360 N.am    5  SER5       -0.1952
     22  CA         2.6240   -6.3080   -0.2850 C.3     5  SER5        0.1924
     23  C          2.1200   -7.2420    0.8010 C.2     5  SER5        0.2314
     24  O          0.9810   -7.1280    1.2500 O.2     5  SER5       -0.2863
     25  CB         2.5690   -7.0230   -1.6310 C.3     5  SER5        0.2116
     26  OG         3.7870   -6.8380   -2.3300 O.3     5  SER5       -0.2180
     27  N          1.5610   -5.2640    3.9490 N.3     8  LEU8       -0.1245
     28  CA         0.4400   -4.3770    3.6980 C.3     8  LEU8        0.1561
     29  C         -0.8730   -5.1640    3.6920 C.2     8  LEU8        0.2260
     30  O         -1.9000   -4.6910    4.1950 O.2     8  LEU8       -0.2867
     31  CB         0.6320   -3.6510    2.3650 C.3     8  LEU8        0.0270
     32  CG         0.0020   -2.2600    2.3330 C.3     8  LEU8        0.0019
     33  CD1        0.5210   -1.4380    3.5040 C.3     8  LEU8        0.0001
     34  CD2        0.2710   -1.5560    1.0000 C.3     8  LEU8        0.0001
     35  N         -1.5990   -6.1710    7.3360 N.3    11  ARG11      -0.1245
     36  CA        -2.0440   -5.0030    8.0860 C.3    11  ARG11       0.1563
     37  C         -3.5290   -4.7630    7.8100 C.2    11  ARG11       0.2260
     38  O         -4.3130   -4.5080    8.7210 O.2    11  ARG11      -0.2867
     39  CB        -1.2020   -3.7730    7.7090 C.3    11  ARG11       0.0307
     40  CG        -1.4570   -2.5550    8.5490 C.3    11  ARG11       0.0489
     41  CD        -0.6230   -1.4060    8.0260 C.3    11  ARG11       0.2205
     42  NE        -1.3450   -0.6650    6.9970 N.pl3  11  ARG11      -0.0865
     43  CZ        -2.3750    0.1570    7.2480 C.cat  11  ARG11       0.5346
     44  NH1       -2.7230    0.4520    8.5020 N.pl3  11  ARG11       0.1354
     45  NH2       -3.0400    0.7240    6.2350 N.pl3  11  ARG11       0.1354
     46  N         -2.1740   13.0270    3.0000 N.3   188  GLY188     -0.1210
     47  CA        -2.9470   12.3920    1.9460 C.3   188  GLY188      0.1956
     48  C         -2.0480   11.6460    0.9800 C.2   188  GLY188      0.2613
     49  O         -2.5140   10.8550    0.1640 O.2   188  GLY188     -0.2717
     50  N         -0.7490   11.9070    1.0930 N.am  189  SER189     -0.1938
     51  CA         0.2560   11.3330    0.2120 C.3   189  SER189      0.2055
     52  C          0.7940   10.0120    0.7490 C.2   189  SER189      0.2643
     53  O          1.7320    9.4510    0.1920 O.2   189  SER189     -0.2714
     54  CB         1.4340   12.3100    0.0810 C.3   189  SER189      0.2130
     55  OG         2.2520   12.3230    1.2540 O.3   189  SER189     -0.2179
     56  N          0.2110    9.5210    1.8370 N.am  190  GLN190     -0.1963
     57  CA         0.8650    8.4690    2.6060 C.3   190  GLN190      0.1733
     58  C          0.7150    7.0600    2.0440 C.2   190  GLN190      0.2616
     59  O         -0.3820    6.6090    1.7290 O.2   190  GLN190     -0.2715
     60  CB         0.4080    8.4890    4.0610 C.3   190  GLN190      0.0408
     61  CG         1.3130    7.6740    4.9530 C.3   190  GLN190      0.0908
     62  CD         0.6950    7.3730    6.2940 C.2   190  GLN190      0.2608
     63  OE1        0.6890    8.2170    7.1880 O.2   190  GLN190     -0.2717
     64  NE2        0.1670    6.1570    6.4450 N.am  190  GLN190     -0.0878
     65  N          1.8440    6.3760    1.9390 N.am  191  ARG191     -0.1963
     66  CA         1.9050    4.9670    1.5780 C.3   191  ARG191      0.1729
     67  C          1.7840    4.1050    2.8390 C.2   191  ARG191      0.2616
     68  O          2.2560    4.4860    3.9130 O.2   191  ARG191     -0.2715
     69  CB         3.2430    4.7160    0.8830 C.3   191  ARG191      0.0348
     70  CG         3.6470    3.2840    0.6000 C.3   191  ARG191      0.0492
     71  CD         5.1670    3.2730    0.5020 C.3   191  ARG191      0.2205
     72  NE         5.7360    2.3100   -0.4380 N.pl3 191  ARG191     -0.0865
     73  CZ         6.0300    2.5740   -1.7100 C.cat 191  ARG191      0.5346
     74  NH1        5.7790    3.7700   -2.2260 N.pl3 191  ARG191      0.1354
     75  NH2        6.5650    1.6290   -2.4730 N.pl3 191  ARG191      0.1354
     76  N          1.1300    2.9540    2.7200 N.am  192  GLY192     -0.1955
     77  CA         0.9930    2.0520    3.8480 C.3   192  GLY192      0.1869
     78  C          2.3630    1.5260    4.2070 C.2   192  GLY192      0.2309
     79  O          3.1820    1.2870    3.3220 O.2   192  GLY192     -0.2863
     80  N          8.2590   12.6610   -5.9460 N.3   226  ARG226     -0.1245
     81  CA         6.8160   12.4830   -6.0840 C.3   226  ARG226      0.1563
     82  C          6.1410   13.6180   -5.3150 C.2   226  ARG226      0.2260
     83  O          5.1810   14.2250   -5.7810 O.2   226  ARG226     -0.2867
     84  CB         6.4000   11.1230   -5.5120 C.3   226  ARG226      0.0307
     85  CG         4.9370   10.7810   -5.6510 C.3   226  ARG226      0.0489
     86  CD         4.6780    9.2860   -5.3630 C.3   226  ARG226      0.2205
     87  NE         4.5820    8.9360   -3.9380 N.pl3 226  ARG226     -0.0865
     88  CZ         3.5670    9.2900   -3.1400 C.cat 226  ARG226      0.5346
     89  NH1        3.5450    8.9140   -1.8670 N.pl3 226  ARG226      0.1354
     90  NH2        2.5700   10.0300   -3.6070 N.pl3 226  ARG226      0.1354
@<TRIPOS>BOND
     1    81    80    1
     2    81    84    1
     3    81    82    1
     4    83    82    2
     5    85    84    1
     6    85    86    1
     7    86    87    1
     8     6     5    1
     9     6     7    1
    10    87    88    2
    11    90    88    1
    12     5     2    1
    13    19    18    1
    14     7     9   am
    15     7     8    2
    16    88    89    1
    17    75    73    1
    18    18    20    1
    19    18    17    2
    20    26    25    1
    21    74    73    1
    22     2     3    1
    23     2     1    1
    24     3     4    2
    25    73    72    2
    26    25    22    1
    27    17    16    1
    28    16    15    1
    29    72    71    1
    30    22    21    1
    31    22    23    1
    32    15    14    1
    33    21    12   am
    34    14    11    1
    35    54    51    1
    36    54    55    1
    37    49    48    2
    38    53    52    2
    39    51    52    1
    40    51    50    1
    41    71    70    1
    42    70    69    1
    43    52    56   am
    44    23    24    2
    45    69    66    1
    46    10    11    1
    47    48    50   am
    48    48    47    1
    49    34    32    1
    50    12    11    1
    51    12    13    2
    52    66    65    1
    53    66    67    1
    54    59    58    2
    55    56    57    1
    56    65    58   am
    57    47    46    1
    58    58    57    1
    59    32    31    1
    60    32    33    1
    61    31    28    1
    62    57    60    1
    63    76    67   am
    64    76    77    1
    65    67    68    2
    66    79    78    2
    67    29    28    1
    68    29    30    2
    69    28    27    1
    70    77    78    1
    71    60    61    1
    72    61    62    1
    73    45    43    1
    74    62    64   am
    75    62    63    2
    76    42    43    2
    77    42    41    1
    78    43    44    1
    79    35    36    1
    80    39    36    1
    81    39    40    1
    82    37    36    1
    83    37    38    2
    84    41    40    1
