@<TRIPOS>MOLECULE
tmp/4dn2A00.pdb
 129 126 0 0 0
SMALL
GASTEIGER

@<TRIPOS>ATOM
      1  N         19.8120    3.8080   68.4950 N.3    15  ARG15      -0.1231
      2  CA        20.4270    4.9020   67.7270 C.3    15  ARG15       0.1694
      3  C         21.9070    4.6040   67.4750 C.2    15  ARG15       0.2592
      4  O         22.6270    4.2280   68.3960 O.2    15  ARG15      -0.2718
      5  CB        20.2860    6.2320   68.4830 C.3    15  ARG15       0.0321
      6  CG        20.9510    7.4450   67.8270 C.3    15  ARG15       0.0489
      7  CD        21.6460    8.3440   68.8630 C.3    15  ARG15       0.2205
      8  NE        22.5760    7.5590   69.6660 N.pl3  15  ARG15      -0.0865
      9  CZ        23.8100    7.2290   69.2890 C.cat  15  ARG15       0.5346
     10  NH1       24.2920    7.6470   68.1250 N.pl3  15  ARG15       0.1354
     11  NH2       24.5590    6.4730   70.0770 N.pl3  15  ARG15       0.1354
     12  N         22.3510    4.7550   66.2280 N.am   16  ARG16      -0.1966
     13  CA        23.7650    4.5960   65.8750 C.3    16  ARG16       0.1729
     14  C         24.2370    5.8100   65.0650 C.2    16  ARG16       0.2616
     15  O         23.4330    6.4600   64.4000 O.2    16  ARG16      -0.2715
     16  CB        23.9470    3.3510   64.9980 C.3    16  ARG16       0.0348
     17  CG        23.7000    2.0230   65.6880 C.3    16  ARG16       0.0492
     18  CD        24.9910    1.4120   66.2090 C.3    16  ARG16       0.2205
     19  NE        25.4920    2.0910   67.3990 N.pl3  16  ARG16      -0.0865
     20  CZ        24.9860    1.9360   68.6220 C.cat  16  ARG16       0.5346
     21  NH1       23.9410    1.1320   68.8310 N.pl3  16  ARG16       0.1354
     22  NH2       25.5220    2.5960   69.6420 N.pl3  16  ARG16       0.1354
     23  N         25.5360    6.1000   65.0940 N.am   17  SER17      -0.1950
     24  CA        26.1040    7.0420   64.1320 C.3    17  SER17       0.1924
     25  C         26.0450    6.3900   62.7540 C.2    17  SER17       0.2314
     26  O         26.4830    5.2560   62.5890 O.2    17  SER17      -0.2863
     27  CB        27.5410    7.3950   64.5000 C.3    17  SER17       0.2116
     28  OG        27.5850    8.2210   65.6510 O.3    17  SER17      -0.2180
     29  N         27.1460    6.7910   58.7560 N.3    19  ARG19      -0.1245
     30  CA        28.1530    7.4830   57.9440 C.3    19  ARG19       0.1563
     31  C         28.0640    7.1400   56.4550 C.2    19  ARG19       0.2260
     32  O         28.7940    7.7180   55.6380 O.2    19  ARG19      -0.2867
     33  CB        29.5670    7.2310   58.4910 C.3    19  ARG19       0.0307
     34  CG        29.7970    7.8210   59.8870 C.3    19  ARG19       0.0489
     35  CD        31.1690    7.4490   60.4130 C.3    19  ARG19       0.2205
     36  NE        31.4170    7.8920   61.7900 N.pl3  19  ARG19      -0.0865
     37  CZ        31.1110    7.1880   62.8830 C.cat  19  ARG19       0.5346
     38  NH1       30.5080    5.9980   62.7820 N.pl3  19  ARG19       0.1354
     39  NH2       31.4130    7.6680   64.0830 N.pl3  19  ARG19       0.1354
     40  N         40.5470   11.1180   66.7180 N.3    78  TYR78      -0.1241
     41  CA        40.3110   11.1110   65.2780 C.3    78  TYR78       0.1605
     42  C         41.5850   11.3760   64.4870 C.2    78  TYR78       0.2264
     43  O         41.9600   12.5280   64.2670 O.2    78  TYR78      -0.2867
     44  CB        39.2180   12.1200   64.8800 C.3    78  TYR78       0.0534
     45  CG        37.8670   11.7670   65.4460 C.ar   78  TYR78      -0.0201
     46  CD1       37.1600   10.6550   64.9820 C.ar   78  TYR78      -0.0009
     47  CD2       37.3150   12.5120   66.4950 C.ar   78  TYR78      -0.0009
     48  CE1       35.9190   10.3220   65.5250 C.ar   78  TYR78       0.0417
     49  CE2       36.0630   12.1970   67.0330 C.ar   78  TYR78       0.0417
     50  CZ        35.3870   11.0890   66.5660 C.ar   78  TYR78       0.1957
     51  OH        34.1640   10.7600   67.1180 O.3    78  TYR78      -0.2866
     52  N         38.7900   11.3690   59.7280 N.3    81  ASN81      -0.1226
     53  CA        37.3660   11.6060   59.9740 C.3    81  ASN81       0.1770
     54  C         36.4900   10.6570   59.1620 C.2    81  ASN81       0.2439
     55  O         36.2660   10.8820   57.9640 O.2    81  ASN81      -0.2733
     56  CB        36.9940   13.0610   59.6810 C.3    81  ASN81       0.1168
     57  CG        35.5270   13.3220   59.8580 C.2    81  ASN81       0.2627
     58  OD1       34.8000   12.4760   60.3770 O.2    81  ASN81      -0.2716
     59  ND2       35.0760   14.4920   59.4290 N.am   81  ASN81      -0.0877
     60  N         35.9840    9.5940   59.8070 N.am   82  PRO82      -0.2718
     61  CA        35.2140    8.5780   59.0790 C.3    82  PRO82       0.1535
     62  C         33.9140    9.1190   58.5060 C.2    82  PRO82       0.2598
     63  O         33.3190    8.4760   57.6450 O.2    82  PRO82      -0.2715
     64  CB        34.9180    7.5220   60.1440 C.3    82  PRO82       0.0310
     65  CG        35.9290    7.7420   61.2060 C.3    82  PRO82       0.0237
     66  CD        36.2520    9.1980   61.1990 C.3    82  PRO82       0.0939
     67  N         33.4840   10.2910   58.9740 N.am   83  ALA83      -0.1978
     68  CA        32.2260   10.8930   58.5300 C.3    83  ALA83       0.1597
     69  C         32.4220   11.9370   57.4180 C.2    83  ALA83       0.2287
     70  O         31.4730   12.6130   56.9990 O.2    83  ALA83      -0.2864
     71  CB        31.5050   11.5020   59.7250 C.3    83  ALA83       0.0319
     72  N         25.0100   11.6440   62.2170 N.3   134  VAL134     -0.1231
     73  CA        26.2140   11.4870   63.0020 C.3   134  VAL134      0.1692
     74  C         26.6500   12.8890   63.4110 C.2   134  VAL134      0.2592
     75  O         26.5470   13.8250   62.6350 O.2   134  VAL134     -0.2718
     76  CB        27.3450   10.7270   62.2290 C.3   134  VAL134      0.0266
     77  CG1       27.6510   11.3710   60.8640 C.3   134  VAL134      0.0020
     78  CG2       28.6090   10.6530   63.0880 C.3   134  VAL134      0.0020
     79  N         27.1230   13.0260   64.6390 N.am  135  PHE135     -0.1962
     80  CA        27.6970   14.2860   65.1330 C.3   135  PHE135      0.1771
     81  C         29.1170   14.3730   64.5990 C.2   135  PHE135      0.2619
     82  O         29.9380   13.4940   64.9150 O.2   135  PHE135     -0.2715
     83  CB        27.7400   14.2370   66.6690 C.3   135  PHE135      0.0574
     84  CG        27.9180   15.5820   67.3510 C.ar  135  PHE135     -0.0200
     85  CD1       28.9880   16.4400   67.0310 C.ar  135  PHE135     -0.0042
     86  CD2       27.0390   15.9710   68.3720 C.ar  135  PHE135     -0.0042
     87  CE1       29.1480   17.6690   67.6960 C.ar  135  PHE135     -0.0003
     88  CE2       27.1860   17.1980   69.0230 C.ar  135  PHE135     -0.0003
     89  CZ        28.2440   18.0430   68.6970 C.ar  135  PHE135     -0.0000
     90  N         29.4220   15.4020   63.8050 N.am  136  VAL136     -0.1963
     91  CA        30.7870   15.5970   63.2810 C.3   136  VAL136      0.1727
     92  C         31.4280   16.7830   63.9750 C.2   136  VAL136      0.2617
     93  O         30.9980   17.9150   63.7890 O.2   136  VAL136     -0.2715
     94  CB        30.8140   15.7900   61.7500 C.3   136  VAL136      0.0290
     95  CG1       32.2470   15.9730   61.2400 C.3   136  VAL136      0.0023
     96  CG2       30.1370   14.6010   61.0830 C.3   136  VAL136      0.0023
     97  N         32.4770   16.5060   64.7550 N.am  137  GLY137     -0.1940
     98  CA        33.1940   17.5490   65.4850 C.3   137  GLY137      0.2014
     99  C         34.4920   17.9910   64.8230 C.2   137  GLY137      0.2638
    100  O         35.0740   19.0010   65.2250 O.2   137  GLY137     -0.2714
    101  N         34.9240   17.2470   63.8030 N.am  138  VAL138     -0.1977
    102  CA        36.1440   17.5560   63.0280 C.3   138  VAL138      0.1596
    103  C         35.7700   18.4500   61.8440 C.2   138  VAL138      0.2287
    104  O         35.0030   18.0370   60.9490 O.2   138  VAL138     -0.2864
    105  CB        36.8250   16.2610   62.5140 C.3   138  VAL138      0.0276
    106  CG1       37.9930   16.5920   61.5880 C.3   138  VAL138      0.0022
    107  CG2       37.2890   15.4000   63.6850 C.3   138  VAL138      0.0022
    108  N         27.4610   -1.2290   66.5190 N.3   172  GLY172     -0.1210
    109  CA        28.3370   -0.0920   66.8210 C.3   172  GLY172      0.1940
    110  C         29.4450   -0.3540   67.8250 C.2   172  GLY172      0.2453
    111  O         29.6590   -1.5000   68.2390 O.2   172  GLY172     -0.2732
    112  N         30.1730    0.7050   68.2250 N.am  173  PRO173     -0.2728
    113  CA        31.2390    0.4610   69.1890 C.3   173  PRO173      0.1401
    114  C         30.6700    0.1380   70.5730 C.2   173  PRO173      0.2269
    115  O         29.4830    0.3630   70.8360 O.2   173  PRO173     -0.2865
    116  CB        32.0250    1.7810   69.1940 C.3   173  PRO173      0.0296
    117  CG        31.0450    2.8110   68.7760 C.3   173  PRO173      0.0237
    118  CD        30.0520    2.1330   67.8690 C.3   173  PRO173      0.0939
    119  N         30.1170    0.0980   74.8070 N.3   175  ARG175     -0.1245
    120  CA        30.0470    1.0600   75.8970 C.3   175  ARG175      0.1563
    121  C         30.7020    0.4430   77.1210 C.2   175  ARG175      0.2260
    122  O         30.6840   -0.7900   77.2930 O.2   175  ARG175     -0.2867
    123  CB        28.5970    1.4630   76.2290 C.3   175  ARG175      0.0307
    124  CG        27.8880    2.2950   75.1690 C.3   175  ARG175      0.0489
    125  CD        28.5730    3.6390   74.9260 C.3   175  ARG175      0.2205
    126  NE        27.7580    4.4920   74.0490 N.pl3 175  ARG175     -0.0865
    127  CZ        27.7230    4.3850   72.7180 C.cat 175  ARG175      0.5346
    128  NH1       28.4640    3.4620   72.1040 N.pl3 175  ARG175      0.1354
    129  NH2       26.9470    5.1940   71.9960 N.pl3 175  ARG175      0.1354
@<TRIPOS>BOND
     1    32    31    2
     2    31    30    1
     3    70    69    2
     4    69    68    1
     5    63    62    2
     6    30    33    1
     7    30    29    1
     8    55    54    2
     9    33    34    1
    10    62    67   am
    11    62    61    1
    12    68    67    1
    13    68    71    1
    14    61    60    1
    15    61    64    1
    16    54    60   am
    17    54    53    1
    18    59    57   am
    19    56    57    1
    20    56    53    1
    21    52    53    1
    22    60    66    1
    23    57    58    2
    24    34    35    1
    25    64    65    1
    26    35    36    1
    27    77    76    1
    28   104   103    2
    29    96    94    1
    30    66    65    1
    31    95    94    1
    32   106   105    1
    33    94    91    1
    34    36    37    2
    35   103   102    1
    36    72    73    1
    37    76    73    1
    38    76    78    1
    39   105   102    1
    40   105   107    1
    41    26    25    2
    42    75    74    2
    43    25    24    1
    44    38    37    1
    45    37    39    1
    46    73    74    1
    47   102   101    1
    48    91    90    1
    49    91    92    1
    50    74    79   am
    51    93    92    2
    52   101    99   am
    53    90    81   am
    54    92    97   am
    55    24    27    1
    56    24    23    1
    57    43    42    2
    58    15    14    2
    59    42    41    1
    60    27    28    1
    61    81    82    2
    62    81    80    1
    63    79    80    1
    64    97    98    1
    65    99   100    2
    66    99    98    1
    67    44    41    1
    68    44    45    1
    69    46    45   ar
    70    46    48   ar
    71    16    17    1
    72    16    13    1
    73    14    23   am
    74    14    13    1
    75    80    83    1
    76    41    40    1
    77    45    47   ar
    78    48    50   ar
    79    17    18    1
    80    13    12    1
    81    18    19    1
    82    12     3   am
    83    47    49   ar
    84   108   109    1
    85    50    49   ar
    86    50    51    1
    87    83    84    1
    88   109   110    1
    89    85    84   ar
    90    85    87   ar
    91    84    86   ar
    92    19    20    2
    93     3     2    1
    94     3     4    2
    95    87    89   ar
    96     2     5    1
    97     2     1    1
    98   110   112   am
    99   110   111    2
   100     6     5    1
   101     6     7    1
   102   118   112    1
   103   118   117    1
   104    10     9    1
   105   112   113    1
   106    86    88   ar
   107    20    21    1
   108    20    22    1
   109    89    88   ar
   110   117   116    1
   111     7     8    1
   112   113   116    1
   113   113   114    1
   114     9     8    2
   115     9    11    1
   116   114   115    2
   117   129   127    1
   118   128   127    1
   119   127   126    2
   120   126   125    1
   121   119   120    1
   122   125   124    1
   123   124   123    1
   124   120   123    1
   125   120   121    1
   126   121   122    2
