@<TRIPOS>MOLECULE
tmp/4dn2A01.pdb
 88 88 0 0 0
SMALL
GASTEIGER

@<TRIPOS>ATOM
      1  N         12.9100   21.9040   70.9780 N.3    40  LEU40      -0.1231
      2  CA        12.2570   21.5650   72.2510 C.3    40  LEU40       0.1693
      3  C         13.2100   21.1120   73.3620 C.2    40  LEU40       0.2592
      4  O         12.7690   20.8170   74.4740 O.2    40  LEU40      -0.2718
      5  CB        11.1270   20.5480   72.0100 C.3    40  LEU40       0.0284
      6  CG        10.0570   21.0550   71.0160 C.3    40  LEU40       0.0019
      7  CD1        9.0810   19.9620   70.6460 C.3    40  LEU40       0.0001
      8  CD2        9.3460   22.2800   71.5400 C.3    40  LEU40       0.0001
      9  N         14.5130   21.0840   73.0750 N.am   41  ALA41      -0.1966
     10  CA        15.4950   20.7820   74.0990 C.3    41  ALA41       0.1713
     11  C         15.4700   21.8010   75.2350 C.2    41  ALA41       0.2458
     12  O         15.1650   22.9880   75.0240 O.2    41  ALA41      -0.2730
     13  CB        16.8820   20.7380   73.4850 C.3    41  ALA41       0.0333
     14  N         15.8010   21.3440   76.4530 N.am   42  PRO42      -0.2716
     15  CA        16.0610   22.2830   77.5520 C.3    42  PRO42       0.1536
     16  C         17.4120   22.9660   77.3230 C.2    42  PRO42       0.2599
     17  O         18.2900   22.3880   76.6600 O.2    42  PRO42      -0.2715
     18  CB        16.1440   21.3760   78.7780 C.3    42  PRO42       0.0310
     19  CG        16.6450   20.0710   78.2320 C.3    42  PRO42       0.0237
     20  CD        15.9980   19.9400   76.8660 C.3    42  PRO42       0.0939
     21  N         17.5460   24.1810   77.8580 N.am   43  SER43      -0.1936
     22  CA        18.7670   24.9920   77.7580 C.3    43  SER43       0.2055
     23  C         18.9000   25.8290   79.0170 C.2    43  SER43       0.2643
     24  O         17.9190   26.0300   79.7400 O.2    43  SER43      -0.2714
     25  CB        18.7560   25.9030   76.5310 C.3    43  SER43       0.2130
     26  OG        17.6290   26.7830   76.5260 O.3    43  SER43      -0.2179
     27  N         20.1240   26.2930   79.2700 N.am   44  TRP44      -0.1959
     28  CA        20.4220   27.2050   80.3580 C.3    44  TRP44       0.1771
     29  C         19.4640   28.3680   80.3450 C.2    44  TRP44       0.2620
     30  O         19.4300   29.1300   79.3680 O.2    44  TRP44      -0.2715
     31  CB        21.8510   27.7130   80.1910 C.3    44  TRP44       0.0590
     32  CG        22.3180   28.4890   81.3840 C.ar   44  TRP44       0.0006
     33  CD1       21.9840   29.7980   81.7420 C.ar   44  TRP44       0.0946
     34  CD2       23.1920   28.0120   82.4500 C.ar   44  TRP44       0.0152
     35  NE1       22.5820   30.1550   82.9170 N.ar   44  TRP44      -0.2442
     36  CE2       23.3170   29.1250   83.4040 C.ar   44  TRP44       0.0810
     37  CE3       23.8740   26.8170   82.7040 C.ar   44  TRP44       0.0012
     38  CZ2       24.0910   29.0280   84.5440 C.ar   44  TRP44       0.0191
     39  CZ3       24.6480   26.7330   83.8730 C.ar   44  TRP44       0.0001
     40  CH2       24.7590   27.8160   84.7630 C.ar   44  TRP44       0.0015
     41  N         18.6740   28.4970   81.4140 N.am   45  ALA45      -0.1963
     42  CA        17.6830   29.5670   81.5650 C.3    45  ALA45       0.1728
     43  C         16.7490   29.7130   80.3690 C.2    45  ALA45       0.2616
     44  O         16.2390   30.8130   80.1130 O.2    45  ALA45      -0.2715
     45  CB        18.3650   30.8970   81.8940 C.3    45  ALA45       0.0334
     46  N         16.4840   28.5970   79.6720 N.am   46  ASN46      -0.1972
     47  CA        15.6530   28.6070   78.4660 C.3    46  ASN46       0.1688
     48  C         16.1480   29.6440   77.4540 C.2    46  ASN46       0.2292
     49  O         15.3560   30.2180   76.7100 O.2    46  ASN46      -0.2864
     50  CB        14.1720   28.8690   78.8260 C.3    46  ASN46       0.1181
     51  CG        13.2110   28.4670   77.7170 C.2    46  ASN46       0.2629
     52  OD1       13.4310   27.4760   77.0180 O.2    46  ASN46      -0.2716
     53  ND2       12.1300   29.2440   77.5530 N.am   46  ASN46      -0.0877
     54  N         28.5920   26.8470   78.8040 N.3   111  TYR111     -0.1241
     55  CA        27.4600   25.9340   78.6920 C.3   111  TYR111      0.1605
     56  C         26.7460   25.9450   77.3440 C.2   111  TYR111      0.2264
     57  O         25.8910   25.0790   77.1190 O.2   111  TYR111     -0.2867
     58  CB        26.4750   26.1310   79.8540 C.3   111  TYR111      0.0534
     59  CG        26.8950   25.3420   81.0650 C.ar  111  TYR111     -0.0201
     60  CD1       27.8580   25.8430   81.9370 C.ar  111  TYR111     -0.0009
     61  CD2       26.3450   24.0910   81.3280 C.ar  111  TYR111     -0.0009
     62  CE1       28.2720   25.1140   83.0400 C.ar  111  TYR111      0.0417
     63  CE2       26.7370   23.3510   82.4390 C.ar  111  TYR111      0.0417
     64  CZ        27.7070   23.8640   83.2810 C.ar  111  TYR111      0.1957
     65  OH        28.1000   23.1550   84.3740 O.3   111  TYR111     -0.2866
     66  N         27.2110   22.5440   76.1620 N.3   114  THR114     -0.1203
     67  CA        26.2460   21.6290   76.7750 C.3   114  THR114      0.1994
     68  C         24.8710   21.7590   76.1360 C.2   114  THR114      0.2617
     69  O         24.2470   20.7380   75.7950 O.2   114  THR114     -0.2717
     70  CB        26.1670   21.8620   78.2950 C.3   114  THR114      0.1784
     71  OG1       27.4630   21.6550   78.8500 O.3   114  THR114     -0.2211
     72  CG2       25.1250   20.9320   78.9690 C.3   114  THR114      0.0376
     73  N         24.3920   22.9950   75.9880 N.am  115  ASP115     -0.1973
     74  CA        23.0930   23.2450   75.3880 C.3   115  ASP115      0.1709
     75  C         23.0230   22.6690   73.9740 C.2   115  ASP115      0.2293
     76  O         22.0500   21.9600   73.6240 O.2   115  ASP115     -0.2864
     77  CB        22.7860   24.7290   75.3360 C.3   115  ASP115      0.1436
     78  CG        22.4360   25.3290   76.6940 C.2   115  ASP115      0.3671
     79  OD1       22.1580   24.5960   77.6710 O.co2 115  ASP115     -0.2456
     80  OD2       22.4450   26.5860   76.7790 O.co2 115  ASP115     -0.2456
     81  N         22.7420   18.8600   74.1350 N.3   118  ILE118     -0.1245
     82  CA        21.3580   18.4520   74.4870 C.3   118  ILE118      0.1561
     83  C         20.4740   18.4990   73.2370 C.2   118  ILE118      0.2260
     84  O         19.7770   17.5280   72.9180 O.2   118  ILE118     -0.2867
     85  CB        20.7820   19.3170   75.6250 C.3   118  ILE118      0.0252
     86  CG1       21.6110   19.1450   76.9060 C.3   118  ILE118      0.0019
     87  CG2       19.2950   19.0340   75.8600 C.3   118  ILE118      0.0019
     88  CD1       21.3080   20.2180   77.9370 C.3   118  ILE118      0.0001
@<TRIPOS>BOND
     1     7     6    1
     2     1     2    1
     3     6     8    1
     4     6     5    1
     5     5     2    1
     6     2     3    1
     7    84    83    2
     8     9     3   am
     9     9    10    1
    10    83    82    1
    11     3     4    2
    12    13    10    1
    13    76    75    2
    14    75    74    1
    15    10    11    1
    16    81    82    1
    17    82    85    1
    18    12    11    2
    19    11    14   am
    20    77    74    1
    21    77    78    1
    22    74    73    1
    23    85    87    1
    24    85    86    1
    25    69    68    2
    26    73    68   am
    27    68    67    1
    28    66    67    1
    29    14    20    1
    30    14    15    1
    31    26    25    1
    32    25    22    1
    33    17    16    2
    34    78    80   ar
    35    78    79   ar
    36    49    48    2
    37    67    70    1
    38    20    19    1
    39    86    88    1
    40    52    51    2
    41    57    56    2
    42    16    15    1
    43    16    21   am
    44    56    55    1
    45    48    47    1
    46    15    18    1
    47    53    51   am
    48    51    50    1
    49    22    21    1
    50    22    23    1
    51    19    18    1
    52    70    71    1
    53    70    72    1
    54    47    50    1
    55    47    46    1
    56    55    54    1
    57    55    58    1
    58    23    27   am
    59    23    24    2
    60    27    28    1
    61    30    29    2
    62    46    43   am
    63    58    59    1
    64    44    43    2
    65    31    28    1
    66    31    32    1
    67    29    28    1
    68    29    41   am
    69    43    42    1
    70    59    61   ar
    71    59    60   ar
    72    61    63   ar
    73    32    33   ar
    74    32    34   ar
    75    41    42    1
    76    42    45    1
    77    33    35   ar
    78    60    62   ar
    79    63    64   ar
    80    34    37   ar
    81    34    36   ar
    82    37    39   ar
    83    35    36   ar
    84    62    64   ar
    85    64    65    1
    86    36    38   ar
    87    39    40   ar
    88    38    40   ar
