@<TRIPOS>MOLECULE
tmp/4dn5A00.pdb
 197 185 0 0 0
SMALL
GASTEIGER

@<TRIPOS>ATOM
      1  N         -0.6810   33.1100   -7.9240 N.3    75  LEU75      -0.1231
      2  CA        -0.7200   31.8530   -7.1720 C.3    75  LEU75       0.1693
      3  C         -1.7820   30.8990   -7.7020 C.2    75  LEU75       0.2593
      4  O         -1.6950   29.6860   -7.5090 O.2    75  LEU75      -0.2718
      5  CB        -0.9620   32.1270   -5.6870 C.3    75  LEU75       0.0284
      6  CG         0.1290   32.9050   -4.9440 C.3    75  LEU75       0.0019
      7  CD1       -0.4180   33.4580   -3.6370 C.3    75  LEU75       0.0001
      8  CD2        1.3580   32.0390   -4.7000 C.3    75  LEU75       0.0001
      9  N         -2.7850   31.4600   -8.3680 N.am   76  GLY76      -0.1942
     10  CA        -3.8540   30.6800   -8.9590 C.3    76  GLY76       0.2014
     11  C         -5.0460   31.5360   -9.3190 C.2    76  GLY76       0.2639
     12  O         -5.1230   32.7090   -8.9470 O.2    76  GLY76      -0.2714
     13  N         -5.9790   30.9400  -10.0510 N.am   77  ARG77      -0.1963
     14  CA        -7.2140   31.6080  -10.4240 C.3    77  ARG77       0.1729
     15  C         -8.3230   30.5830  -10.5820 C.2    77  ARG77       0.2617
     16  O         -8.1240   29.5340  -11.1990 O.2    77  ARG77      -0.2715
     17  CB        -7.0350   32.3840  -11.7310 C.3    77  ARG77       0.0348
     18  CG        -8.2390   33.2300  -12.1210 C.3    77  ARG77       0.0492
     19  CD        -8.0870   33.8100  -13.5160 C.3    77  ARG77       0.2205
     20  NE        -8.3460   32.8190  -14.5560 N.pl3  77  ARG77      -0.0865
     21  CZ        -8.1140   33.0090  -15.8490 C.cat  77  ARG77       0.5346
     22  NH1       -7.6070   34.1610  -16.2790 N.pl3  77  ARG77       0.1354
     23  NH2       -8.3870   32.0420  -16.7160 N.pl3  77  ARG77       0.1354
     24  N         -9.4860   30.8920  -10.0180 N.am   78  GLY78      -0.1940
     25  CA       -10.6810   30.0890  -10.2260 C.3    78  GLY78       0.2014
     26  C        -11.6530   30.7870  -11.1570 C.2    78  GLY78       0.2640
     27  O        -11.2460   31.4560  -12.1100 O.2    78  GLY78      -0.2714
     28  N        -12.9410   30.6370  -10.8660 N.am   79  SER79      -0.1935
     29  CA       -14.0090   31.2010  -11.6850 C.3    79  SER79       0.2055
     30  C        -14.4100   32.6180  -11.2710 C.2    79  SER79       0.2643
     31  O        -15.1600   33.2850  -11.9890 O.2    79  SER79      -0.2714
     32  CB       -15.2400   30.2870  -11.6440 C.3    79  SER79       0.2130
     33  OG       -15.0710   29.1590  -12.4860 O.3    79  SER79      -0.2179
     34  N        -13.9200   33.0710  -10.1200 N.am   80  PHE80      -0.1959
     35  CA       -14.3580   34.3450   -9.5490 C.3    80  PHE80       0.1771
     36  C        -13.2170   35.2390   -9.0570 C.2    80  PHE80       0.2620
     37  O        -13.3650   36.4620   -9.0240 O.2    80  PHE80      -0.2715
     38  CB       -15.3720   34.1110   -8.4190 C.3    80  PHE80       0.0574
     39  CG       -16.7150   33.6240   -8.8970 C.ar   80  PHE80      -0.0200
     40  CD1      -17.7250   34.5290   -9.2150 C.ar   80  PHE80      -0.0042
     41  CD2      -16.9730   32.2630   -9.0290 C.ar   80  PHE80      -0.0042
     42  CE1      -18.9620   34.0870   -9.6600 C.ar   80  PHE80      -0.0003
     43  CE2      -18.2080   31.8130   -9.4720 C.ar   80  PHE80      -0.0003
     44  CZ       -19.2040   32.7260   -9.7870 C.ar   80  PHE80      -0.0000
     45  N        -12.0850   34.6380   -8.6880 N.am   81  GLY81      -0.1954
     46  CA       -10.9560   35.4090   -8.1600 C.3    81  GLY81       0.1869
     47  C         -9.5680   35.0630   -8.6780 C.2    81  GLY81       0.2309
     48  O         -9.2700   33.9020   -8.9520 O.2    81  GLY81      -0.2863
     49  N         -5.6250   35.1640   -7.4860 N.3    83  VAL83      -0.1245
     50  CA        -4.8530   35.2210   -6.2420 C.3    83  VAL83       0.1561
     51  C         -3.3640   35.4770   -6.5100 C.2    83  VAL83       0.2260
     52  O         -2.7600   34.8270   -7.3650 O.2    83  VAL83      -0.2867
     53  CB        -5.0560   33.9460   -5.3880 C.3    83  VAL83       0.0252
     54  CG1       -4.2140   33.9910   -4.1180 C.3    83  VAL83       0.0019
     55  CG2       -6.5280   33.7680   -5.0390 C.3    83  VAL83       0.0019
     56  N         -1.3710   36.6820    0.9970 N.3    96  ALA96      -0.1245
     57  CA        -2.0570   36.4750   -0.2840 C.3    96  ALA96       0.1562
     58  C         -3.2100   37.4600   -0.4960 C.2    96  ALA96       0.2260
     59  O         -3.8480   37.8940    0.4640 O.2    96  ALA96      -0.2867
     60  CB        -2.5520   35.0380   -0.3940 C.3    96  ALA96       0.0290
     61  N         -6.7950   37.8360   -2.8480 N.3    98  LYS98      -0.1245
     62  CA        -7.7610   37.3850   -3.8350 C.3    98  LYS98       0.1561
     63  C         -8.4650   38.6200   -4.3920 C.2    98  LYS98       0.2260
     64  O         -9.0620   39.4010   -3.6420 O.2    98  LYS98      -0.2867
     65  CB        -8.7600   36.4040   -3.2100 C.3    98  LYS98       0.0271
     66  CG        -9.7210   35.7740   -4.2010 C.3    98  LYS98       0.0035
     67  CD       -10.7000   34.8380   -3.5130 C.3    98  LYS98       0.0206
     68  CE       -11.7300   34.3080   -4.4990 C.3    98  LYS98       0.1093
     69  NZ       -12.3380   33.0230   -4.0430 N.3    98  LYS98      -0.1314
     70  N        -18.5750   35.0950    1.8040 N.3   109  GLU109     -0.1245
     71  CA       -17.1830   34.6590    1.6710 C.3   109  GLU109      0.1567
     72  C        -16.3290   35.1060    2.8610 C.2   109  GLU109      0.2260
     73  O        -15.4060   34.3980    3.2800 O.2   109  GLU109     -0.2867
     74  CB       -16.5840   35.1520    0.3470 C.3   109  GLU109      0.0388
     75  CG       -15.1440   34.7120    0.0990 C.3   109  GLU109      0.1160
     76  CD       -14.7580   34.7210   -1.3680 C.2   109  GLU109      0.3649
     77  OE1      -15.5180   35.2730   -2.1910 O.co2 109  GLU109     -0.2457
     78  OE2      -13.6880   34.1710   -1.7010 O.co2 109  GLU109     -0.2457
     79  N         -8.2360   28.6520    6.3950 N.3   122  VAL122     -0.1245
     80  CA        -7.2800   29.7460    6.1780 C.3   122  VAL122      0.1561
     81  C         -7.6410   30.9970    6.9780 C.2   122  VAL122      0.2260
     82  O         -8.7860   31.4450    6.9380 O.2   122  VAL122     -0.2867
     83  CB        -7.0990   30.1260    4.6850 C.3   122  VAL122      0.0252
     84  CG1       -6.3030   29.0610    3.9550 C.3   122  VAL122      0.0019
     85  CG2       -8.4380   30.3890    3.9990 C.3   122  VAL122      0.0019
     86  N         -5.3800   37.1370    3.0550 N.3   138  MET138     -0.1230
     87  CA        -5.3590   35.9050    3.8410 C.3   138  MET138      0.1702
     88  C         -3.9430   35.3600    3.9500 C.2   138  MET138      0.2592
     89  O         -3.0260   35.8610    3.2940 O.2   138  MET138     -0.2718
     90  CB        -6.2770   34.8460    3.2140 C.3   138  MET138      0.0401
     91  CG        -5.9630   34.5240    1.7640 C.3   138  MET138      0.0596
     92  SD        -7.3430   33.7180    0.9350 S.3   138  MET138     -0.1393
     93  CE        -6.9920   34.1510   -0.7640 C.3   138  MET138      0.0692
     94  N         -3.7750   34.3300    4.7750 N.am  139  GLU139     -0.1966
     95  CA        -2.4880   33.6680    4.9250 C.3   139  GLU139      0.1733
     96  C         -2.0470   33.0550    3.6070 C.2   139  GLU139      0.2616
     97  O         -2.8430   32.4230    2.9030 O.2   139  GLU139     -0.2715
     98  CB        -2.5470   32.5910    6.0120 C.3   139  GLU139      0.0429
     99  CG        -1.1800   32.0470    6.4140 C.3   139  GLU139      0.1163
    100  CD        -1.2660   31.0000    7.5030 C.2   139  GLU139      0.3649
    101  OE1       -0.9220   31.3180    8.6610 O.co2 139  GLU139     -0.2457
    102  OE2       -1.6870   29.8640    7.2070 O.co2 139  GLU139     -0.2457
    103  N         -0.7770   33.2680    3.2760 N.am  140  LEU140     -0.1963
    104  CA        -0.1600   32.6310    2.1270 C.3   140  LEU140      0.1728
    105  C          0.2620   31.2150    2.4960 C.2   140  LEU140      0.2616
    106  O          0.9460   31.0010    3.5000 O.2   140  LEU140     -0.2715
    107  CB         1.0460   33.4450    1.6450 C.3   140  LEU140      0.0311
    108  CG         2.0450   32.8000    0.6740 C.3   140  LEU140      0.0022
    109  CD1        1.3860   32.4150   -0.6430 C.3   140  LEU140      0.0001
    110  CD2        3.2300   33.7220    0.4330 C.3   140  LEU140      0.0001
    111  N         -0.1610   30.2540    1.6820 N.am  141  LEU141     -0.1977
    112  CA         0.2750   28.8700    1.8250 C.3   141  LEU141      0.1596
    113  C          1.0890   28.4480    0.6050 C.2   141  LEU141      0.2287
    114  O          0.6090   28.4980   -0.5290 O.2   141  LEU141     -0.2864
    115  CB        -0.9180   27.9460    2.0840 C.3   141  LEU141      0.0297
    116  CG        -1.4470   28.0520    3.5220 C.3   141  LEU141      0.0022
    117  CD1       -2.9270   27.7250    3.6090 C.3   141  LEU141      0.0001
    118  CD2       -0.6450   27.1870    4.4850 C.3   141  LEU141      0.0001
    119  N          0.8050   25.2100   -2.4610 N.3   144  GLY144     -0.1210
    120  CA        -0.2030   25.1990   -3.5150 C.3   144  GLY144      0.1956
    121  C         -1.4700   24.4970   -3.0660 C.2   144  GLY144      0.2612
    122  O         -1.6230   24.1620   -1.8900 O.2   144  GLY144     -0.2717
    123  N         -2.3800   24.2680   -4.0060 N.am  145  SER145     -0.1952
    124  CA        -3.6500   23.6360   -3.6860 C.3   145  SER145      0.1924
    125  C         -3.5560   22.1230   -3.8180 C.2   145  SER145      0.2314
    126  O         -2.6540   21.6030   -4.4780 O.2   145  SER145     -0.2863
    127  CB        -4.7630   24.1730   -4.5870 C.3   145  SER145      0.2116
    128  OG        -4.6900   23.6010   -5.8800 O.3   145  SER145     -0.2180
    129  N         -3.6990   21.2480   -7.4010 N.3   148  GLN148     -0.1245
    130  CA        -2.3840   21.3360   -8.0400 C.3   148  GLN148      0.1566
    131  C         -1.6040   20.0500   -7.7850 C.2   148  GLN148      0.2260
    132  O         -1.0210   19.4700   -8.7030 O.2   148  GLN148     -0.2867
    133  CB        -1.5800   22.5300   -7.5000 C.3   148  GLN148      0.0367
    134  CG        -2.1160   23.9100   -7.8560 C.3   148  GLN148      0.0905
    135  CD        -1.3050   25.0420   -7.2330 C.2   148  GLN148      0.2608
    136  OE1       -1.8490   25.8930   -6.5210 O.2   148  GLN148     -0.2717
    137  NE2        0.0020   25.0560   -7.4970 N.am  148  GLN148     -0.0878
    138  N        -18.5120   24.8340   -2.0380 N.3   184  ASP184     -0.1239
    139  CA       -17.6370   24.5010   -3.1580 C.3   184  ASP184      0.1674
    140  C        -16.4060   23.7100   -2.7040 C.2   184  ASP184      0.2266
    141  O        -15.2810   23.9850   -3.1330 O.2   184  ASP184     -0.2867
    142  CB       -17.2190   25.7870   -3.8800 C.3   184  ASP184      0.1410
    143  CG       -16.5960   25.5310   -5.2400 C.2   184  ASP184      0.3668
    144  OD1      -16.9650   24.5400   -5.9060 O.co2 184  ASP184     -0.2456
    145  OD2      -15.7350   26.3390   -5.6460 O.co2 184  ASP184     -0.2456
    146  N         -9.1900   21.8700   -5.5330 N.3   188  ASP188     -0.1225
    147  CA        -8.7340   23.2320   -5.8620 C.3   188  ASP188      0.1805
    148  C         -8.9060   24.2050   -4.6930 C.2   188  ASP188      0.2597
    149  O         -8.1670   25.1840   -4.5860 O.2   188  ASP188     -0.2718
    150  CB        -9.4700   23.7910   -7.0910 C.3   188  ASP188      0.1424
    151  CG        -8.9820   23.1940   -8.4070 C.2   188  ASP188      0.3668
    152  OD1       -7.8440   22.6750   -8.4670 O.co2 188  ASP188     -0.2456
    153  OD2       -9.7460   23.2580   -9.3970 O.co2 188  ASP188     -0.2456
    154  N         -9.8730   23.9260   -3.8180 N.am  189  ASN189     -0.1974
    155  CA       -10.2150   24.8370   -2.7200 C.3   189  ASN189      0.1688
    156  C         -9.6800   24.4560   -1.3390 C.2   189  ASN189      0.2292
    157  O        -10.1370   24.9790   -0.3180 O.2   189  ASN189     -0.2864
    158  CB       -11.7260   25.0770   -2.6740 C.3   189  ASN189      0.1181
    159  CG       -12.2230   25.8560   -3.8740 C.2   189  ASN189      0.2629
    160  OD1      -11.4510   26.5560   -4.5420 O.2   189  ASN189     -0.2716
    161  ND2      -13.5150   25.7530   -4.1510 N.am  189  ASN189     -0.0877
    162  N         -5.9460   24.3340    0.5460 N.3   191  LEU191     -0.1245
    163  CA        -4.5540   24.7460    0.4530 C.3   191  LEU191      0.1561
    164  C         -3.6430   23.8620    1.3020 C.2   191  LEU191      0.2260
    165  O         -4.0540   23.3450    2.3440 O.2   191  LEU191     -0.2867
    166  CB        -4.4190   26.2050    0.8780 C.3   191  LEU191      0.0270
    167  CG        -4.5430   27.3670   -0.1180 C.3   191  LEU191      0.0019
    168  CD1       -5.3750   27.0610   -1.3570 C.3   191  LEU191      0.0001
    169  CD2       -5.0980   28.5780    0.6150 C.3   191  LEU191      0.0001
    170  N        -10.1020   26.8020    1.8320 N.3   202  CYS202     -0.1221
    171  CA       -10.1610   28.1630    1.3190 C.3   202  CYS202      0.1808
    172  C        -11.3570   28.3140    0.3910 C.2   202  CYS202      0.2601
    173  O        -12.1040   27.3550    0.1650 O.2   202  CYS202     -0.2717
    174  CB        -8.8650   28.5330    0.5870 C.3   202  CYS202      0.0970
    175  SG        -8.7600   27.9680   -1.1320 S.3   202  CYS202     -0.0800
    176  N        -11.5280   29.5260   -0.1350 N.am  203  ASP203     -0.1973
    177  CA       -12.5470   29.8260   -1.1350 C.3   203  ASP203      0.1709
    178  C        -13.9680   29.5730   -0.6300 C.2   203  ASP203      0.2293
    179  O        -14.5650   28.5270   -0.9050 O.2   203  ASP203     -0.2864
    180  CB       -12.2730   29.0350   -2.4150 C.3   203  ASP203      0.1436
    181  CG       -13.1990   29.4110   -3.5440 C.2   203  ASP203      0.3671
    182  OD1      -14.0150   30.3450   -3.3860 O.co2 203  ASP203     -0.2456
    183  OD2      -13.1020   28.7710   -4.6100 O.co2 203  ASP203     -0.2456
    184  N        -16.5830   31.4130   -1.4700 N.3   205  GLY205     -0.1210
    185  CA       -17.4270   32.2010   -2.3700 C.3   205  GLY205      0.1956
    186  C        -18.8360   31.6690   -2.5830 C.2   205  GLY205      0.2611
    187  O        -19.7180   32.4060   -3.0290 O.2   205  GLY205     -0.2717
    188  N        -19.0430   30.3900   -2.2710 N.am  206  HIS206     -0.1975
    189  CA       -20.3550   29.7500   -2.3800 C.3   206  HIS206      0.1656
    190  C        -20.9310   29.4050   -1.0270 C.2   206  HIS206      0.2291
    191  O        -21.8680   28.6040   -0.9180 O.2   206  HIS206     -0.2864
    192  CB       -20.2750   28.5130   -3.2690 C.3   206  HIS206      0.0771
    193  CG       -20.1410   28.8250   -4.7420 C.ar  206  HIS206      0.0820
    194  ND1      -21.1600   28.6810   -5.6090 N.ar  206  HIS206     -0.2267
    195  CD2      -19.0560   29.2860   -5.4860 C.ar  206  HIS206      0.1154
    196  CE1      -20.7500   29.0270   -6.8460 C.ar  206  HIS206      0.1986
    197  NE2      -19.4630   29.3970   -6.7680 N.ar  206  HIS206     -0.2212
@<TRIPOS>BOND
     1    23    21    1
     2    22    21    1
     3    21    20    2
     4    20    19    1
     5    19    18    1
     6    33    32    1
     7    18    17    1
     8    27    26    2
     9    31    30    2
    10    17    14    1
    11    29    32    1
    12    29    30    1
    13    29    28    1
    14    30    34   am
    15    16    15    2
    16    26    28   am
    17    26    25    1
    18    15    14    1
    19    15    24   am
    20    14    13    1
    21    25    24    1
    22    34    35    1
    23    13    11   am
    24    44    42   ar
    25    44    43   ar
    26    42    40   ar
    27    35    36    1
    28    35    38    1
    29    43    41   ar
    30   153   151   ar
    31    11    10    1
    32    11    12    2
    33    40    39   ar
    34    36    37    2
    35    36    45   am
    36    41    39   ar
    37    10     9    1
    38    48    47    2
    39    39    38    1
    40   132   131    2
    41    45    46    1
    42    47    46    1
    43   152   151   ar
    44   151   150    1
    45     9     3   am
    46   130   131    1
    47   130   133    1
    48   130   129    1
    49     1     2    1
    50   134   133    1
    51   134   135    1
    52     3     4    2
    53     3     2    1
    54   137   135   am
    55    49    50    1
    56    52    51    2
    57   135   136    2
    58     2     5    1
    59   150   147    1
    60   196   197   ar
    61   196   194   ar
    62   197   195   ar
    63    51    50    1
    64    50    53    1
    65   144   143   ar
    66   128   127    1
    67   147   146    1
    68   147   148    1
    69     5     6    1
    70   145   143   ar
    71   194   193   ar
    72   195   193   ar
    73    53    55    1
    74    53    54    1
    75   143   142    1
    76     6     8    1
    77     6     7    1
    78   193   192    1
    79   148   149    2
    80   148   154   am
    81   183   181   ar
    82   127   124    1
    83   160   159    2
    84    68    69    1
    85    68    67    1
    86   126   125    2
    87    63    62    1
    88    63    64    2
    89    66    67    1
    90    66    65    1
    91   161   159   am
    92   123   124    1
    93   123   121   am
    94   142   139    1
    95   159   158    1
    96    62    65    1
    97    62    61    1
    98   125   124    1
    99   154   155    1
   100   181   182   ar
   101   181   180    1
   102   120   121    1
   103   120   119    1
   104   192   189    1
   105   139   140    1
   106   139   138    1
   107   141   140    2
   108   121   122    2
   109   187   186    2
   110   155   158    1
   111   155   156    1
   112   186   185    1
   113   186   188   am
   114   180   177    1
   115   189   188    1
   116   189   190    1
   117   185   184    1
   118    77    76   ar
   119    78    76   ar
   120    76    75    1
   121   168   167    1
   122   156   157    2
   123   177   178    1
   124   177   176    1
   125   175   174    1
   126   190   191    2
   127   179   178    2
   128    93    92    1
   129   109   108    1
   130   114   113    2
   131    58    57    1
   132    58    59    2
   133    60    57    1
   134    57    56    1
   135   176   172   am
   136   167   169    1
   137   167   166    1
   138    75    74    1
   139   173   172    2
   140    74    71    1
   141   172   171    1
   142   110   108    1
   143   163   162    1
   144   163   166    1
   145   163   164    1
   146   174   171    1
   147   113   112    1
   148   108   107    1
   149    92    91    1
   150   164   165    2
   151   171   170    1
   152   107   104    1
   153    71    70    1
   154    71    72    1
   155   111   112    1
   156   111   105   am
   157    91    90    1
   158   112   115    1
   159   115   116    1
   160   104   105    1
   161   104   103    1
   162   105   106    2
   163    72    73    2
   164    97    96    2
   165    86    87    1
   166    90    87    1
   167   103    96   am
   168    89    88    2
   169   116   117    1
   170   116   118    1
   171    96    95    1
   172    87    88    1
   173    88    94   am
   174    84    83    1
   175    85    83    1
   176    83    80    1
   177    94    95    1
   178    95    98    1
   179    98    99    1
   180    80    79    1
   181    80    81    1
   182    99   100    1
   183    82    81    2
   184   102   100   ar
   185   100   101   ar
