@<TRIPOS>MOLECULE
tmp/4dn7A01.pdb
 98 93 0 0 0
SMALL
GASTEIGER

@<TRIPOS>ATOM
      1  N         39.2250    9.6210    1.5010 N.3   285  ARG285     -0.1245
      2  CA        40.6250    9.4210    1.0930 C.3   285  ARG285      0.1563
      3  C         40.9730    7.9940    1.4450 C.2   285  ARG285      0.2260
      4  O         40.9920    7.6400    2.6290 O.2   285  ARG285     -0.2867
      5  CB        41.5810   10.3260    1.8800 C.3   285  ARG285      0.0307
      6  CG        41.5120   11.8210    1.5930 C.3   285  ARG285      0.0489
      7  CD        41.7080   12.1110    0.1080 C.3   285  ARG285      0.2205
      8  NE        41.6950   13.5350   -0.2430 N.pl3 285  ARG285     -0.0865
      9  CZ        42.7720   14.3160   -0.2620 C.cat 285  ARG285      0.5346
     10  NH1       43.9730   13.8440    0.1070 N.pl3 285  ARG285      0.1354
     11  NH2       42.6560   15.5850   -0.6450 N.pl3 285  ARG285      0.1354
     12  N         39.1170   10.4830   -3.3120 N.3   312  LYS312     -0.1231
     13  CA        40.3910   10.1260   -3.9000 C.3   312  LYS312      0.1693
     14  C         40.7870    8.7490   -3.4030 C.2   312  LYS312      0.2593
     15  O         40.6350    8.4360   -2.2060 O.2   312  LYS312     -0.2718
     16  CB        41.4730   11.1690   -3.5630 C.3   312  LYS312      0.0285
     17  CG        41.2080   12.5290   -4.1530 C.3   312  LYS312      0.0035
     18  CD        42.4130   13.4240   -3.9210 C.3   312  LYS312      0.0206
     19  CE        42.2110   14.7140   -4.7030 C.3   312  LYS312      0.1093
     20  NZ        42.2810   14.5250   -6.2030 N.3   312  LYS312     -0.1314
     21  N         41.3110    7.9450   -4.3230 N.am  313  GLY313     -0.1942
     22  CA        41.6700    6.5580   -4.0230 C.3   313  GLY313      0.2014
     23  C         42.9380    6.1050   -4.6920 C.2   313  GLY313      0.2638
     24  O         42.9910    5.9700   -5.9220 O.2   313  GLY313     -0.2714
     25  N         43.9740    5.8820   -3.8880 N.am  314  LEU314     -0.1977
     26  CA        45.2500    5.4120   -4.4370 C.3   314  LEU314      0.1596
     27  C         45.2420    3.9030   -4.6240 C.2   314  LEU314      0.2287
     28  O         44.7040    3.1730   -3.7760 O.2   314  LEU314     -0.2864
     29  CB        46.3970    5.7870   -3.5050 C.3   314  LEU314      0.0297
     30  CG        46.7300    7.2660   -3.3540 C.3   314  LEU314      0.0022
     31  CD1       47.5940    7.4750   -2.1160 C.3   314  LEU314      0.0001
     32  CD2       47.4410    7.7620   -4.6150 C.3   314  LEU314      0.0001
     33  N         39.1490   11.0710   -8.0230 N.3   342  ALA342     -0.1231
     34  CA        40.4420   10.7020   -8.6140 C.3   342  ALA342      0.1694
     35  C         40.8380    9.3280   -8.0920 C.2   342  ALA342      0.2592
     36  O         40.8000    9.0830   -6.8760 O.2   342  ALA342     -0.2718
     37  CB        41.5150   11.7410   -8.2910 C.3   342  ALA342      0.0304
     38  N         41.1840    8.4310   -9.0140 N.am  343  VAL343     -0.1966
     39  CA        41.7240    7.1160   -8.6460 C.3   343  VAL343      0.1727
     40  C         42.9590    6.7790   -9.4590 C.2   343  VAL343      0.2617
     41  O         43.0770    7.1750  -10.6350 O.2   343  VAL343     -0.2715
     42  CB        40.6920    5.9630   -8.7820 C.3   343  VAL343      0.0290
     43  CG1       39.4790    6.1950   -7.8820 C.3   343  VAL343      0.0023
     44  CG2       40.2660    5.7950  -10.2260 C.3   343  VAL343      0.0023
     45  N         43.8640    6.0200   -8.8350 N.am  344  GLY344     -0.1940
     46  CA        45.0680    5.5640   -9.5100 C.3   344  GLY344      0.2014
     47  C         46.3620    5.7350   -8.7360 C.2   344  GLY344      0.2639
     48  O         46.4180    5.5320   -7.5450 O.2   344  GLY344     -0.2714
     49  N         47.4070    6.1090   -9.4530 N.am  345  LYS345     -0.1963
     50  CA        48.7680    6.0560   -8.9530 C.3   345  LYS345      0.1728
     51  C         49.1080    7.1300   -7.9110 C.2   345  LYS345      0.2616
     52  O         48.5800    8.2460   -7.9400 O.2   345  LYS345     -0.2715
     53  CB        49.7490    6.2150  -10.1370 C.3   345  LYS345      0.0311
     54  CG        49.5690    7.5350  -10.8920 C.3   345  LYS345      0.0038
     55  CD        50.7080    7.9180  -11.8240 C.3   345  LYS345      0.0206
     56  CE        51.3510    6.7020  -12.4430 C.3   345  LYS345      0.1093
     57  NZ        52.8160    6.8580  -12.6770 N.3   345  LYS345     -0.1314
     58  N         50.0380    6.7810   -7.0280 N.am  346  ILE346     -0.1963
     59  CA        50.7840    7.7620   -6.2390 C.3   346  ILE346      0.1727
     60  C         51.6970    8.5490   -7.1930 C.2   346  ILE346      0.2616
     61  O         52.1290    8.0300   -8.2360 O.2   346  ILE346     -0.2715
     62  CB        51.5690    7.0500   -5.0950 C.3   346  ILE346      0.0290
     63  CG1       51.9970    8.0310   -3.9910 C.3   346  ILE346      0.0022
     64  CG2       52.7720    6.2810   -5.6340 C.3   346  ILE346      0.0023
     65  CD1       52.4030    7.3520   -2.6960 C.3   346  ILE346      0.0001
     66  N         51.9810    9.8030   -6.8530 N.am  347  ALA347     -0.1977
     67  CA        52.7860   10.6640   -7.7070 C.3   347  ALA347      0.1597
     68  C         54.2480   10.2230   -7.7070 C.2   347  ALA347      0.2287
     69  O         54.9410   10.3080   -6.6930 O.2   347  ALA347     -0.2864
     70  CB        52.6680   12.1180   -7.2680 C.3   347  ALA347      0.0319
     71  N         56.9090   12.7090   -6.5550 N.3   350  GLN350     -0.1245
     72  CA        56.9310   12.9100   -5.0990 C.3   350  GLN350      0.1566
     73  C         57.6780   11.7750   -4.3870 C.2   350  GLN350      0.2260
     74  O         58.4390   12.0350   -3.4720 O.2   350  GLN350     -0.2867
     75  CB        55.5300   13.0400   -4.5200 C.3   350  GLN350      0.0367
     76  CG        54.7230   14.1980   -5.0690 C.3   350  GLN350      0.0905
     77  CD        53.2790   14.1940   -4.5900 C.2   350  GLN350      0.2608
     78  OE1       52.8180   13.2640   -3.8940 O.2   350  GLN350     -0.2717
     79  NE2       52.5450   15.2350   -4.9690 N.am  350  GLN350     -0.0878
     80  N         54.0350   10.2470    2.0400 N.3   366  ILE366     -0.1245
     81  CA        53.0000   10.7110    1.1120 C.3   366  ILE366      0.1561
     82  C         51.6090   10.2810    1.5650 C.2   366  ILE366      0.2260
     83  O         50.6740   11.0870    1.5670 O.2   366  ILE366     -0.2867
     84  CB        53.2780   10.2760   -0.3350 C.3   366  ILE366      0.0252
     85  CG1       54.5330   10.9890   -0.8210 C.3   366  ILE366      0.0019
     86  CG2       52.0940   10.6050   -1.2430 C.3   366  ILE366      0.0019
     87  CD1       55.3150   10.1860   -1.8330 C.3   366  ILE366      0.0001
     88  N         48.2050   12.3670    2.4790 N.3   370  PHE370     -0.1241
     89  CA        47.0140   12.0600    1.7110 C.3   370  PHE370      0.1605
     90  C         45.8020   11.6990    2.5940 C.2   370  PHE370      0.2264
     91  O         44.6860   12.1940    2.3670 O.2   370  PHE370     -0.2867
     92  CB        47.3390   10.9400    0.7200 C.3   370  PHE370      0.0534
     93  CG        46.1460   10.4370   -0.0570 C.ar  370  PHE370     -0.0203
     94  CD1       45.7310   11.0750   -1.2050 C.ar  370  PHE370     -0.0042
     95  CD2       45.4630    9.2960    0.3570 C.ar  370  PHE370     -0.0042
     96  CE1       44.6420   10.5910   -1.9370 C.ar  370  PHE370     -0.0003
     97  CE2       44.3770    8.8040   -0.3600 C.ar  370  PHE370     -0.0003
     98  CZ        43.9610    9.4540   -1.5140 C.ar  370  PHE370     -0.0000
@<TRIPOS>BOND
     1    57    56    1
     2    56    55    1
     3    55    54    1
     4    54    53    1
     5    41    40    2
     6    44    42    1
     7    53    50    1
     8    46    45    1
     9    46    47    1
    10    40    45   am
    11    40    39    1
    12    49    50    1
    13    49    47   am
    14    38    39    1
    15    38    35   am
    16    50    51    1
    17    42    39    1
    18    42    43    1
    19    47    48    2
    20    34    37    1
    21    34    35    1
    22    34    33    1
    23    61    60    2
    24    35    36    2
    25    52    51    2
    26    51    58   am
    27    68    67    1
    28    68    69    2
    29    67    70    1
    30    67    66    1
    31    60    66   am
    32    60    59    1
    33    58    59    1
    34    71    72    1
    35    59    62    1
    36    20    19    1
    37    24    23    2
    38    64    62    1
    39    72    75    1
    40    72    73    1
    41    62    63    1
    42    76    77    1
    43    76    75    1
    44    79    77   am
    45    19    18    1
    46    23    22    1
    47    23    25   am
    48    27    26    1
    49    27    28    2
    50    32    30    1
    51    77    78    2
    52    26    25    1
    53    26    29    1
    54    73    74    2
    55    21    22    1
    56    21    14   am
    57    17    18    1
    58    17    16    1
    59    63    65    1
    60    13    16    1
    61    13    14    1
    62    13    12    1
    63    29    30    1
    64    14    15    2
    65    30    31    1
    66    96    98   ar
    67    96    94   ar
    68    87    85    1
    69    98    97   ar
    70    86    84    1
    71    94    93   ar
    72    85    84    1
    73    11     9    1
    74    97    95   ar
    75    84    81    1
    76     9     8    2
    77     9    10    1
    78     8     7    1
    79    93    95   ar
    80    93    92    1
    81     7     6    1
    82    92    89    1
    83     2     3    1
    84     2     1    1
    85     2     5    1
    86    81    82    1
    87    81    80    1
    88     3     4    2
    89    82    83    2
    90     6     5    1
    91    89    88    1
    92    89    90    1
    93    91    90    2
