@<TRIPOS>MOLECULE
tmp/4dn8A00.pdb
 76 70 0 0 0
SMALL
GASTEIGER

@<TRIPOS>ATOM
      1  N         31.3480   48.3880   45.7080 N.3   118  GLU118     -0.1245
      2  CA        31.0090   47.0300   45.2910 C.3   118  GLU118      0.1567
      3  C         31.7200   46.6560   43.9930 C.2   118  GLU118      0.2260
      4  O         32.0330   47.5270   43.1820 O.2   118  GLU118     -0.2867
      5  CB        29.4950   46.8870   45.1240 C.3   118  GLU118      0.0388
      6  CG        28.7170   47.0600   46.4160 C.3   118  GLU118      0.1160
      7  CD        29.0930   46.0310   47.4660 C.2   118  GLU118      0.3649
      8  OE1       29.7420   45.0240   47.1120 O.co2 118  GLU118     -0.2457
      9  OE2       28.7410   46.2320   48.6470 O.co2 118  GLU118     -0.2457
     10  N         32.3840   43.3070   46.8390 N.3   120  ASN120     -0.1240
     11  CA        33.3050   43.1160   47.9590 C.3   120  ASN120      0.1653
     12  C         33.4740   41.6610   48.4090 C.2   120  ASN120      0.2266
     13  O         34.3930   41.3440   49.1640 O.2   120  ASN120     -0.2867
     14  CB        32.9090   44.0010   49.1490 C.3   120  ASN120      0.1155
     15  CG        31.6100   43.5640   49.8010 C.2   120  ASN120      0.2627
     16  OD1       31.1970   42.4130   49.6800 O.2   120  ASN120     -0.2716
     17  ND2       30.9630   44.4860   50.5050 N.am  120  ASN120     -0.0877
     18  N         31.7010   39.8620   50.4470 N.3   122  ASN122     -0.1225
     19  CA        31.4850   39.6980   51.8820 C.3   122  ASN122      0.1785
     20  C         30.0170   39.4520   52.2170 C.2   122  ASN122      0.2598
     21  O         29.2610   40.3940   52.4560 O.2   122  ASN122     -0.2718
     22  CB        31.9920   40.9250   52.6440 C.3   122  ASN122      0.1169
     23  CG        33.1890   40.6130   53.5210 C.2   122  ASN122      0.2627
     24  OD1       33.4110   39.4650   53.9060 O.2   122  ASN122     -0.2716
     25  ND2       33.9650   41.6400   53.8480 N.am  122  ASN122     -0.0877
     26  N         29.6230   38.1830   52.2410 N.am  123  GLY123     -0.1942
     27  CA        28.2400   37.8180   52.4880 C.3   123  GLY123      0.2014
     28  C         27.9650   37.3520   53.9050 C.2   123  GLY123      0.2639
     29  O         26.8630   36.9010   54.2130 O.2   123  GLY123     -0.2714
     30  N         28.9680   37.4610   54.7700 N.am  124  GLY124     -0.1954
     31  CA        28.8240   37.0560   56.1560 C.3   124  GLY124      0.1869
     32  C         28.6430   35.5580   56.3100 C.2   124  GLY124      0.2309
     33  O         29.4810   34.7740   55.8660 O.2   124  GLY124     -0.2863
     34  N         30.4650   35.6690   47.6100 N.3   129  GLU129     -0.1245
     35  CA        29.3810   36.3460   46.9050 C.3   129  GLU129      0.1567
     36  C         29.6690   36.4580   45.4170 C.2   129  GLU129      0.2260
     37  O         30.2440   37.4450   44.9610 O.2   129  GLU129     -0.2867
     38  CB        29.1480   37.7350   47.4920 C.3   129  GLU129      0.0388
     39  CG        28.5410   37.7210   48.8730 C.3   129  GLU129      0.1160
     40  CD        28.1890   39.1070   49.3490 C.2   129  GLU129      0.3649
     41  OE1       29.0370   40.0100   49.2050 O.co2 129  GLU129     -0.2457
     42  OE2       27.0640   39.2950   49.8550 O.co2 129  GLU129     -0.2457
     43  N         25.0120   45.0350   43.3340 N.3   141  ASN141     -0.1225
     44  CA        25.6610   44.5490   44.5420 C.3   141  ASN141      0.1785
     45  C         25.8920   43.0490   44.4350 C.2   141  ASN141      0.2597
     46  O         24.9390   42.2860   44.2800 O.2   141  ASN141     -0.2718
     47  CB        24.7980   44.8490   45.7690 C.3   141  ASN141      0.1169
     48  CG        25.4210   44.3470   47.0570 C.2   141  ASN141      0.2627
     49  OD1       26.6380   44.3750   47.2170 O.2   141  ASN141     -0.2716
     50  ND2       24.5860   43.8840   47.9820 N.am  141  ASN141     -0.0877
     51  N         27.1490   42.6210   44.5040 N.am  142  ASP142     -0.1960
     52  CA        27.4380   41.1920   44.4650 C.3   142  ASP142      0.1840
     53  C         26.8850   40.5480   45.7260 C.2   142  ASP142      0.2621
     54  O         26.9350   41.1370   46.8040 O.2   142  ASP142     -0.2715
     55  CB        28.9370   40.9110   44.3240 C.3   142  ASP142      0.1450
     56  CG        29.7280   41.3380   45.5420 C.2   142  ASP142      0.3671
     57  OD1       29.5680   42.4980   45.9710 O.co2 142  ASP142     -0.2456
     58  OD2       30.5070   40.5160   46.0700 O.co2 142  ASP142     -0.2456
     59  N         26.3530   39.3410   45.5890 N.am  143  LYS143     -0.1977
     60  CA        25.6550   38.7000   46.6910 C.3   143  LYS143      0.1596
     61  C         25.7850   37.1880   46.6020 C.2   143  LYS143      0.2287
     62  O         25.9200   36.6320   45.5110 O.2   143  LYS143     -0.2864
     63  CB        24.1770   39.0900   46.6580 C.3   143  LYS143      0.0298
     64  CG        23.4020   38.7440   47.9130 C.3   143  LYS143      0.0038
     65  CD        23.6110   39.7900   48.9900 C.3   143  LYS143      0.0206
     66  CE        22.7150   39.5270   50.1860 C.3   143  LYS143      0.1093
     67  NZ        22.7740   40.6380   51.1750 N.3   143  LYS143     -0.1314
     68  N         21.3120   33.1730   48.2260 N.3   147  GLU147     -0.1245
     69  CA        20.2700   34.0430   48.7650 C.3   147  GLU147      0.1567
     70  C         19.0160   34.0190   47.8910 C.2   147  GLU147      0.2260
     71  O         19.0810   33.6960   46.7060 O.2   147  GLU147     -0.2867
     72  CB        20.7830   35.4800   48.8990 C.3   147  GLU147      0.0388
     73  CG        21.8960   35.6630   49.9230 C.3   147  GLU147      0.1160
     74  CD        21.3910   35.6210   51.3530 C.2   147  GLU147      0.3649
     75  OE1       20.2020   35.3000   51.5580 O.co2 147  GLU147     -0.2457
     76  OE2       22.1840   35.9150   52.2730 O.co2 147  GLU147     -0.2457
@<TRIPOS>BOND
     1     4     3    2
     2    43    44    1
     3     3     2    1
     4    46    45    2
     5    55    52    1
     6    55    56    1
     7    45    51   am
     8    45    44    1
     9    52    51    1
    10    52    53    1
    11    44    47    1
    12    37    36    2
    13     5     2    1
    14     5     6    1
    15     2     1    1
    16    36    35    1
    17    62    61    2
    18    56    57   ar
    19    56    58   ar
    20    59    53   am
    21    59    60    1
    22    53    54    2
    23    47    48    1
    24     6     7    1
    25    61    60    1
    26    63    60    1
    27    63    64    1
    28    71    70    2
    29    10    11    1
    30    35    38    1
    31    35    34    1
    32    48    49    2
    33    48    50   am
    34     8     7   ar
    35     7     9   ar
    36    38    39    1
    37    70    69    1
    38    64    65    1
    39    11    12    1
    40    11    14    1
    41    68    69    1
    42    12    13    2
    43    69    72    1
    44    39    40    1
    45    72    73    1
    46    65    66    1
    47    14    15    1
    48    41    40   ar
    49    40    42   ar
    50    16    15    2
    51    15    17   am
    52    73    74    1
    53    66    67    1
    54    18    19    1
    55    74    75   ar
    56    74    76   ar
    57    19    20    1
    58    19    22    1
    59    20    26   am
    60    20    21    2
    61    26    27    1
    62    27    28    1
    63    22    23    1
    64    23    25   am
    65    23    24    2
    66    28    29    2
    67    28    30   am
    68    30    31    1
    69    33    32    2
    70    31    32    1
