@<TRIPOS>MOLECULE
tmp/4dnjA01.pdb
 121 113 0 0 0
SMALL
GASTEIGER

@<TRIPOS>ATOM
      1  N          4.9690   -2.1500   -1.1100 N.3    81  ARG81      -0.1245
      2  CA         6.2090   -2.6380   -1.7070 C.3    81  ARG81       0.1563
      3  C          6.3580   -4.0920   -1.2610 C.2    81  ARG81       0.2260
      4  O          5.7230   -4.4910   -0.2920 O.2    81  ARG81      -0.2867
      5  CB         7.4080   -1.7620   -1.2470 C.3    81  ARG81       0.0307
      6  CG         7.7670   -1.9270    0.2640 C.3    81  ARG81       0.0489
      7  CD         9.0280   -1.1450    0.6320 C.3    81  ARG81       0.2205
      8  NE         9.2320   -1.4160    2.0520 N.pl3  81  ARG81      -0.0865
      9  CZ        10.3720   -1.1680    2.7190 C.cat  81  ARG81       0.5346
     10  NH1       11.3920   -0.5910    2.1020 N.pl3  81  ARG81       0.1354
     11  NH2       10.4700   -1.5080    4.0030 N.pl3  81  ARG81       0.1354
     12  N          9.5040   -6.4830    3.6040 N.3    84  SER84      -0.1217
     13  CA        10.8990   -6.6490    4.1160 C.3    84  SER84       0.1889
     14  C         11.1240   -8.1260    4.4870 C.2    84  SER84       0.2288
     15  O         10.2470   -8.7570    5.1080 O.2    84  SER84      -0.2866
     16  CB        11.1270   -5.7460    5.3380 C.3    84  SER84       0.2089
     17  OG        12.4350   -5.9810    5.8690 O.3    84  SER84      -0.2183
     18  N         13.2060   -9.1000    6.6300 N.3    86  ILE86      -0.1231
     19  CA        13.6090   -9.1590    8.0530 C.3    86  ILE86       0.1692
     20  C         12.4690   -8.5490    8.9180 C.2    86  ILE86       0.2591
     21  O         11.9090   -9.2540    9.7540 O.2    86  ILE86      -0.2718
     22  CB        14.9830   -8.5830    8.3110 C.3    86  ILE86       0.0266
     23  CG1       15.3600   -8.7290    9.7770 C.3    86  ILE86       0.0019
     24  CG2       15.1010   -7.1390    7.8220 C.3    86  ILE86       0.0020
     25  CD1       16.7960   -8.1520   10.0840 C.3    86  ILE86       0.0001
     26  N         12.0770   -7.2930    8.6720 N.am   87  LEU87      -0.1980
     27  CA        11.0800   -6.6330    9.5390 C.3    87  LEU87       0.1596
     28  C          9.7060   -7.3170    9.4370 C.2    87  LEU87       0.2287
     29  O          8.9670   -7.3740   10.4240 O.2    87  LEU87      -0.2864
     30  CB        10.9710   -5.1490    9.1010 C.3    87  LEU87       0.0297
     31  CG         9.9470   -4.2770    9.8760 C.3    87  LEU87       0.0022
     32  CD1       10.5200   -4.0560   11.3330 C.3    87  LEU87       0.0001
     33  CD2        9.7030   -2.9650    9.1970 C.3    87  LEU87       0.0001
     34  N          8.8860    5.2740    3.4630 N.3   171  VAL171     -0.1231
     35  CA         8.7370    3.9750    4.1560 C.3   171  VAL171      0.1692
     36  C          8.0270    4.1780    5.5210 C.2   171  VAL171      0.2592
     37  O          7.0350    3.4850    5.8540 O.2   171  VAL171     -0.2718
     38  CB        10.1170    3.3550    4.3960 C.3   171  VAL171      0.0266
     39  CG1        9.9350    2.1330    5.3780 C.3   171  VAL171      0.0020
     40  CG2       10.7220    2.8820    3.0580 C.3   171  VAL171      0.0020
     41  N          8.4690    5.2110    6.2580 N.am  172  PHE172     -0.1976
     42  CA         7.8750    5.4690    7.6210 C.3   172  PHE172      0.1639
     43  C          6.4630    6.0170    7.5410 C.2   172  PHE172      0.2290
     44  O          5.5930    5.6490    8.3270 O.2   172  PHE172     -0.2864
     45  CB         8.8000    6.2880    8.5110 C.3   172  PHE172      0.0560
     46  CG         9.9890    5.4600    8.9810 C.ar  172  PHE172     -0.0200
     47  CD1       11.2120    5.5960    8.3540 C.ar  172  PHE172     -0.0042
     48  CD2        9.8180    4.5350   10.0080 C.ar  172  PHE172     -0.0042
     49  CE1       12.3020    4.8300    8.7670 C.ar  172  PHE172     -0.0003
     50  CE2       10.8710    3.7380   10.4380 C.ar  172  PHE172     -0.0003
     51  CZ        12.1170    3.8860    9.8520 C.ar  172  PHE172     -0.0000
     52  N          3.8380    2.8740    6.7880 N.3   175  PHE175     -0.1241
     53  CA         3.3080    2.0000    7.8740 C.3   175  PHE175      0.1605
     54  C          1.9970    2.5550    8.4190 C.2   175  PHE175      0.2264
     55  O          1.2460    1.8350    9.0530 O.2   175  PHE175     -0.2867
     56  CB         4.2700    1.9290    9.0780 C.3   175  PHE175      0.0534
     57  CG         5.6090    1.2900    8.7600 C.ar  175  PHE175     -0.0203
     58  CD1        6.7890    2.0310    8.8910 C.ar  175  PHE175     -0.0042
     59  CD2        5.6690   -0.0420    8.3530 C.ar  175  PHE175     -0.0042
     60  CE1        8.0280    1.4620    8.5510 C.ar  175  PHE175     -0.0003
     61  CE2        6.9000   -0.6520    8.0410 C.ar  175  PHE175     -0.0003
     62  CZ         8.1030    0.1070    8.2020 C.ar  175  PHE175     -0.0000
     63  N         18.0550   -3.2850    0.7960 N.3   233  ARG233     -0.1231
     64  CA        16.8830   -2.4080    0.8650 C.3   233  ARG233      0.1694
     65  C         16.4790   -2.0990    2.3260 C.2   233  ARG233      0.2592
     66  O         16.1350   -0.9200    2.6290 O.2   233  ARG233     -0.2718
     67  CB        15.7180   -2.9930    0.0590 C.3   233  ARG233      0.0321
     68  CG        14.6080   -1.9490   -0.2830 C.3   233  ARG233      0.0489
     69  CD        13.3420   -2.6830   -0.7560 C.3   233  ARG233      0.2205
     70  NE        12.6930   -3.3220    0.3820 N.pl3 233  ARG233     -0.0865
     71  CZ        11.4710   -3.8590    0.3450 C.cat 233  ARG233      0.5346
     72  NH1       10.7790   -3.9240   -0.8180 N.pl3 233  ARG233      0.1354
     73  NH2       10.9590   -4.3820    1.4690 N.pl3 233  ARG233      0.1354
     74  N         16.6580   -3.0840    3.2180 N.am  234  SER234     -0.1952
     75  CA        16.3510   -2.8520    4.6510 C.3   234  SER234      0.1924
     76  C         17.2410   -1.7660    5.2540 C.2   234  SER234      0.2314
     77  O         16.7670   -0.8880    6.0090 O.2   234  SER234     -0.2863
     78  CB        16.4640   -4.1550    5.5020 C.3   234  SER234      0.2116
     79  OG        15.3310   -4.9520    5.2240 O.3   234  SER234     -0.2180
     80  N         16.4070    1.5790    4.0200 N.3   237  SER237     -0.1202
     81  CA        15.0790    2.0130    4.5280 C.3   237  SER237      0.2020
     82  C         15.2150    2.5860    5.8930 C.2   237  SER237      0.2618
     83  O         14.7010    3.7020    6.1900 O.2   237  SER237     -0.2717
     84  CB        14.1330    0.8160    4.5800 C.3   237  SER237      0.2103
     85  OG        13.8210    0.3480    3.2560 O.3   237  SER237     -0.2182
     86  N         15.9500    1.8750    6.7580 N.am  238  ALA238     -0.1979
     87  CA        15.9190    2.1270    8.2050 C.3   238  ALA238      0.1597
     88  C         17.1980    2.7160    8.7090 C.2   238  ALA238      0.2287
     89  O         17.2370    3.1270    9.8520 O.2   238  ALA238     -0.2864
     90  CB        15.6520    0.7610    8.9970 C.3   238  ALA238      0.0319
     91  N         16.3360    7.1260   10.8230 N.3   242  THR242     -0.1218
     92  CA        16.1930    6.7710   12.2390 C.3   242  THR242      0.1862
     93  C         17.2870    7.5440   13.0600 C.2   242  THR242      0.2287
     94  O         16.9790    8.2140   14.0520 O.2   242  THR242     -0.2866
     95  CB        16.4080    5.2560   12.4180 C.3   242  THR242      0.1770
     96  OG1       17.5950    4.8810   11.7150 O.3   242  THR242     -0.2211
     97  CG2       15.2010    4.4890   11.8550 C.3   242  THR242      0.0375
     98  N         11.2290    6.4730   16.8170 N.3   285  VAL285     -0.1245
     99  CA        10.3170    5.5340   16.1400 C.3   285  VAL285      0.1561
    100  C          9.1360    5.2920   17.1170 C.2   285  VAL285      0.2260
    101  O          9.2990    4.6550   18.1620 O.2   285  VAL285     -0.2867
    102  CB        11.0190    4.1940   15.7590 C.3   285  VAL285      0.0252
    103  CG1       10.0060    3.1800   15.2300 C.3   285  VAL285      0.0019
    104  CG2       12.1160    4.4750   14.7280 C.3   285  VAL285      0.0019
    105  N          4.6820    0.6310   16.0970 N.3   288  PHE288     -0.1241
    106  CA         4.5800   -0.3540   15.0310 C.3   288  PHE288      0.1605
    107  C          3.3540   -1.2090   15.3160 C.2   288  PHE288      0.2264
    108  O          2.8360   -1.2330   16.4620 O.2   288  PHE288     -0.2867
    109  CB         5.8140   -1.2930   15.0710 C.3   288  PHE288      0.0534
    110  CG         6.9540   -0.8040   14.1880 C.ar  288  PHE288     -0.0203
    111  CD1        8.1910   -0.4140   14.7430 C.ar  288  PHE288     -0.0042
    112  CD2        6.7230   -0.6970   12.7820 C.ar  288  PHE288     -0.0042
    113  CE1        9.2190    0.0440   13.9230 C.ar  288  PHE288     -0.0003
    114  CE2        7.7820   -0.2420   11.9140 C.ar  288  PHE288     -0.0003
    115  CZ         9.0000    0.1700   12.4900 C.ar  288  PHE288     -0.0000
    116  N         15.9990   -3.7890   17.3080 N.3   348  CYS348     -0.1235
    117  CA        16.7660   -3.1260   16.2260 C.3   348  CYS348      0.1677
    118  C         18.0920   -3.8170   15.8980 C.2   348  CYS348      0.2270
    119  O         18.9850   -3.8080   16.7030 O.2   348  CYS348     -0.2867
    120  CB        17.0260   -1.6850   16.6110 C.3   348  CYS348      0.0956
    121  SG        17.9740   -0.8170   15.3330 S.3   348  CYS348     -0.0801
@<TRIPOS>BOND
     1     2     3    1
     2     2     5    1
     3     2     1    1
     4     3     4    2
     5     5     6    1
     6    72    71    1
     7    69    68    1
     8    69    70    1
     9    68    67    1
    10    67    64    1
    11     6     7    1
    12    71    70    2
    13    71    73    1
    14     7     8    1
    15    63    64    1
    16    64    65    1
    17     8     9    2
    18    10     9    1
    19    65    66    2
    20    65    74   am
    21     9    11    1
    22    40    38    1
    23    74    75    1
    24    85    84    1
    25    34    35    1
    26    12    13    1
    27    80    81    1
    28    13    14    1
    29    13    16    1
    30    35    38    1
    31    35    36    1
    32    38    39    1
    33    14    15    2
    34    81    84    1
    35    81    82    1
    36    75    76    1
    37    75    78    1
    38    79    78    1
    39    76    77    2
    40    16    17    1
    41    36    37    2
    42    36    41   am
    43    82    83    2
    44    82    86   am
    45    41    42    1
    46    18    19    1
    47    86    87    1
    48    52    53    1
    49    43    42    1
    50    43    44    2
    51    42    45    1
    52    24    22    1
    53    53    54    1
    54    53    56    1
    55    61    62   ar
    56    61    59   ar
    57    19    22    1
    58    19    20    1
    59    62    60   ar
    60    87    88    1
    61    87    90    1
    62    22    23    1
    63    59    57   ar
    64    47    49   ar
    65    47    46   ar
    66    54    55    2
    67    45    46    1
    68    60    58   ar
    69    26    20   am
    70    26    27    1
    71    88    89    2
    72    57    58   ar
    73    57    56    1
    74    49    51   ar
    75    20    21    2
    76    46    48   ar
    77    30    27    1
    78    30    31    1
    79    33    31    1
    80    28    27    1
    81    28    29    2
    82    23    25    1
    83    51    50   ar
    84    31    32    1
    85    48    50   ar
    86    91    92    1
    87    96    95    1
    88    97    95    1
    89   114   115   ar
    90   114   112   ar
    91    92    95    1
    92    92    93    1
    93   115   113   ar
    94   112   110   ar
    95    93    94    2
    96   113   111   ar
    97   110   111   ar
    98   110   109    1
    99   104   102    1
   100   106   109    1
   101   106   107    1
   102   106   105    1
   103   103   102    1
   104   107   108    2
   105   121   120    1
   106   102    99    1
   107   118   117    1
   108   118   119    2
   109    99    98    1
   110    99   100    1
   111   117   120    1
   112   117   116    1
   113   100   101    2
