@<TRIPOS>MOLECULE
tmp/4dnmA00.pdb
 175 166 0 0 0
SMALL
GASTEIGER

@<TRIPOS>ATOM
      1  N         -0.4170   47.6670    3.0370 N.3     7  HIS7       -0.1241
      2  CA        -1.6470   46.8600    2.9960 C.3     7  HIS7        0.1621
      3  C         -1.4030   45.3630    3.1080 C.2     7  HIS7        0.2264
      4  O         -1.0100   44.7150    2.1430 O.2     7  HIS7       -0.2867
      5  CB        -2.4490   47.1680    1.7220 C.3     7  HIS7        0.0745
      6  CG        -3.8760   46.7410    1.8040 C.ar    7  HIS7        0.0817
      7  ND1       -4.8830   47.5800    2.2430 N.ar    7  HIS7       -0.2268
      8  CD2       -4.4720   45.5480    1.5470 C.ar    7  HIS7        0.1154
      9  CE1       -6.0340   46.9320    2.2280 C.ar    7  HIS7        0.1986
     10  NE2       -5.8110   45.6930    1.8220 N.ar    7  HIS7       -0.2212
     11  N         -2.7190   41.6690    5.7060 N.3     9  HIS9       -0.1241
     12  CA        -3.6270   41.1330    6.7170 C.3     9  HIS9        0.1621
     13  C         -2.9250   40.1330    7.6010 C.2     9  HIS9        0.2264
     14  O         -1.8680   39.6170    7.2300 O.2     9  HIS9       -0.2867
     15  CB        -4.8060   40.4250    6.0520 C.3     9  HIS9        0.0745
     16  CG        -5.5820   41.3000    5.1270 C.ar    9  HIS9        0.0817
     17  ND1       -6.3870   42.3250    5.5790 N.ar    9  HIS9       -0.2268
     18  CD2       -5.6860   41.3020    3.7800 C.ar    9  HIS9        0.1154
     19  CE1       -6.9530   42.9180    4.5470 C.ar    9  HIS9        0.1986
     20  NE2       -6.5460   42.3220    3.4410 N.ar    9  HIS9       -0.2212
     21  N        -15.3210   35.4960    3.0010 N.3    20  TRP20      -0.1241
     22  CA       -14.8190   35.8270    1.6720 C.3    20  TRP20       0.1605
     23  C        -13.7940   34.7990    1.1840 C.2    20  TRP20       0.2264
     24  O        -13.4700   34.7500   -0.0030 O.2    20  TRP20      -0.2867
     25  CB       -14.2610   37.2590    1.6280 C.3    20  TRP20       0.0550
     26  CG       -13.2100   37.5100    2.6410 C.ar   20  TRP20       0.0003
     27  CD1      -13.3910   37.9470    3.9320 C.ar   20  TRP20       0.0946
     28  CD2      -11.8040   37.3390    2.4660 C.ar   20  TRP20       0.0152
     29  NE1      -12.1700   38.0580    4.5670 N.ar   20  TRP20      -0.2442
     30  CE2      -11.1800   37.6970    3.6860 C.ar   20  TRP20       0.0810
     31  CE3      -11.0030   36.9330    1.3940 C.ar   20  TRP20       0.0012
     32  CZ2       -9.8000   37.6490    3.8580 C.ar   20  TRP20       0.0191
     33  CZ3       -9.6390   36.8830    1.5670 C.ar   20  TRP20       0.0001
     34  CH2       -9.0470   37.2330    2.7900 C.ar   20  TRP20       0.0015
     35  N         -9.6920   28.4850   -2.7460 N.3    25  MET25      -0.1245
     36  CA        -8.7890   29.4180   -2.0900 C.3    25  MET25       0.1570
     37  C         -8.0770   28.7610   -0.9210 C.2    25  MET25       0.2261
     38  O         -7.7360   29.4220    0.0540 O.2    25  MET25      -0.2867
     39  CB        -9.5550   30.6490   -1.5890 C.3    25  MET25       0.0387
     40  CG       -10.3040   31.4160   -2.6710 C.3    25  MET25       0.0595
     41  SD       -11.0300   32.9060   -1.9510 S.3    25  MET25      -0.1393
     42  CE       -12.2020   33.3040   -3.2160 C.3    25  MET25       0.0692
     43  N         -9.4540   42.2640    8.3510 N.3    54  ALA54      -0.1245
     44  CA        -9.8070   41.3010    7.3100 C.3    54  ALA54       0.1562
     45  C        -11.1900   40.7020    7.5440 C.2    54  ALA54       0.2260
     46  O        -11.6510   39.8500    6.7760 O.2    54  ALA54      -0.2867
     47  CB        -8.7450   40.2130    7.1990 C.3    54  ALA54       0.0290
     48  N        -11.7570   50.7320    8.1850 N.3   104  ARG104     -0.1245
     49  CA       -12.2690   50.2730    6.9010 C.3   104  ARG104      0.1563
     50  C        -13.5260   49.4440    7.1190 C.2   104  ARG104      0.2260
     51  O        -13.6030   48.6510    8.0610 O.2   104  ARG104     -0.2867
     52  CB       -11.2350   49.4130    6.1670 C.3   104  ARG104      0.0307
     53  CG       -11.6530   49.0820    4.7390 C.3   104  ARG104      0.0489
     54  CD       -10.5780   48.3120    4.0010 C.3   104  ARG104      0.2205
     55  NE       -10.6050   46.9210    4.4040 N.pl3 104  ARG104     -0.0865
     56  CZ       -10.0570   45.9330    3.7100 C.cat 104  ARG104      0.5346
     57  NH1      -10.1550   44.6900    4.1630 N.pl3 104  ARG104      0.1354
     58  NH2       -9.4240   46.1890    2.5740 N.pl3 104  ARG104      0.1354
     59  N        -15.9390   46.7380    4.7700 N.3   106  GLN106     -0.1245
     60  CA       -15.8430   46.0270    3.5010 C.3   106  GLN106      0.1566
     61  C        -17.0240   46.3550    2.5900 C.2   106  GLN106      0.2260
     62  O        -17.8600   45.4970    2.2960 O.2   106  GLN106     -0.2867
     63  CB       -15.6810   44.5210    3.7270 C.3   106  GLN106      0.0367
     64  CG       -14.2910   44.1410    4.2230 C.3   106  GLN106      0.0905
     65  CD       -14.3310   43.1310    5.3590 C.2   106  GLN106      0.2608
     66  OE1      -14.8030   43.4300    6.4700 O.2   106  GLN106     -0.2717
     67  NE2      -13.8400   41.9210    5.0870 N.am  106  GLN106     -0.0878
     68  N        -17.4740   46.6050   -0.4810 N.3   108  GLN108     -0.1231
     69  CA       -17.6960   45.8070   -1.6800 C.3   108  GLN108      0.1698
     70  C        -18.7220   44.6850   -1.4810 C.2   108  GLN108      0.2592
     71  O        -19.3340   44.2320   -2.4540 O.2   108  GLN108     -0.2718
     72  CB       -16.3750   45.2220   -2.2080 C.3   108  GLN108      0.0381
     73  CG       -15.6150   44.4020   -1.1780 C.3   108  GLN108      0.0905
     74  CD       -14.4530   43.6380   -1.7810 C.2   108  GLN108      0.2608
     75  OE1      -13.5660   44.2090   -2.4320 O.2   108  GLN108     -0.2717
     76  NE2      -14.4630   42.3260   -1.5850 N.am  108  GLN108     -0.0878
     77  N        -18.9160   44.2440   -0.2360 N.am  109  ASP109     -0.1974
     78  CA       -19.8850   43.1760    0.0570 C.3   109  ASP109      0.1709
     79  C        -21.2860   43.7050    0.3740 C.2   109  ASP109      0.2293
     80  O        -22.2090   42.9220    0.5940 O.2   109  ASP109     -0.2864
     81  CB       -19.4280   42.2990    1.2310 C.3   109  ASP109      0.1436
     82  CG       -18.0900   41.6230    0.9850 C.2   109  ASP109      0.3671
     83  OD1      -17.7410   41.3450   -0.1830 O.co2 109  ASP109     -0.2456
     84  OD2      -17.3850   41.3640    1.9820 O.co2 109  ASP109     -0.2456
     85  N        -12.9180   50.3660    0.1540 N.3   139  LEU139     -0.1245
     86  CA       -12.7810   49.0670   -0.5070 C.3   139  LEU139      0.1561
     87  C        -14.0410   48.7590   -1.3060 C.2   139  LEU139      0.2260
     88  O        -15.0700   48.3930   -0.7210 O.2   139  LEU139     -0.2867
     89  CB       -12.5480   47.9540    0.5260 C.3   139  LEU139      0.0270
     90  CG       -12.4390   46.5490   -0.0670 C.3   139  LEU139      0.0019
     91  CD1      -11.1130   46.4050   -0.7820 C.3   139  LEU139      0.0001
     92  CD2      -12.6080   45.4590    0.9940 C.3   139  LEU139      0.0001
     93  N        -15.5160   47.2830   -5.4910 N.3   141  PHE141     -0.1241
     94  CA       -15.2590   46.7950   -6.8470 C.3   141  PHE141      0.1605
     95  C        -15.3710   47.9550   -7.8160 C.2   141  PHE141      0.2264
     96  O        -16.0440   48.9520   -7.5200 O.2   141  PHE141     -0.2867
     97  CB       -16.3050   45.7690   -7.2700 C.3   141  PHE141      0.0534
     98  CG       -16.3120   44.5220   -6.4530 C.ar  141  PHE141     -0.0203
     99  CD1      -15.2320   43.6500   -6.4780 C.ar  141  PHE141     -0.0042
    100  CD2      -17.4310   44.1870   -5.7020 C.ar  141  PHE141     -0.0042
    101  CE1      -15.2530   42.4770   -5.7350 C.ar  141  PHE141     -0.0003
    102  CE2      -17.4640   43.0130   -4.9650 C.ar  141  PHE141     -0.0003
    103  CZ       -16.3710   42.1610   -4.9790 C.ar  141  PHE141     -0.0000
    104  N         -6.5830   49.0250   -3.4810 N.3   164  HIS164     -0.1241
    105  CA        -6.4250   48.2030   -4.6720 C.3   164  HIS164      0.1621
    106  C         -6.7230   48.9680   -5.9550 C.2   164  HIS164      0.2264
    107  O         -7.2330   48.4040   -6.9160 O.2   164  HIS164     -0.2867
    108  CB        -7.3230   46.9740   -4.5450 C.3   164  HIS164      0.0745
    109  CG        -7.1530   46.2570   -3.2380 C.ar  164  HIS164      0.0817
    110  ND1       -5.9320   46.1380   -2.6130 N.ar  164  HIS164     -0.2268
    111  CD2       -8.0550   45.6500   -2.4270 C.ar  164  HIS164      0.1154
    112  CE1       -6.0810   45.4710   -1.4770 C.ar  164  HIS164      0.1986
    113  NE2       -7.3570   45.1640   -1.3420 N.ar  164  HIS164     -0.2212
    114  N         -9.9200   48.3140   -7.7880 N.3   167  LYS167     -0.1245
    115  CA       -10.1370   46.9770   -8.3470 C.3   167  LYS167      0.1561
    116  C        -10.5790   46.9590   -9.8070 C.2   167  LYS167      0.2260
    117  O        -11.7050   46.5890  -10.1030 O.2   167  LYS167     -0.2867
    118  CB       -11.1380   46.2110   -7.4800 C.3   167  LYS167      0.0271
    119  CG       -10.5500   45.8200   -6.1150 C.3   167  LYS167      0.0035
    120  CD       -11.5770   45.1540   -5.2150 C.3   167  LYS167      0.0206
    121  CE       -11.3480   43.6470   -5.1050 C.3   167  LYS167      0.1093
    122  NZ       -11.2890   43.1960   -3.6730 N.3   167  LYS167     -0.1314
    123  N         -4.5880   39.6910   -8.0100 N.3   205  THR205     -0.1203
    124  CA        -5.7790   38.8830   -7.7570 C.3   205  THR205      0.1994
    125  C         -7.0420   39.3450   -8.4830 C.2   205  THR205      0.2617
    126  O         -8.0780   38.6870   -8.3780 O.2   205  THR205     -0.2717
    127  CB        -6.0790   38.7450   -6.2410 C.3   205  THR205      0.1784
    128  OG1       -5.8580   40.0050   -5.5930 O.3   205  THR205     -0.2211
    129  CG2       -5.1580   37.7140   -5.6210 C.3   205  THR205      0.0376
    130  N         -6.9770   40.4670   -9.2050 N.am  206  GLU206     -0.1979
    131  CA        -8.1020   40.8590  -10.0760 C.3   206  GLU206      0.1602
    132  C         -7.9980   40.2130  -11.4670 C.2   206  GLU206      0.2287
    133  O         -8.9510   40.2510  -12.2640 O.2   206  GLU206     -0.2864
    134  CB        -8.2080   42.3920  -10.2060 C.3   206  GLU206      0.0415
    135  CG        -8.5120   43.1070   -8.8790 C.3   206  GLU206      0.1163
    136  CD        -9.8430   42.6760   -8.2840 C.2   206  GLU206      0.3649
    137  OE1      -10.8970   43.0870   -8.8140 O.co2 206  GLU206     -0.2457
    138  OE2       -9.8450   41.9110   -7.2960 O.co2 206  GLU206     -0.2457
    139  N         -6.5760   34.5320  -11.6560 N.3   209  TRP209     -0.1241
    140  CA        -5.5890   33.7300  -10.9230 C.3   209  TRP209      0.1605
    141  C         -5.9200   32.2370  -10.8680 C.2   209  TRP209      0.2264
    142  O         -5.0190   31.4140  -10.6950 O.2   209  TRP209     -0.2867
    143  CB        -5.3870   34.2620   -9.4900 C.3   209  TRP209      0.0550
    144  CG        -6.6570   34.2930   -8.6840 C.ar  209  TRP209      0.0003
    145  CD1       -7.5100   35.3530   -8.5450 C.ar  209  TRP209      0.0946
    146  CD2       -7.2210   33.2170   -7.9190 C.ar  209  TRP209      0.0152
    147  NE1       -8.5760   35.0040   -7.7470 N.ar  209  TRP209     -0.2442
    148  CE2       -8.4230   33.7010   -7.3430 C.ar  209  TRP209      0.0810
    149  CE3       -6.8250   31.8910   -7.6580 C.ar  209  TRP209      0.0012
    150  CZ2       -9.2480   32.9030   -6.5220 C.ar  209  TRP209      0.0191
    151  CZ3       -7.6340   31.0970   -6.8430 C.ar  209  TRP209      0.0001
    152  CH2       -8.8380   31.6060   -6.2840 C.ar  209  TRP209      0.0015
    153  N         -0.9390   43.4400   -0.2330 N.3   242  ASP242     -0.1239
    154  CA        -2.1670   42.6640   -0.0490 C.3   242  ASP242      0.1674
    155  C         -1.8600   41.2110    0.3250 C.2   242  ASP242      0.2266
    156  O         -2.6300   40.2950    0.0270 O.2   242  ASP242     -0.2867
    157  CB        -3.0760   42.7240   -1.2850 C.3   242  ASP242      0.1410
    158  CG        -4.5100   42.3580   -0.9620 C.2   242  ASP242      0.3668
    159  OD1       -5.0040   42.6910    0.1570 O.co2 242  ASP242     -0.2456
    160  OD2       -5.1440   41.7150   -1.8320 O.co2 242  ASP242     -0.2456
    161  N         -3.5240   37.5010    0.9350 N.3   245  VAL245     -0.1245
    162  CA        -4.4550   37.3720   -0.1880 C.3   245  VAL245      0.1561
    163  C         -3.7680   37.2470   -1.5530 C.2   245  VAL245      0.2260
    164  O         -4.2210   36.4810   -2.4270 O.2   245  VAL245     -0.2867
    165  CB        -5.4560   38.5530   -0.2090 C.3   245  VAL245      0.0252
    166  CG1       -6.3750   38.4950   -1.4300 C.3   245  VAL245      0.0019
    167  CG2       -6.2870   38.5790    1.0910 C.3   245  VAL245      0.0019
    168  N         -2.8530   33.9250   -3.6750 N.3   248  LEU248     -0.1245
    169  CA        -3.7390   33.2460   -4.6250 C.3   248  LEU248      0.1561
    170  C         -3.1650   33.3160   -6.0460 C.2   248  LEU248      0.2260
    171  O         -3.3970   32.4290   -6.8750 O.2   248  LEU248     -0.2867
    172  CB        -5.1200   33.9000   -4.6260 C.3   248  LEU248      0.0270
    173  CG        -6.0100   33.7350   -3.3910 C.3   248  LEU248      0.0019
    174  CD1       -7.2140   34.6610   -3.5040 C.3   248  LEU248      0.0001
    175  CD2       -6.4860   32.2910   -3.2640 C.3   248  LEU248      0.0001
@<TRIPOS>BOND
     1   133   132    2
     2   139   140    1
     3   132   131    1
     4   140   141    1
     5   140   143    1
     6   141   142    2
     7   134   131    1
     8   134   135    1
     9   117   116    2
    10   131   130    1
    11   116   115    1
    12   143   144    1
    13   130   125   am
    14   135   136    1
    15   137   136   ar
    16   144   145   ar
    17   144   146   ar
    18   145   147   ar
    19   125   126    2
    20   125   124    1
    21   115   114    1
    22   115   118    1
    23   136   138   ar
    24   123   124    1
    25   146   149   ar
    26   146   148   ar
    27    95    96    2
    28    95    94    1
    29   124   127    1
    30   147   148   ar
    31   149   151   ar
    32   118   119    1
    33   148   150   ar
    34    97    94    1
    35    97    98    1
    36   107   106    2
    37   171   170    2
    38    94    93    1
    39   151   152   ar
    40   150   152   ar
    41    99    98   ar
    42    99   101   ar
    43    98   100   ar
    44   127   129    1
    45   127   128    1
    46   119   120    1
    47   170   169    1
    48   106   105    1
    49   101   103   ar
    50   100   102   ar
    51   120   121    1
    52   121   122    1
    53   103   102   ar
    54   105   108    1
    55   105   104    1
    56   172   169    1
    57   172   173    1
    58   169   168    1
    59   108   109    1
    60   174   173    1
    61   173   175    1
    62   109   110   ar
    63   109   111   ar
    64    42    41    1
    65    35    36    1
    66    40    41    1
    67    40    39    1
    68   110   112   ar
    69    71    70    2
    70    75    74    2
    71   111   113   ar
    72   164   163    2
    73    72    69    1
    74    72    73    1
    75    36    39    1
    76    36    37    1
    77   160   158   ar
    78    74    76   am
    79    74    73    1
    80    69    70    1
    81    69    68    1
    82   163   162    1
    83    70    77   am
    84   112   113   ar
    85   166   165    1
    86    87    88    2
    87    87    86    1
    88   157   158    1
    89   157   154    1
    90   158   159   ar
    91    37    38    2
    92    91    90    1
    93    86    85    1
    94    86    89    1
    95    77    78    1
    96   153   154    1
    97   165   162    1
    98   165   167    1
    99   162   161    1
   100    83    82   ar
   101    90    89    1
   102    90    92    1
   103   154   155    1
   104    24    23    2
   105   156   155    2
   106    78    79    1
   107    78    81    1
   108    79    80    2
   109    82    81    1
   110    82    84   ar
   111    23    22    1
   112    31    33   ar
   113    31    28   ar
   114     8     6   ar
   115     8    10   ar
   116    33    34   ar
   117    25    22    1
   118    25    26    1
   119    22    21    1
   120     5     6    1
   121     5     2    1
   122     6     7   ar
   123    10     9   ar
   124     4     3    2
   125     9     7   ar
   126    62    61    2
   127    28    26   ar
   128    28    30   ar
   129    58    56    1
   130    61    60    1
   131    26    27   ar
   132    34    32   ar
   133     2     1    1
   134     2     3    1
   135    20    18   ar
   136    20    19   ar
   137    60    63    1
   138    60    59    1
   139    30    32   ar
   140    30    29   ar
   141    56    57    1
   142    56    55    2
   143    63    64    1
   144    18    16   ar
   145    27    29   ar
   146    54    55    1
   147    54    53    1
   148    64    65    1
   149    19    17   ar
   150    53    52    1
   151    67    65   am
   152    16    17   ar
   153    16    15    1
   154    65    66    2
   155    11    12    1
   156    15    12    1
   157    52    49    1
   158    12    13    1
   159    46    45    2
   160    49    50    1
   161    49    48    1
   162    50    51    2
   163    47    44    1
   164    14    13    2
   165    44    45    1
   166    44    43    1
