@<TRIPOS>MOLECULE
tmp/4dnoB00.pdb
 153 151 0 0 0
SMALL
GASTEIGER

@<TRIPOS>ATOM
      1  N         29.6630   46.5650  -13.7430 N.3    39  PHE39      -0.1241
      2  CA        29.1910   45.3540  -13.0560 C.3    39  PHE39       0.1605
      3  C         30.2170   44.7020  -12.1410 C.2    39  PHE39       0.2264
      4  O         31.3780   44.5900  -12.4970 O.2    39  PHE39      -0.2867
      5  CB        28.7360   44.3030  -14.0620 C.3    39  PHE39       0.0534
      6  CG        28.4750   42.9620  -13.4430 C.ar   39  PHE39      -0.0203
      7  CD1       27.2420   42.6740  -12.8860 C.ar   39  PHE39      -0.0042
      8  CD2       29.4700   41.9890  -13.4100 C.ar   39  PHE39      -0.0042
      9  CE1       26.9930   41.4330  -12.3060 C.ar   39  PHE39      -0.0003
     10  CE2       29.2250   40.7450  -12.8410 C.ar   39  PHE39      -0.0003
     11  CZ        27.9860   40.4730  -12.2860 C.ar   39  PHE39      -0.0000
     12  N         32.6600   49.5750  -18.3710 N.3   105  ASP105     -0.1225
     13  CA        31.7270   48.4460  -18.4440 C.3   105  ASP105      0.1805
     14  C         30.2760   48.9730  -18.5860 C.2   105  ASP105      0.2597
     15  O         30.0230   49.8410  -19.4230 O.2   105  ASP105     -0.2718
     16  CB        31.9150   47.5950  -17.1960 C.3   105  ASP105      0.1424
     17  CG        31.2000   46.2780  -17.2740 C.2   105  ASP105      0.3668
     18  OD1       30.1470   46.1710  -16.6230 O.co2 105  ASP105     -0.2456
     19  OD2       31.7000   45.3620  -17.9660 O.co2 105  ASP105     -0.2456
     20  N         29.3250   48.4890  -17.7880 N.am  106  ILE106     -0.1980
     21  CA        27.9380   48.9340  -17.9850 C.3   106  ILE106      0.1595
     22  C         27.7660   50.4280  -17.7020 C.2   106  ILE106      0.2287
     23  O         26.7320   51.0230  -18.0400 O.2   106  ILE106     -0.2864
     24  CB        26.8890   48.1040  -17.1960 C.3   106  ILE106      0.0276
     25  CG1       27.0700   48.2740  -15.6900 C.3   106  ILE106      0.0022
     26  CG2       26.9580   46.6390  -17.6130 C.3   106  ILE106      0.0022
     27  CD1       25.9840   47.5850  -14.8740 C.3   106  ILE106      0.0001
     28  N         26.8810   51.8400  -20.8830 N.3   109  TRP109     -0.1241
     29  CA        25.4950   51.6430  -21.2840 C.3   109  TRP109      0.1605
     30  C         24.6050   52.6880  -20.6360 C.2   109  TRP109      0.2264
     31  O         23.6480   53.1760  -21.2390 O.2   109  TRP109     -0.2867
     32  CB        24.9910   50.2580  -20.8530 C.3   109  TRP109      0.0550
     33  CG        25.8310   49.1020  -21.3180 C.ar  109  TRP109      0.0003
     34  CD1       26.9510   49.1570  -22.0960 C.ar  109  TRP109      0.0946
     35  CD2       25.6110   47.7140  -21.0280 C.ar  109  TRP109      0.0152
     36  NE1       27.4470   47.8900  -22.3120 N.ar  109  TRP109     -0.2442
     37  CE2       26.6420   46.9840  -21.6630 C.ar  109  TRP109      0.0810
     38  CE3       24.6540   47.0190  -20.2790 C.ar  109  TRP109      0.0012
     39  CZ2       26.7320   45.5930  -21.5870 C.ar  109  TRP109      0.0191
     40  CZ3       24.7440   45.6230  -20.2040 C.ar  109  TRP109      0.0001
     41  CH2       25.7790   44.9280  -20.8530 C.ar  109  TRP109      0.0015
     42  N         36.3240   49.4510  -21.7790 N.3   129  GLN129     -0.1231
     43  CA        36.0120   48.0510  -21.5010 C.3   129  GLN129      0.1698
     44  C         34.5360   47.6820  -21.4570 C.2   129  GLN129      0.2592
     45  O         34.0410   47.2160  -20.4300 O.2   129  GLN129     -0.2718
     46  CB        36.7200   47.5930  -20.2160 C.3   129  GLN129      0.0381
     47  CG        38.1770   47.1800  -20.4340 C.3   129  GLN129      0.0905
     48  CD        38.3260   45.9700  -21.3540 C.2   129  GLN129      0.2608
     49  OE1       39.1270   45.9840  -22.2840 O.2   129  GLN129     -0.2717
     50  NE2       37.5650   44.9110  -21.0820 N.am  129  GLN129     -0.0878
     51  N         33.8550   47.9120  -22.5790 N.am  130  ALA130     -0.1966
     52  CA        32.5630   47.3070  -22.9060 C.3   130  ALA130      0.1713
     53  C         32.0160   47.9630  -24.1680 C.2   130  ALA130      0.2458
     54  O         32.2210   49.1470  -24.3990 O.2   130  ALA130     -0.2730
     55  CB        31.5500   47.4240  -21.7600 C.3   130  ALA130      0.0333
     56  N         31.3100   47.1880  -24.9840 N.am  131  PRO131     -0.2727
     57  CA        30.7280   47.7700  -26.1870 C.3   131  PRO131      0.1402
     58  C         29.5860   48.6920  -25.8010 C.2   131  PRO131      0.2269
     59  O         28.8790   48.4520  -24.8210 O.2   131  PRO131     -0.2865
     60  CB        30.1900   46.5420  -26.9400 C.3   131  PRO131      0.0296
     61  CG        29.9260   45.5380  -25.8720 C.3   131  PRO131      0.0237
     62  CD        30.9960   45.7540  -24.8440 C.3   131  PRO131      0.0939
     63  N         34.2790   35.7850  -23.7460 N.3   150  LEU150     -0.1231
     64  CA        34.2270   37.0530  -23.0180 C.3   150  LEU150      0.1693
     65  C         32.8520   37.4390  -22.4970 C.2   150  LEU150      0.2591
     66  O         32.7260   37.9470  -21.3740 O.2   150  LEU150     -0.2718
     67  CB        34.7120   38.2000  -23.9040 C.3   150  LEU150      0.0284
     68  CG        36.1600   38.6530  -23.7590 C.3   150  LEU150      0.0019
     69  CD1       36.4520   39.7310  -24.7840 C.3   150  LEU150      0.0001
     70  CD2       36.4250   39.1640  -22.3600 C.3   150  LEU150      0.0001
     71  N         31.8270   37.2690  -23.3250 N.am  151  VAL151     -0.1980
     72  CA        30.5240   37.8430  -22.9710 C.3   151  VAL151      0.1595
     73  C         29.3540   36.8370  -22.9530 C.2   151  VAL151      0.2287
     74  O         28.2040   37.2140  -23.1570 O.2   151  VAL151     -0.2864
     75  CB        30.1530   39.0660  -23.8450 C.3   151  VAL151      0.0276
     76  CG1       31.2410   40.1590  -23.7540 C.3   151  VAL151      0.0022
     77  CG2       29.9120   38.6610  -25.2900 C.3   151  VAL151      0.0022
     78  N         28.2610   35.8700  -20.4290 N.3   153  HIS153     -0.1226
     79  CA        27.4980   36.3210  -19.2670 C.3   153  HIS153      0.1752
     80  C         26.3130   37.2140  -19.6320 C.2   153  HIS153      0.2596
     81  O         25.3810   37.3550  -18.8280 O.2   153  HIS153     -0.2718
     82  CB        28.3960   37.0290  -18.2450 C.3   153  HIS153      0.0759
     83  CG        29.0260   38.2900  -18.7530 C.ar  153  HIS153      0.0818
     84  ND1       30.2360   38.3010  -19.4190 N.ar  153  HIS153     -0.2268
     85  CD2       28.6300   39.5840  -18.6700 C.ar  153  HIS153      0.1154
     86  CE1       30.5540   39.5480  -19.7270 C.ar  153  HIS153      0.1986
     87  NE2       29.5990   40.3450  -19.2800 N.ar  153  HIS153     -0.2212
     88  N         26.3450   37.8290  -20.8170 N.am  154  PHE154     -0.1976
     89  CA        25.1800   38.6010  -21.2700 C.3   154  PHE154      0.1639
     90  C         23.9330   37.7060  -21.2060 C.2   154  PHE154      0.2290
     91  O         22.8820   38.1380  -20.7450 O.2   154  PHE154     -0.2864
     92  CB        25.3350   39.1300  -22.7080 C.3   154  PHE154      0.0560
     93  CG        26.3540   40.2480  -22.8630 C.ar  154  PHE154     -0.0200
     94  CD1       27.0560   40.7300  -21.7800 C.ar  154  PHE154     -0.0042
     95  CD2       26.5970   40.8130  -24.1120 C.ar  154  PHE154     -0.0042
     96  CE1       27.9910   41.7520  -21.9360 C.ar  154  PHE154     -0.0003
     97  CE2       27.5330   41.8460  -24.2710 C.ar  154  PHE154     -0.0003
     98  CZ        28.2230   42.3080  -23.1780 C.ar  154  PHE154     -0.0000
     99  N         34.2660   35.3860  -11.7690 N.3   179  PHE179     -0.1241
    100  CA        33.9750   36.3610  -12.8230 C.3   179  PHE179      0.1605
    101  C         35.1000   37.3790  -12.9780 C.2   179  PHE179      0.2264
    102  O         35.4800   37.7330  -14.0920 O.2   179  PHE179     -0.2867
    103  CB        32.6720   37.1100  -12.5380 C.3   179  PHE179      0.0534
    104  CG        32.2330   38.0060  -13.6770 C.ar  179  PHE179     -0.0203
    105  CD1       32.6750   39.3170  -13.7530 C.ar  179  PHE179     -0.0042
    106  CD2       31.3960   37.5250  -14.6770 C.ar  179  PHE179     -0.0042
    107  CE1       32.2870   40.1540  -14.8150 C.ar  179  PHE179     -0.0003
    108  CE2       30.9980   38.3480  -15.7460 C.ar  179  PHE179     -0.0003
    109  CZ        31.4510   39.6680  -15.8080 C.ar  179  PHE179     -0.0000
    110  N         38.0600   37.4290  -16.2150 N.3   183  HIS183     -0.1241
    111  CA        38.1580   38.6010  -17.0820 C.3   183  HIS183      0.1621
    112  C         39.3800   39.4700  -16.7360 C.2   183  HIS183      0.2264
    113  O         39.4640   40.6300  -17.1450 O.2   183  HIS183     -0.2867
    114  CB        36.8550   39.4180  -17.0490 C.3   183  HIS183      0.0745
    115  CG        35.6560   38.6700  -17.5690 C.ar  183  HIS183      0.0817
    116  ND1       34.9160   37.8100  -16.7850 N.ar  183  HIS183     -0.2268
    117  CD2       35.0740   38.6530  -18.7940 C.ar  183  HIS183      0.1154
    118  CE1       33.9270   37.2990  -17.5020 C.ar  183  HIS183      0.1986
    119  NE2       33.9960   37.8000  -18.7230 N.ar  183  HIS183     -0.2212
    120  N         21.1370   43.8110  -17.4960 N.3   215  TYR215     -0.1241
    121  CA        21.3190   42.8960  -18.6240 C.3   215  TYR215      0.1605
    122  C         19.9940   42.4820  -19.2390 C.2   215  TYR215      0.2264
    123  O         19.8920   42.3320  -20.4580 O.2   215  TYR215     -0.2867
    124  CB        22.1160   41.6630  -18.1860 C.3   215  TYR215      0.0534
    125  CG        23.5300   42.0510  -17.8400 C.ar  215  TYR215     -0.0201
    126  CD1       24.5390   41.9950  -18.7980 C.ar  215  TYR215     -0.0009
    127  CD2       23.8420   42.5370  -16.5820 C.ar  215  TYR215     -0.0009
    128  CE1       25.8370   42.3840  -18.4980 C.ar  215  TYR215      0.0417
    129  CE2       25.1390   42.9380  -16.2710 C.ar  215  TYR215      0.0417
    130  CZ        26.1260   42.8530  -17.2330 C.ar  215  TYR215      0.1957
    131  OH        27.4060   43.2460  -16.9410 O.3   215  TYR215     -0.2866
    132  N         40.7490   38.9940  -21.1290 N.3   246  GLY246     -0.1225
    133  CA        39.6200   39.7380  -20.5940 C.3   246  GLY246      0.1811
    134  C         39.4480   41.1190  -21.2090 C.2   246  GLY246      0.2280
    135  O         38.4360   41.7940  -20.9820 O.2   246  GLY246     -0.2866
    136  N         39.0370   44.0620  -24.2170 N.3   248  MET248     -0.1245
    137  CA        38.2890   44.2380  -25.4630 C.3   248  MET248      0.1570
    138  C         39.2130   44.3800  -26.6680 C.2   248  MET248      0.2261
    139  O         38.7790   44.2660  -27.8150 O.2   248  MET248     -0.2867
    140  CB        37.3760   45.4640  -25.3830 C.3   248  MET248      0.0387
    141  CG        36.3260   45.3810  -24.2930 C.3   248  MET248      0.0595
    142  SD        35.1810   44.0280  -24.5750 S.3   248  MET248     -0.1393
    143  CE        34.4450   44.4980  -26.1360 C.3   248  MET248      0.0692
    144  N         40.2340   43.2720  -18.0420 N.3   273  HIS273     -0.1241
    145  CA        39.0240   44.0940  -17.9990 C.3   273  HIS273      0.1621
    146  C         39.0580   45.1740  -16.9270 C.2   273  HIS273      0.2264
    147  O         38.5210   46.2640  -17.1100 O.2   273  HIS273     -0.2867
    148  CB        37.8150   43.1880  -17.7160 C.3   273  HIS273      0.0745
    149  CG        36.5220   43.9280  -17.5750 C.ar  273  HIS273      0.0817
    150  ND1       35.9550   44.6280  -18.6150 N.ar  273  HIS273     -0.2268
    151  CD2       35.6730   44.0520  -16.5260 C.ar  273  HIS273      0.1154
    152  CE1       34.8140   45.1640  -18.2100 C.ar  273  HIS273      0.1986
    153  NE2       34.6260   44.8380  -16.9440 N.ar  273  HIS273     -0.2212
@<TRIPOS>BOND
     1   139   138    2
     2    60    57    1
     3    60    61    1
     4   138   137    1
     5    57    58    1
     6    57    56    1
     7   143   142    1
     8    61    62    1
     9    58    59    2
    10   137   140    1
    11   137   136    1
    12   140   141    1
    13    77    75    1
    14    56    62    1
    15    56    53   am
    16    69    68    1
    17   142   141    1
    18    54    53    2
    19    97    95   ar
    20    97    98   ar
    21    53    52    1
    22    95    93   ar
    23    67    68    1
    24    67    64    1
    25    75    76    1
    26    75    72    1
    27    68    70    1
    28    63    64    1
    29    71    72    1
    30    71    65   am
    31    98    96   ar
    32    74    73    2
    33    64    65    1
    34    72    73    1
    35    52    51    1
    36    52    55    1
    37    93    92    1
    38    93    94   ar
    39    92    89    1
    40    51    44   am
    41    65    66    2
    42    36    34   ar
    43    36    37   ar
    44    49    48    2
    45    34    33   ar
    46    96    94   ar
    47    42    43    1
    48    37    39   ar
    49    37    35   ar
    50    39    41   ar
    51    43    44    1
    52    43    46    1
    53    44    45    2
    54    48    50   am
    55    48    47    1
    56    33    35   ar
    57    33    32    1
    58    29    28    1
    59    29    32    1
    60    29    30    1
    61    89    90    1
    62    89    88    1
    63    31    30    2
    64   134   135    2
    65   134   133    1
    66    90    91    2
    67   132   133    1
    68    35    38   ar
    69    41    40   ar
    70    88    80   am
    71   123   122    2
    72    47    46    1
    73    78    79    1
    74    38    40   ar
    75    86    84   ar
    76    86    87   ar
    77    80    79    1
    78    80    81    2
    79    15    14    2
    80    84    83   ar
    81    87    85   ar
    82    79    82    1
    83   122   121    1
    84   126   128   ar
    85   126   125   ar
    86   117   119   ar
    87   117   115   ar
    88    83    85   ar
    89    83    82    1
    90   119   118   ar
    91   121   124    1
    92   121   120    1
    93   150   152   ar
    94   150   149   ar
    95    14    13    1
    96    14    20   am
    97   128   130   ar
    98    13    12    1
    99    13    16    1
   100   152   153   ar
   101   124   125    1
   102   144   145    1
   103    23    22    2
   104   145   148    1
   105   145   146    1
   106    21    20    1
   107    21    22    1
   108    21    24    1
   109    19    17   ar
   110   125   127   ar
   111   148   149    1
   112    26    24    1
   113   149   151   ar
   114   115   114    1
   115   115   116   ar
   116   118   116   ar
   117    17    16    1
   118    17    18   ar
   119   130   131    1
   120   130   129   ar
   121    24    25    1
   122   113   112    2
   123   147   146    2
   124   111   114    1
   125   111   112    1
   126   111   110    1
   127   153   151   ar
   128   127   129   ar
   129   109   108   ar
   130   109   107   ar
   131   108   106   ar
   132    25    27    1
   133   107   105   ar
   134   106   104   ar
   135   102   101    2
   136     5     6    1
   137     5     2    1
   138   105   104   ar
   139     1     2    1
   140   104   103    1
   141     6     8   ar
   142     6     7   ar
   143     8    10   ar
   144     2     3    1
   145   101   100    1
   146     7     9   ar
   147    10    11   ar
   148   100   103    1
   149   100    99    1
   150     4     3    2
   151     9    11   ar
