@<TRIPOS>MOLECULE
tmp/4do0A00.pdb
 142 135 0 0 0
SMALL
GASTEIGER

@<TRIPOS>ATOM
      1  N        -10.6520  -27.6340   18.7310 N.3   110  ASN110     -0.1240
      2  CA       -10.7400  -26.8650   19.9840 C.3   110  ASN110      0.1653
      3  C        -11.8410  -27.4610   20.8360 C.2   110  ASN110      0.2266
      4  O        -12.9510  -27.6830   20.3450 O.2   110  ASN110     -0.2867
      5  CB       -11.0660  -25.3970   19.6830 C.3   110  ASN110      0.1155
      6  CG       -10.8560  -24.4740   20.8750 C.2   110  ASN110      0.2627
      7  OD1       -9.7970  -24.4620   21.4900 O.2   110  ASN110     -0.2716
      8  ND2      -11.8460  -23.6620   21.1630 N.am  110  ASN110     -0.0877
      9  N        -14.0280  -26.9570   24.2360 N.3   112  ILE112     -0.1245
     10  CA       -14.4330  -25.9190   25.1570 C.3   112  ILE112      0.1561
     11  C        -15.6630  -26.2490   25.9550 C.2   112  ILE112      0.2260
     12  O        -15.9890  -25.4930   26.8400 O.2   112  ILE112     -0.2867
     13  CB       -14.6560  -24.5750   24.4460 C.3   112  ILE112      0.0252
     14  CG1      -16.0410  -24.5010   23.7430 C.3   112  ILE112      0.0019
     15  CG2      -13.5200  -24.2970   23.5040 C.3   112  ILE112      0.0019
     16  CD1      -16.1880  -23.3220   22.7930 C.3   112  ILE112      0.0001
     17  N        -11.4530  -27.2870   29.3470 N.3   157  LEU157     -0.1245
     18  CA       -11.1710  -26.7150   28.0570 C.3   157  LEU157      0.1561
     19  C         -9.7550  -27.0470   27.6890 C.2   157  LEU157      0.2260
     20  O         -8.8270  -26.6870   28.4150 O.2   157  LEU157     -0.2867
     21  CB       -11.2910  -25.1850   28.0890 C.3   157  LEU157      0.0270
     22  CG       -12.6470  -24.5220   28.3860 C.3   157  LEU157      0.0019
     23  CD1      -12.9370  -24.3370   29.8870 C.3   157  LEU157      0.0001
     24  CD2      -12.5990  -23.1700   27.7030 C.3   157  LEU157      0.0001
     25  N         -6.4010  -21.5270   18.3310 N.3   163  SER163     -0.1202
     26  CA        -7.8380  -21.7250   18.4420 C.3   163  SER163      0.2020
     27  C         -8.5620  -20.3700   18.5460 C.2   163  SER163      0.2619
     28  O         -7.9830  -19.3680   18.9830 O.2   163  SER163     -0.2717
     29  CB        -8.1700  -22.5710   19.6650 C.3   163  SER163      0.2103
     30  OG        -7.5550  -23.8470   19.5970 O.3   163  SER163     -0.2182
     31  N         -9.8280  -20.3380   18.1490 N.am  164  TYR164     -0.1961
     32  CA       -10.5880  -19.0970   18.1480 C.3   164  TYR164      0.1771
     33  C        -12.0580  -19.3890   18.3050 C.2   164  TYR164      0.2620
     34  O        -12.6230  -20.1330   17.4840 O.2   164  TYR164     -0.2715
     35  CB       -10.3640  -18.3150   16.8610 C.3   164  TYR164      0.0574
     36  CG       -11.0920  -16.9950   16.8250 C.ar  164  TYR164     -0.0198
     37  CD1      -10.5530  -15.8470   17.4200 C.ar  164  TYR164     -0.0009
     38  CD2      -12.3240  -16.8980   16.2240 C.ar  164  TYR164     -0.0009
     39  CE1      -11.2300  -14.6370   17.4020 C.ar  164  TYR164      0.0417
     40  CE2      -13.0120  -15.7190   16.2110 C.ar  164  TYR164      0.0417
     41  CZ       -12.4650  -14.5860   16.7890 C.ar  164  TYR164      0.1957
     42  OH       -13.1860  -13.4210   16.7330 O.3   164  TYR164     -0.2866
     43  N        -12.6720  -18.8330   19.3640 N.am  165  THR165     -0.1951
     44  CA       -14.1190  -18.7800   19.4260 C.3   165  THR165      0.1897
     45  C        -14.5910  -17.3710   19.1120 C.2   165  THR165      0.2313
     46  O        -14.0860  -16.3770   19.6510 O.2   165  THR165     -0.2863
     47  CB       -14.6920  -19.2280   20.7720 C.3   165  THR165      0.1794
     48  OG1      -14.0360  -20.4320   21.2160 O.3   165  THR165     -0.2208
     49  CG2      -16.1960  -19.4650   20.6230 C.3   165  THR165      0.0378
     50  N        -19.7580  -13.9770   21.0220 N.3   168  HIS168     -0.1241
     51  CA       -21.0330  -14.5180   21.3980 C.3   168  HIS168      0.1621
     52  C        -21.4190  -14.0190   22.7680 C.2   168  HIS168      0.2264
     53  O        -20.6210  -13.4320   23.4580 O.2   168  HIS168     -0.2867
     54  CB       -20.9300  -16.0360   21.4190 C.3   168  HIS168      0.0745
     55  CG       -19.8590  -16.5400   22.3490 C.ar  168  HIS168      0.0817
     56  ND1      -18.5650  -16.3640   22.0990 N.ar  168  HIS168     -0.2268
     57  CD2      -19.9430  -17.1900   23.5810 C.ar  168  HIS168      0.1154
     58  CE1      -17.8430  -16.9010   23.1060 C.ar  168  HIS168      0.1986
     59  NE2      -18.6930  -17.3980   24.0110 N.ar  168  HIS168     -0.2212
     60  N        -22.9740  -15.8360   26.2130 N.3   170  ASP170     -0.1225
     61  CA       -23.0800  -17.1830   26.6760 C.3   170  ASP170      0.1805
     62  C        -24.5340  -17.6190   26.8390 C.2   170  ASP170      0.2597
     63  O        -25.4390  -16.8450   27.2050 O.2   170  ASP170     -0.2718
     64  CB       -22.3060  -17.3660   27.9880 C.3   170  ASP170      0.1424
     65  CG       -20.8300  -17.5520   27.7610 C.2   170  ASP170      0.3668
     66  OD1      -20.3870  -17.5000   26.5990 O.co2 170  ASP170     -0.2456
     67  OD2      -20.1340  -17.8230   28.7510 O.co2 170  ASP170     -0.2456
     68  N        -24.7160  -18.9010   26.5540 N.am  171  PHE171     -0.1976
     69  CA       -25.9590  -19.6030   26.7240 C.3   171  PHE171      0.1639
     70  C        -26.5690  -19.2960   28.0650 C.2   171  PHE171      0.2290
     71  O        -25.8700  -19.0850   29.0550 O.2   171  PHE171     -0.2864
     72  CB       -25.7240  -21.1200   26.5580 C.3   171  PHE171      0.0560
     73  CG       -24.8170  -21.7250   27.6070 C.ar  171  PHE171     -0.0200
     74  CD1      -25.3410  -22.2200   28.7830 C.ar  171  PHE171     -0.0042
     75  CD2      -23.4380  -21.8050   27.4020 C.ar  171  PHE171     -0.0042
     76  CE1      -24.5030  -22.7680   29.7630 C.ar  171  PHE171     -0.0003
     77  CE2      -22.5920  -22.3550   28.3660 C.ar  171  PHE171     -0.0003
     78  CZ       -23.1200  -22.8260   29.5570 C.ar  171  PHE171     -0.0000
     79  N        -13.3880  -18.6130   34.4440 N.3   178  TYR178     -0.1241
     80  CA       -12.3850  -19.4000   33.7470 C.3   178  TYR178      0.1605
     81  C        -11.0850  -19.3700   34.5360 C.2   178  TYR178      0.2264
     82  O        -10.5720  -18.3080   34.8260 O.2   178  TYR178     -0.2867
     83  CB       -12.1310  -18.8600   32.3320 C.3   178  TYR178      0.0534
     84  CG       -13.2220  -19.2080   31.3320 C.ar  178  TYR178     -0.0201
     85  CD1      -13.5760  -20.5190   31.0990 C.ar  178  TYR178     -0.0009
     86  CD2      -13.8910  -18.2170   30.6020 C.ar  178  TYR178     -0.0009
     87  CE1      -14.5700  -20.8490   30.1900 C.ar  178  TYR178      0.0417
     88  CE2      -14.8940  -18.5350   29.7040 C.ar  178  TYR178      0.0417
     89  CZ       -15.2420  -19.8580   29.4920 C.ar  178  TYR178      0.1957
     90  OH       -16.2630  -20.2150   28.6040 O.3   178  TYR178     -0.2866
     91  N         -5.1330  -17.6700   27.4900 N.3   185  LYS185     -0.1245
     92  CA        -6.2730  -17.3410   26.5830 C.3   185  LYS185      0.1561
     93  C         -6.5370  -15.8490   26.5580 C.2   185  LYS185      0.2260
     94  O         -6.7250  -15.2540   27.6140 O.2   185  LYS185     -0.2867
     95  CB        -7.5570  -18.0290   27.0220 C.3   185  LYS185      0.0271
     96  CG        -7.7790  -19.3970   26.3710 C.3   185  LYS185      0.0035
     97  CD        -8.8710  -20.1740   27.0610 C.3   185  LYS185      0.0206
     98  CE        -9.1530  -21.4980   26.3850 C.3   185  LYS185      0.1093
     99  NZ        -9.3570  -21.4210   24.9090 N.3   185  LYS185     -0.1314
    100  N         -9.0350  -12.8690   25.9100 N.3   187  PHE187     -0.1241
    101  CA       -10.4720  -12.5520   25.7910 C.3   187  PHE187      0.1605
    102  C        -10.6580  -11.1470   25.2580 C.2   187  PHE187      0.2264
    103  O        -10.0370  -10.2060   25.7600 O.2   187  PHE187     -0.2867
    104  CB       -11.1550  -12.6120   27.1340 C.3   187  PHE187      0.0534
    105  CG       -11.2910  -13.9910   27.6760 C.ar  187  PHE187     -0.0203
    106  CD1      -12.4980  -14.6690   27.5950 C.ar  187  PHE187     -0.0042
    107  CD2      -10.2180  -14.6100   28.2680 C.ar  187  PHE187     -0.0042
    108  CE1      -12.6230  -15.9460   28.0870 C.ar  187  PHE187     -0.0003
    109  CE2      -10.3420  -15.8910   28.7790 C.ar  187  PHE187     -0.0003
    110  CZ       -11.5440  -16.5680   28.6870 C.ar  187  PHE187     -0.0000
    111  N        -18.2020  -11.5840   23.9420 N.3   240  HIS240     -0.1241
    112  CA       -16.7560  -11.9130   23.9460 C.3   240  HIS240      0.1621
    113  C        -16.3400  -12.9770   22.9570 C.2   240  HIS240      0.2264
    114  O        -17.0980  -13.9030   22.6610 O.2   240  HIS240     -0.2867
    115  CB       -16.3420  -12.3790   25.3210 C.3   240  HIS240      0.0745
    116  CG       -17.0930  -13.5860   25.7830 C.ar  240  HIS240      0.0817
    117  ND1      -18.3820  -13.5320   26.1190 N.ar  240  HIS240     -0.2268
    118  CD2      -16.6960  -14.9220   25.9300 C.ar  240  HIS240      0.1154
    119  CE1      -18.8010  -14.7670   26.4990 C.ar  240  HIS240      0.1986
    120  NE2      -17.7680  -15.6170   26.3670 N.ar  240  HIS240     -0.2212
    121  N        -12.6070  -15.3670   21.8900 N.3   242  VAL242     -0.1245
    122  CA       -11.4170  -15.8790   22.5860 C.3   242  VAL242      0.1561
    123  C        -10.3420  -16.3290   21.6270 C.2   242  VAL242      0.2260
    124  O        -10.5690  -17.1770   20.7980 O.2   242  VAL242     -0.2867
    125  CB       -11.7470  -17.0630   23.5120 C.3   242  VAL242      0.0252
    126  CG1      -10.5350  -17.3980   24.3790 C.3   242  VAL242      0.0019
    127  CG2      -12.9640  -16.7740   24.3960 C.3   242  VAL242      0.0019
    128  N         -6.8980  -18.3710   21.7340 N.3   244  THR244     -0.1218
    129  CA        -5.9090  -19.1450   22.5060 C.3   244  THR244      0.1862
    130  C         -4.5360  -19.0420   21.8460 C.2   244  THR244      0.2287
    131  O         -4.2870  -19.7100   20.8690 O.2   244  THR244     -0.2866
    132  CB        -6.3140  -20.6270   22.5910 C.3   244  THR244      0.1770
    133  OG1       -7.6490  -20.7510   23.1230 O.3   244  THR244     -0.2211
    134  CG2       -5.3230  -21.3970   23.4640 C.3   244  THR244      0.0375
    135  N        -20.5420  -22.0340   34.4110 N.3   254  ASN254     -0.1240
    136  CA       -21.4900  -21.0240   34.0370 C.3   254  ASN254      0.1653
    137  C        -22.5580  -21.0250   35.0860 C.2   254  ASN254      0.2266
    138  O        -22.9800  -22.0900   35.5590 O.2   254  ASN254     -0.2867
    139  CB       -22.0630  -21.2690   32.6380 C.3   254  ASN254      0.1155
    140  CG       -21.0630  -20.9510   31.5290 C.2   254  ASN254      0.2627
    141  OD1      -20.1850  -21.7560   31.2350 O.2   254  ASN254     -0.2716
    142  ND2      -21.2110  -19.7800   30.8810 N.am  254  ASN254     -0.0877
@<TRIPOS>BOND
     1    40    38   ar
     2    40    41   ar
     3    38    36   ar
     4    42    41    1
     5    41    39   ar
     6    36    35    1
     7    36    37   ar
     8    35    32    1
     9    39    37   ar
    10    34    33    2
    11    32    31    1
    12    32    33    1
    13    31    27   am
    14    33    43   am
    15    25    26    1
    16    26    27    1
    17    26    29    1
    18    27    28    2
    19     1     2    1
    20    45    44    1
    21    45    46    2
    22    43    44    1
    23    44    47    1
    24    30    29    1
    25     5     2    1
    26     5     6    1
    27     2     3    1
    28     4     3    2
    29    49    47    1
    30    47    48    1
    31   124   123    2
    32   131   130    2
    33     6     8   am
    34     6     7    2
    35    50    51    1
    36    51    54    1
    37    51    52    1
    38    54    55    1
    39   123   122    1
    40   128   129    1
    41   130   129    1
    42   121   122    1
    43    56    55   ar
    44    56    58   ar
    45    55    57   ar
    46   129   132    1
    47   122   125    1
    48   132   133    1
    49   132   134    1
    50   114   113    2
    51    52    53    2
    52    16    14    1
    53   113   112    1
    54    58    59   ar
    55    15    13    1
    56   125   126    1
    57   125   127    1
    58    57    59   ar
    59    14    13    1
    60   111   112    1
    61   112   115    1
    62     9    10    1
    63    13    10    1
    64    99    98    1
    65    10    11    1
    66   102   103    2
    67   102   101    1
    68   115   116    1
    69   116   118   ar
    70   116   117   ar
    71   101   100    1
    72   101   104    1
    73   118   120   ar
    74    11    12    2
    75   117   119   ar
    76    60    61    1
    77   120   119   ar
    78    96    95    1
    79    96    97    1
    80    98    97    1
    81    68    69    1
    82    68    62   am
    83    93    92    1
    84    93    94    2
    85    72    69    1
    86    72    73    1
    87    92    95    1
    88    92    91    1
    89    66    65   ar
    90    61    62    1
    91    61    64    1
    92    69    70    1
    93    62    63    2
    94   104   105    1
    95    75    73   ar
    96    75    77   ar
    97   106   105   ar
    98   106   108   ar
    99    73    74   ar
   100   105   107   ar
   101    19    18    1
   102    19    20    2
   103    24    22    1
   104    65    64    1
   105    65    67   ar
   106    18    21    1
   107    18    17    1
   108    70    71    2
   109   108   110   ar
   110    21    22    1
   111   107   109   ar
   112    77    78   ar
   113    22    23    1
   114    90    89    1
   115   110   109   ar
   116    74    76   ar
   117    89    88   ar
   118    89    87   ar
   119    78    76   ar
   120    88    86   ar
   121    87    85   ar
   122    86    84   ar
   123   142   140   am
   124    85    84   ar
   125   141   140    2
   126    84    83    1
   127   140   139    1
   128    83    80    1
   129   139   136    1
   130    80    79    1
   131    80    81    1
   132   136   135    1
   133   136   137    1
   134    81    82    2
   135   137   138    2
