@<TRIPOS>MOLECULE
tmp/4do3A00.pdb
 110 106 0 0 0
SMALL
GASTEIGER

@<TRIPOS>ATOM
      1  N         19.6800   36.6970    2.3570 N.3   159  MET159     -0.1230
      2  CA        18.3120   37.3430    2.3500 C.3   159  MET159      0.1702
      3  C         18.1450   38.6290    3.1970 C.2   159  MET159      0.2592
      4  O         17.0630   39.2540    3.2530 O.2   159  MET159     -0.2718
      5  CB        17.2470   36.3420    2.7610 C.3   159  MET159      0.0401
      6  CG        17.1290   35.1170    1.8210 C.3   159  MET159      0.0596
      7  SD        15.4500   34.3800    1.9240 S.3   159  MET159     -0.1393
      8  CE        15.3690   33.8660    3.6350 C.3   159  MET159      0.0692
      9  N         19.1790   39.0690    3.8830 N.am  160  LEU160     -0.1966
     10  CA        18.9040   40.2880    4.7020 C.3   160  LEU160      0.1728
     11  C         19.3380   41.5140    3.8480 C.2   160  LEU160      0.2617
     12  O         20.4400   42.0350    4.0060 O.2   160  LEU160     -0.2715
     13  CB        19.6540   40.2430    6.0350 C.3   160  LEU160      0.0311
     14  CG        19.3420   41.1650    7.2470 C.3   160  LEU160      0.0022
     15  CD1       19.4310   42.6390    6.9290 C.3   160  LEU160      0.0001
     16  CD2       17.9830   40.8290    7.8480 C.3   160  LEU160      0.0001
     17  N         18.5000   41.8960    2.9000 N.am  161  SER161     -0.1936
     18  CA        18.9190   42.8330    1.9150 C.3   161  SER161      0.2055
     19  C         17.6920   43.1060    1.1180 C.2   161  SER161      0.2643
     20  O         16.8250   42.2460    1.0460 O.2   161  SER161     -0.2714
     21  CB        19.9550   42.1170    1.0040 C.3   161  SER161      0.2130
     22  OG        20.1640   42.8760   -0.1930 O.3   161  SER161     -0.2179
     23  N         17.5940   44.2620    0.4730 N.am  162  PHE162     -0.1973
     24  CA        16.5400   44.4290   -0.5740 C.3   162  PHE162      0.1639
     25  C         17.1160   44.6480   -1.9620 C.2   162  PHE162      0.2290
     26  O         16.4880   45.2200   -2.8130 O.2   162  PHE162     -0.2864
     27  CB        15.4590   45.4750   -0.2140 C.3   162  PHE162      0.0560
     28  CG        15.9490   46.9290   -0.1080 C.ar  162  PHE162     -0.0200
     29  CD1       15.6790   47.8390   -1.1170 C.ar  162  PHE162     -0.0042
     30  CD2       16.6040   47.4110    1.0560 C.ar  162  PHE162     -0.0042
     31  CE1       16.1400   49.1590   -1.0230 C.ar  162  PHE162     -0.0003
     32  CE2       17.0110   48.7610    1.1450 C.ar  162  PHE162     -0.0003
     33  CZ        16.7780   49.6160    0.1280 C.ar  162  PHE162     -0.0000
     34  N         14.3860   43.2040   -3.5660 N.3   184  GLY184     -0.1210
     35  CA        14.5890   41.9180   -2.9350 C.3   184  GLY184      0.1956
     36  C         14.1270   41.9770   -1.4690 C.2   184  GLY184      0.2612
     37  O         13.5600   42.9870   -1.0610 O.2   184  GLY184     -0.2717
     38  N         14.3370   40.9130   -0.6760 N.am  185  SER185     -0.1952
     39  CA        15.0520   39.7120   -1.0530 C.3   185  SER185      0.1924
     40  C         14.2950   38.7920   -2.0090 C.2   185  SER185      0.2314
     41  O         14.8960   37.8630   -2.5650 O.2   185  SER185     -0.2863
     42  CB        15.4770   38.9440    0.2210 C.3   185  SER185      0.2116
     43  OG        14.3300   38.6650    0.9510 O.3   185  SER185     -0.2180
     44  N         10.5090   40.2170    5.8250 N.3   206  ILE206     -0.1231
     45  CA        10.7010   40.6140    7.2090 C.3   206  ILE206      0.1692
     46  C         10.9030   42.1190    7.3600 C.2   206  ILE206      0.2593
     47  O         10.7320   42.6370    8.4860 O.2   206  ILE206     -0.2718
     48  CB        11.8320   39.8820    7.8820 C.3   206  ILE206      0.0266
     49  CG1       11.7900   40.0270    9.4320 C.3   206  ILE206      0.0019
     50  CG2       13.1340   40.3060    7.3480 C.3   206  ILE206      0.0020
     51  CD1       12.7330   38.9840   10.0940 C.3   206  ILE206      0.0001
     52  N         11.2080   42.8250    6.2540 N.am  207  GLY207     -0.1942
     53  CA        11.4170   44.2900    6.2730 C.3   207  GLY207      0.2014
     54  C         10.9820   44.9980    4.9800 C.2   207  GLY207      0.2639
     55  O         11.4200   46.1200    4.7100 O.2   207  GLY207     -0.2714
     56  N         10.1800   44.3210    4.1580 N.am  208  GLY208     -0.1939
     57  CA         9.7480   44.8450    2.8430 C.3   208  GLY208      0.2014
     58  C         10.0350   43.8820    1.6850 C.2   208  GLY208      0.2639
     59  O          9.8630   44.2370    0.5120 O.2   208  GLY208     -0.2714
     60  N         10.4530   42.6650    1.9820 N.am  209  SER209     -0.1949
     61  CA        10.9990   41.8240    0.9590 C.3   209  SER209      0.1924
     62  C         10.0640   41.1840   -0.0530 C.2   209  SER209      0.2314
     63  O         10.5590   40.5580   -1.0040 O.2   209  SER209     -0.2863
     64  CB        11.8050   40.7520    1.5870 C.3   209  SER209      0.2116
     65  OG        13.0840   41.2590    1.8610 O.3   209  SER209     -0.2180
     66  N          9.3460   45.4870   -1.7860 N.3   212  PHE212     -0.1241
     67  CA        10.3560   46.0690   -2.6700 C.3   212  PHE212      0.1605
     68  C         10.3530   45.4890   -4.1320 C.2   212  PHE212      0.2264
     69  O         10.2940   46.2400   -5.0640 O.2   212  PHE212     -0.2867
     70  CB        11.7600   45.9450   -2.0470 C.3   212  PHE212      0.0534
     71  CG        11.9800   46.7760   -0.8140 C.ar  212  PHE212     -0.0203
     72  CD1       11.9210   48.1730   -0.8640 C.ar  212  PHE212     -0.0042
     73  CD2       12.3240   46.1730    0.3890 C.ar  212  PHE212     -0.0042
     74  CE1       12.1380   48.9420    0.2660 C.ar  212  PHE212     -0.0003
     75  CE2       12.5950   46.9340    1.5050 C.ar  212  PHE212     -0.0003
     76  CZ        12.4980   48.3370    1.4350 C.ar  212  PHE212     -0.0000
     77  N         15.8880   43.0760   14.9560 N.3   348  LEU348     -0.1231
     78  CA        16.5000   42.2210   13.9670 C.3   348  LEU348      0.1693
     79  C         17.9070   41.8940   14.4160 C.2   348  LEU348      0.2592
     80  O         18.4760   40.8190   14.0760 O.2   348  LEU348     -0.2718
     81  CB        16.5440   42.9120   12.6040 C.3   348  LEU348      0.0284
     82  CG        15.2090   43.1180   11.9140 C.3   348  LEU348      0.0019
     83  CD1       15.3150   44.1170   10.6690 C.3   348  LEU348      0.0001
     84  CD2       14.6090   41.7490   11.4730 C.3   348  LEU348      0.0001
     85  N         18.5050   42.7890   15.1890 N.am  349  PHE349     -0.1976
     86  CA        19.8630   42.5490   15.5820 C.3   349  PHE349      0.1639
     87  C         20.0670   42.4770   17.0570 C.2   349  PHE349      0.2290
     88  O         21.1610   42.8010   17.5240 O.2   349  PHE349     -0.2864
     89  CB        20.7670   43.6340   14.9660 C.3   349  PHE349      0.0560
     90  CG        20.7790   43.5870   13.4430 C.ar  349  PHE349     -0.0200
     91  CD1       21.4550   42.5900   12.7870 C.ar  349  PHE349     -0.0042
     92  CD2       20.0440   44.4890   12.7020 C.ar  349  PHE349     -0.0042
     93  CE1       21.4300   42.5250   11.3570 C.ar  349  PHE349     -0.0003
     94  CE2       20.0390   44.4570   11.3070 C.ar  349  PHE349     -0.0003
     95  CZ        20.7490   43.4650   10.6440 C.ar  349  PHE349     -0.0000
     96  N         20.0880   52.0020    3.7670 N.3   456  THR456     -0.1218
     97  CA        19.2170   51.2880    4.7120 C.3   456  THR456      0.1862
     98  C         18.0210   52.1250    5.1520 C.2   456  THR456      0.2287
     99  O         16.9480   51.5600    5.4400 O.2   456  THR456     -0.2866
    100  CB        20.0350   50.8460    5.9230 C.3   456  THR456      0.1770
    101  OG1       21.0010   49.8840    5.4900 O.3   456  THR456     -0.2211
    102  CG2       19.1880   50.2180    6.9810 C.3   456  THR456      0.0375
    103  N         14.4100   51.6830    4.0300 N.3   459  ILE459     -0.1245
    104  CA        13.4500   50.6420    4.4880 C.3   459  ILE459      0.1561
    105  C         12.2650   51.1830    5.2830 C.2   459  ILE459      0.2260
    106  O         11.3680   50.4370    5.5990 O.2   459  ILE459     -0.2867
    107  CB        14.1100   49.4240    5.2200 C.3   459  ILE459      0.0252
    108  CG1       14.6470   49.8590    6.5850 C.3   459  ILE459      0.0019
    109  CG2       15.1640   48.7880    4.2980 C.3   459  ILE459      0.0019
    110  CD1       15.2980   48.6960    7.4380 C.3   459  ILE459      0.0001
@<TRIPOS>BOND
     1    69    68    2
     2    68    67    1
     3    34    35    1
     4    35    36    1
     5    26    25    2
     6    67    70    1
     7    67    66    1
     8    41    40    2
     9    70    71    1
    10    40    39    1
    11    25    24    1
    12    36    37    2
    13    36    38   am
    14    29    31   ar
    15    29    28   ar
    16    39    38    1
    17    39    42    1
    18    31    33   ar
    19    63    62    2
    20    72    71   ar
    21    72    74   ar
    22    71    73   ar
    23    24    27    1
    24    24    23    1
    25    27    28    1
    26    22    21    1
    27    28    30   ar
    28    62    61    1
    29    33    32   ar
    30    42    43    1
    31    74    76   ar
    32    73    75   ar
    33    23    19   am
    34    59    58    2
    35    61    64    1
    36    61    60    1
    37    21    18    1
    38    20    19    2
    39    30    32   ar
    40    19    18    1
    41    76    75   ar
    42    64    65    1
    43    58    60   am
    44    58    57    1
    45     6     7    1
    46     6     5    1
    47    18    17    1
    48     7     8    1
    49     2     1    1
    50     2     5    1
    51     2     3    1
    52    57    56    1
    53    17    11   am
    54     3     4    2
    55     3     9   am
    56    96    97    1
    57    11    12    2
    58    11    10    1
    59     9    10    1
    60   103   104    1
    61    56    54   am
    62   109   107    1
    63   104   107    1
    64   104   105    1
    65    10    13    1
    66    55    54    2
    67    97    98    1
    68    97   100    1
    69    54    53    1
    70    98    99    2
    71   107   108    1
    72   105   106    2
    73   101   100    1
    74    44    45    1
    75   100   102    1
    76    13    14    1
    77    52    53    1
    78    52    46   am
    79   108   110    1
    80    15    14    1
    81    45    46    1
    82    45    48    1
    83    14    16    1
    84    50    48    1
    85    46    47    2
    86    48    49    1
    87    49    51    1
    88    95    94   ar
    89    95    93   ar
    90    83    82    1
    91    94    92   ar
    92    93    91   ar
    93    84    82    1
    94    82    81    1
    95    81    78    1
    96    92    90   ar
    97    91    90   ar
    98    90    89    1
    99    78    79    1
   100    78    77    1
   101    80    79    2
   102    79    85   am
   103    89    86    1
   104    85    86    1
   105    86    87    1
   106    87    88    2
