@<TRIPOS>MOLECULE
tmp/4do3A01.pdb
 155 146 0 0 0
SMALL
GASTEIGER

@<TRIPOS>ATOM
      1  N         19.1790   39.0690    3.8830 N.3   160  LEU160     -0.1231
      2  CA        18.9040   40.2880    4.7020 C.3   160  LEU160      0.1693
      3  C         19.3380   41.5140    3.8480 C.2   160  LEU160      0.2592
      4  O         20.4400   42.0350    4.0060 O.2   160  LEU160     -0.2718
      5  CB        19.6540   40.2430    6.0350 C.3   160  LEU160      0.0284
      6  CG        19.3420   41.1650    7.2470 C.3   160  LEU160      0.0019
      7  CD1       19.4310   42.6390    6.9290 C.3   160  LEU160      0.0001
      8  CD2       17.9830   40.8290    7.8480 C.3   160  LEU160      0.0001
      9  N         18.5000   41.8960    2.9000 N.am  161  SER161     -0.1952
     10  CA        18.9190   42.8330    1.9150 C.3   161  SER161      0.1924
     11  C         17.6920   43.1060    1.1180 C.2   161  SER161      0.2314
     12  O         16.8250   42.2460    1.0460 O.2   161  SER161     -0.2863
     13  CB        19.9550   42.1170    1.0040 C.3   161  SER161      0.2116
     14  OG        20.1640   42.8760   -0.1930 O.3   161  SER161     -0.2180
     15  N         12.7400   48.1110   15.2900 N.3   344  SER344     -0.1202
     16  CA        12.9750   47.2250   14.1430 C.3   344  SER344      0.2020
     17  C         14.3950   46.7810   14.0920 C.2   344  SER344      0.2618
     18  O         14.7240   45.5570   14.0580 O.2   344  SER344     -0.2717
     19  CB        12.6220   47.9150   12.8260 C.3   344  SER344      0.2103
     20  OG        11.2090   47.9980   12.7720 O.3   344  SER344     -0.2182
     21  N         15.2750   47.7550   14.0850 N.am  345  ALA345     -0.1979
     22  CA        16.6740   47.4130   14.0990 C.3   345  ALA345      0.1597
     23  C         17.0830   46.5870   15.3300 C.2   345  ALA345      0.2287
     24  O         17.8940   45.6680   15.2220 O.2   345  ALA345     -0.2864
     25  CB        17.5030   48.6390   14.0110 C.3   345  ALA345      0.0319
     26  N         15.8880   43.0760   14.9560 N.3   348  LEU348     -0.1231
     27  CA        16.5000   42.2210   13.9670 C.3   348  LEU348      0.1693
     28  C         17.9070   41.8940   14.4160 C.2   348  LEU348      0.2592
     29  O         18.4760   40.8190   14.0760 O.2   348  LEU348     -0.2718
     30  CB        16.5440   42.9120   12.6040 C.3   348  LEU348      0.0284
     31  CG        15.2090   43.1180   11.9140 C.3   348  LEU348      0.0019
     32  CD1       15.3150   44.1170   10.6690 C.3   348  LEU348      0.0001
     33  CD2       14.6090   41.7490   11.4730 C.3   348  LEU348      0.0001
     34  N         18.5050   42.7890   15.1890 N.am  349  PHE349     -0.1976
     35  CA        19.8630   42.5490   15.5820 C.3   349  PHE349      0.1639
     36  C         20.0670   42.4770   17.0570 C.2   349  PHE349      0.2290
     37  O         21.1610   42.8010   17.5240 O.2   349  PHE349     -0.2864
     38  CB        20.7670   43.6340   14.9660 C.3   349  PHE349      0.0560
     39  CG        20.7790   43.5870   13.4430 C.ar  349  PHE349     -0.0200
     40  CD1       21.4550   42.5900   12.7870 C.ar  349  PHE349     -0.0042
     41  CD2       20.0440   44.4890   12.7020 C.ar  349  PHE349     -0.0042
     42  CE1       21.4300   42.5250   11.3570 C.ar  349  PHE349     -0.0003
     43  CE2       20.0390   44.4570   11.3070 C.ar  349  PHE349     -0.0003
     44  CZ        20.7490   43.4650   10.6440 C.ar  349  PHE349     -0.0000
     45  N         25.6170   43.5820   -0.2630 N.3   369  LEU369     -0.1245
     46  CA        25.4040   43.7530    1.1940 C.3   369  LEU369      0.1561
     47  C         26.1060   44.9930    1.7690 C.2   369  LEU369      0.2260
     48  O         25.8510   45.3960    2.8940 O.2   369  LEU369     -0.2867
     49  CB        25.8600   42.4940    1.9480 C.3   369  LEU369      0.0270
     50  CG        25.0770   41.2020    1.5660 C.3   369  LEU369      0.0019
     51  CD1       25.5530   40.0590    2.4030 C.3   369  LEU369      0.0001
     52  CD2       23.5780   41.3400    1.6830 C.3   369  LEU369      0.0001
     53  N         28.5100   47.3160    3.6910 N.3   371  ASP371     -0.1225
     54  CA        29.3930   47.1560    4.8410 C.3   371  ASP371      0.1805
     55  C         28.6660   46.5650    6.0550 C.2   371  ASP371      0.2597
     56  O         29.1990   46.5690    7.1930 O.2   371  ASP371     -0.2718
     57  CB        30.0330   48.5130    5.1740 C.3   371  ASP371      0.1424
     58  CG        30.9570   49.0010    4.0550 C.2   371  ASP371      0.3668
     59  OD1       31.8780   48.2750    3.6610 O.co2 371  ASP371     -0.2456
     60  OD2       30.7500   50.1010    3.5320 O.co2 371  ASP371     -0.2456
     61  N         27.4680   46.0330    5.8000 N.am  372  LEU372     -0.1979
     62  CA        26.6690   45.3810    6.8410 C.3   372  LEU372      0.1596
     63  C         27.5080   44.3810    7.6430 C.2   372  LEU372      0.2287
     64  O         27.5700   44.4630    8.8880 O.2   372  LEU372     -0.2864
     65  CB        25.4190   44.7300    6.2570 C.3   372  LEU372      0.0297
     66  CG        24.5820   43.9400    7.2870 C.3   372  LEU372      0.0022
     67  CD1       24.2080   44.8210    8.5060 C.3   372  LEU372      0.0001
     68  CD2       23.3370   43.3540    6.6270 C.3   372  LEU372      0.0001
     69  N         30.2770   46.0540    9.7120 N.3   375  ILE375     -0.1245
     70  CA        29.7280   46.7640   10.8650 C.3   375  ILE375      0.1561
     71  C         29.2480   45.8330   11.9900 C.2   375  ILE375      0.2260
     72  O         29.5370   46.0760   13.1670 O.2   375  ILE375     -0.2867
     73  CB        28.5680   47.6620   10.3890 C.3   375  ILE375      0.0252
     74  CG1       29.1480   48.8920    9.7120 C.3   375  ILE375      0.0019
     75  CG2       27.6440   48.0910   11.4970 C.3   375  ILE375      0.0019
     76  CD1       29.8960   49.7800   10.7120 C.3   375  ILE375      0.0001
     77  N         22.3930   57.2110   11.6970 N.3   397  LEU397     -0.1245
     78  CA        23.4110   56.1710   11.6520 C.3   397  LEU397      0.1561
     79  C         23.7350   55.7450   13.0560 C.2   397  LEU397      0.2260
     80  O         23.8340   54.5520   13.3900 O.2   397  LEU397     -0.2867
     81  CB        24.6600   56.6560   10.8890 C.3   397  LEU397      0.0270
     82  CG        24.4670   57.4020    9.5240 C.3   397  LEU397      0.0019
     83  CD1       25.7770   57.9830    8.8680 C.3   397  LEU397      0.0001
     84  CD2       23.8270   56.4590    8.5280 C.3   397  LEU397      0.0001
     85  N         20.9640   53.6060   14.6140 N.3   400  PHE400     -0.1241
     86  CA        20.9530   52.2400   14.0790 C.3   400  PHE400      0.1605
     87  C         22.1190   51.4570   14.6580 C.2   400  PHE400      0.2264
     88  O         21.9880   50.2660   15.0560 O.2   400  PHE400     -0.2867
     89  CB        21.0330   52.2370   12.5650 C.3   400  PHE400      0.0534
     90  CG        19.6860   52.1470   11.8950 C.ar  400  PHE400     -0.0203
     91  CD1       19.2120   50.9160   11.4260 C.ar  400  PHE400     -0.0042
     92  CD2       18.9030   53.2880   11.7170 C.ar  400  PHE400     -0.0042
     93  CE1       17.9550   50.8320   10.7940 C.ar  400  PHE400     -0.0003
     94  CE2       17.6830   53.2330   11.0580 C.ar  400  PHE400     -0.0003
     95  CZ        17.1810   52.0040   10.6320 C.ar  400  PHE400     -0.0000
     96  N         22.3220   47.8810   16.9410 N.3   404  MET404     -0.1245
     97  CA        22.9350   46.6440   16.4760 C.3   404  MET404      0.1570
     98  C         23.9520   46.0310   17.4490 C.2   404  MET404      0.2261
     99  O         24.7490   45.1800   17.0800 O.2   404  MET404     -0.2867
    100  CB        23.5230   46.8200   15.0850 C.3   404  MET404      0.0387
    101  CG        22.4260   47.1510   14.0210 C.3   404  MET404      0.0595
    102  SD        23.0830   48.2070   12.6670 S.3   404  MET404     -0.1393
    103  CE        23.8110   46.9510   11.6150 C.3   404  MET404      0.0692
    104  N         21.8670   48.1300   -0.4560 N.3   453  GLY453     -0.1210
    105  CA        22.6540   47.7960    0.7100 C.3   453  GLY453      0.1956
    106  C         23.3850   48.9860    1.3450 C.2   453  GLY453      0.2611
    107  O         24.0290   48.8370    2.3740 O.2   453  GLY453     -0.2717
    108  N         23.3360   50.1550    0.7120 N.am  454  ARG454     -0.1979
    109  CA        24.0110   51.3430    1.2370 C.3   454  ARG454      0.1597
    110  C         22.9770   52.4290    1.5090 C.2   454  ARG454      0.2287
    111  O         23.2960   53.5730    1.8230 O.2   454  ARG454     -0.2864
    112  CB        25.1400   51.7630    0.2650 C.3   454  ARG454      0.0334
    113  CG        26.3480   50.8000    0.3260 C.3   454  ARG454      0.0492
    114  CD        27.3500   50.9930   -0.9000 C.3   454  ARG454      0.2205
    115  NE        28.4430   49.9850   -0.9070 N.pl3 454  ARG454     -0.0865
    116  CZ        29.4410   49.9650   -0.0070 C.cat 454  ARG454      0.5346
    117  NH1       29.5130   50.8840    0.9660 N.pl3 454  ARG454      0.1354
    118  NH2       30.3690   49.0190   -0.0420 N.pl3 454  ARG454      0.1354
    119  N         20.0880   52.0020    3.7670 N.3   456  THR456     -0.1218
    120  CA        19.2170   51.2880    4.7120 C.3   456  THR456      0.1862
    121  C         18.0210   52.1250    5.1520 C.2   456  THR456      0.2287
    122  O         16.9480   51.5600    5.4400 O.2   456  THR456     -0.2866
    123  CB        20.0350   50.8460    5.9230 C.3   456  THR456      0.1770
    124  OG1       21.0010   49.8840    5.4900 O.3   456  THR456     -0.2211
    125  CG2       19.1880   50.2180    6.9810 C.3   456  THR456      0.0375
    126  N         14.4100   51.6830    4.0300 N.3   459  ILE459     -0.1245
    127  CA        13.4500   50.6420    4.4880 C.3   459  ILE459      0.1561
    128  C         12.2650   51.1830    5.2830 C.2   459  ILE459      0.2260
    129  O         11.3680   50.4370    5.5990 O.2   459  ILE459     -0.2867
    130  CB        14.1100   49.4240    5.2200 C.3   459  ILE459      0.0252
    131  CG1       14.6470   49.8590    6.5850 C.3   459  ILE459      0.0019
    132  CG2       15.1640   48.7880    4.2980 C.3   459  ILE459      0.0019
    133  CD1       15.2980   48.6960    7.4380 C.3   459  ILE459      0.0001
    134  N         24.6490   60.0070    4.5980 N.3   498  ILE498     -0.1231
    135  CA        25.1200   59.2060    3.4740 C.3   498  ILE498      0.1692
    136  C         23.9560   58.3910    2.8630 C.2   498  ILE498      0.2592
    137  O         23.9000   58.2150    1.6600 O.2   498  ILE498     -0.2718
    138  CB        26.3720   58.3180    3.8920 C.3   498  ILE498      0.0266
    139  CG1       26.9820   57.5680    2.6980 C.3   498  ILE498      0.0019
    140  CG2       26.0190   57.3160    5.0250 C.3   498  ILE498      0.0020
    141  CD1       27.2850   58.4890    1.3320 C.3   498  ILE498      0.0001
    142  N         22.9920   57.9500    3.6730 N.am  499  TRP499     -0.1976
    143  CA        21.8420   57.2630    3.1390 C.3   499  TRP499      0.1640
    144  C         20.9590   58.1560    2.2800 C.2   499  TRP499      0.2290
    145  O         20.4130   57.6830    1.2700 O.2   499  TRP499     -0.2864
    146  CB        20.9820   56.6250    4.2480 C.3   499  TRP499      0.0576
    147  CG        21.7010   55.5310    5.0400 C.ar  499  TRP499      0.0006
    148  CD1       22.8290   54.8610    4.6790 C.ar  499  TRP499      0.0946
    149  CD2       21.3180   55.0250    6.3140 C.ar  499  TRP499      0.0152
    150  NE1       23.1670   53.9580    5.6460 N.ar  499  TRP499     -0.2442
    151  CE2       22.2470   54.0440    6.6630 C.ar  499  TRP499      0.0810
    152  CE3       20.2340   55.2840    7.1850 C.ar  499  TRP499      0.0012
    153  CZ2       22.1490   53.3180    7.8560 C.ar  499  TRP499      0.0191
    154  CZ3       20.1390   54.5670    8.3500 C.ar  499  TRP499      0.0001
    155  CH2       21.0870   53.6050    8.6790 C.ar  499  TRP499      0.0015
@<TRIPOS>BOND
     1   115   114    1
     2   115   116    2
     3   114   113    1
     4   104   105    1
     5    45    46    1
     6    14    13    1
     7   118   116    1
     8   116   117    1
     9   112   113    1
    10   112   109    1
    11   105   106    1
    12   108   109    1
    13   108   106   am
    14    13    10    1
    15    12    11    2
    16    11    10    1
    17    46    47    1
    18    46    49    1
    19   109   110    1
    20   145   144    2
    21   141   139    1
    22   106   107    2
    23   110   111    2
    24    50    52    1
    25    50    49    1
    26    50    51    1
    27   137   136    2
    28    47    48    2
    29    10     9    1
    30   144   143    1
    31   139   138    1
    32   136   135    1
    33   136   142   am
    34     9     3   am
    35   143   142    1
    36   143   146    1
    37   135   138    1
    38   135   134    1
    39    60    58   ar
    40    59    58   ar
    41    53    54    1
    42   119   120    1
    43     3     4    2
    44     3     2    1
    45     1     2    1
    46   138   140    1
    47   126   127    1
    48    58    57    1
    49   146   147    1
    50   132   130    1
    51   127   130    1
    52   127   128    1
    53   148   147   ar
    54   148   150   ar
    55     2     5    1
    56   120   121    1
    57   120   123    1
    58    54    57    1
    59    54    55    1
    60   147   149   ar
    61   121   122    2
    62   130   131    1
    63   128   129    2
    64   124   123    1
    65   150   151   ar
    66    61    55   am
    67    61    62    1
    68   123   125    1
    69     5     6    1
    70    55    56    2
    71    65    62    1
    72    65    66    1
    73   149   151   ar
    74   149   152   ar
    75   131   133    1
    76    68    66    1
    77   151   153   ar
    78    62    63    1
    79     7     6    1
    80   152   154   ar
    81     6     8    1
    82    66    67    1
    83    63    64    2
    84   153   155   ar
    85   154   155   ar
    86    84    82    1
    87    83    82    1
    88    82    81    1
    89    69    70    1
    90    74    73    1
    91    74    76    1
    92    73    70    1
    93    73    75    1
    94    95    93   ar
    95    95    94   ar
    96    44    43   ar
    97    44    42   ar
    98    32    31    1
    99    93    91   ar
   100    70    71    1
   101    81    78    1
   102    94    92   ar
   103    43    41   ar
   104    42    40   ar
   105    91    90   ar
   106    33    31    1
   107   103   102    1
   108    78    77    1
   109    78    79    1
   110    92    90   ar
   111    90    89    1
   112    31    30    1
   113    71    72    2
   114    89    86    1
   115    30    27    1
   116   102   101    1
   117    41    39   ar
   118    20    19    1
   119    40    39   ar
   120    19    16    1
   121    79    80    2
   122    39    38    1
   123    27    28    1
   124    27    26    1
   125    25    22    1
   126   101   100    1
   127    18    17    2
   128    29    28    2
   129    86    85    1
   130    86    87    1
   131    21    17   am
   132    21    22    1
   133    17    16    1
   134    22    23    1
   135    16    15    1
   136    28    34   am
   137    87    88    2
   138    38    35    1
   139   100    97    1
   140    34    35    1
   141    24    23    2
   142    35    36    1
   143    97    96    1
   144    97    98    1
   145    36    37    2
   146    99    98    2
