@<TRIPOS>MOLECULE
tmp/4do4A02.pdb
 131 124 0 0 0
SMALL
GASTEIGER

@<TRIPOS>ATOM
      1  N         57.1990   -8.5160    9.7600 N.3    16  TRP16      -0.1241
      2  CA        57.3280   -9.1120   11.0760 C.3    16  TRP16       0.1605
      3  C         56.2180  -10.0860   11.4740 C.2    16  TRP16       0.2264
      4  O         56.5100  -11.1890   11.9210 O.2    16  TRP16      -0.2867
      5  CB        57.3990   -8.0460   12.1800 C.3    16  TRP16       0.0550
      6  CG        57.5570   -8.6670   13.5460 C.ar   16  TRP16       0.0003
      7  CD1       56.6110   -8.7270   14.5200 C.ar   16  TRP16       0.0946
      8  CD2       58.6840   -9.4220   14.0390 C.ar   16  TRP16       0.0152
      9  NE1       57.0920   -9.4000   15.6180 N.ar   16  TRP16      -0.2442
     10  CE2       58.3690   -9.8350   15.3450 C.ar   16  TRP16       0.0810
     11  CE3       59.9540   -9.7350   13.5220 C.ar   16  TRP16       0.0012
     12  CZ2       59.2450  -10.5890   16.1170 C.ar   16  TRP16       0.0191
     13  CZ3       60.8220  -10.4360   14.2940 C.ar   16  TRP16       0.0001
     14  CH2       60.4730  -10.8820   15.5720 C.ar   16  TRP16       0.0015
     15  N         61.8540   -5.6990    8.9150 N.3    61  ASP61      -0.1225
     16  CA        61.8060   -5.6200   10.3920 C.3    61  ASP61       0.1805
     17  C         63.0750   -6.2390   11.0340 C.2    61  ASP61       0.2597
     18  O         64.1520   -6.1920   10.4160 O.2    61  ASP61      -0.2718
     19  CB        60.4860   -6.1850   10.9240 C.3    61  ASP61       0.1424
     20  CG        60.0710   -5.5580   12.2720 C.2    61  ASP61       0.3668
     21  OD1       60.3730   -6.1360   13.3280 O.co2  61  ASP61      -0.2456
     22  OD2       59.4020   -4.4970   12.2460 O.co2  61  ASP61      -0.2456
     23  N         62.9760   -6.7830   12.2490 N.am   62  ASP62      -0.1974
     24  CA        64.1220   -7.3120   12.9460 C.3    62  ASP62       0.1709
     25  C         64.7530   -8.4910   12.2020 C.2    62  ASP62       0.2293
     26  O         64.1680   -9.0160   11.2570 O.2    62  ASP62      -0.2864
     27  CB        63.6940   -7.7030   14.3540 C.3    62  ASP62       0.1436
     28  CG        64.8200   -7.7620   15.3840 C.2    62  ASP62       0.3671
     29  OD1       66.0310   -7.6570   15.0260 O.co2  62  ASP62      -0.2456
     30  OD2       64.4890   -7.9430   16.5890 O.co2  62  ASP62      -0.2456
     31  N         64.6480   -1.1450    9.7200 N.3   102  TYR102     -0.1241
     32  CA        64.4240   -1.3580   11.1360 C.3   102  TYR102      0.1605
     33  C         65.7460   -1.2280   11.8920 C.2   102  TYR102      0.2264
     34  O         66.7930   -1.6830   11.4630 O.2   102  TYR102     -0.2867
     35  CB        63.8250   -2.7590   11.3390 C.3   102  TYR102      0.0534
     36  CG        63.7830   -3.2580   12.7750 C.ar  102  TYR102     -0.0201
     37  CD1       62.5980   -3.2570   13.5050 C.ar  102  TYR102     -0.0009
     38  CD2       64.9360   -3.7390   13.4270 C.ar  102  TYR102     -0.0009
     39  CE1       62.5750   -3.7160   14.8120 C.ar  102  TYR102      0.0417
     40  CE2       64.9360   -4.1590   14.7400 C.ar  102  TYR102      0.0417
     41  CZ        63.7480   -4.1380   15.4720 C.ar  102  TYR102      0.1957
     42  OH        63.7910   -4.6010   16.7710 O.3   102  TYR102     -0.2866
     43  N         65.4290   -6.3590   19.6380 N.3   110  CYS110     -0.1221
     44  CA        64.6930   -7.2670   20.5200 C.3   110  CYS110      0.1808
     45  C         65.1430   -8.7170   20.3590 C.2   110  CYS110      0.2601
     46  O         65.1360   -9.4710   21.3340 O.2   110  CYS110     -0.2717
     47  CB        63.1880   -7.1400   20.2670 C.3   110  CYS110      0.0970
     48  SG        62.5620   -5.4800   20.7220 S.3   110  CYS110     -0.0800
     49  N         65.4850   -9.1140   19.1240 N.am  111  MET111     -0.1979
     50  CA        65.9400  -10.4830   18.8990 C.3   111  MET111      0.1605
     51  C         67.4490  -10.6670   19.0430 C.2   111  MET111      0.2287
     52  O         67.9780  -11.7390   18.7520 O.2   111  MET111     -0.2864
     53  CB        65.4930  -10.9860   17.5580 C.3   111  MET111      0.0413
     54  CG        63.9810  -11.1620   17.3630 C.3   111  MET111      0.0598
     55  SD        63.2640  -12.2600   18.5880 S.3   111  MET111     -0.1393
     56  CE        64.1000  -13.8240   18.2720 C.3   111  MET111      0.0692
     57  N         61.7010    2.2510   11.1960 N.3   137  LYS137     -0.1245
     58  CA        61.0300    1.8530   12.4120 C.3   137  LYS137      0.1561
     59  C         62.1410    1.6850   13.4520 C.2   137  LYS137      0.2260
     60  O         63.0450    0.8650   13.2660 O.2   137  LYS137     -0.2867
     61  CB        60.2150    0.5670   12.2330 C.3   137  LYS137      0.0271
     62  CG        59.6620   -0.0420   13.5290 C.3   137  LYS137      0.0035
     63  CD        58.7920   -1.2670   13.2570 C.3   137  LYS137      0.0206
     64  CE        58.4390   -2.0730   14.5260 C.3   137  LYS137      0.1093
     65  NZ        57.6290   -3.3040   14.1430 N.3   137  LYS137     -0.1314
     66  N         62.7270    0.5330   17.0630 N.3   139  ASP139     -0.1239
     67  CA        62.3060   -0.2640   18.2020 C.3   139  ASP139      0.1674
     68  C         63.0520    0.2080   19.4650 C.2   139  ASP139      0.2266
     69  O         64.0090    0.9860   19.3880 O.2   139  ASP139     -0.2867
     70  CB        62.5670   -1.7460   17.8700 C.3   139  ASP139      0.1410
     71  CG        61.6480   -2.7190   18.5860 C.2   139  ASP139      0.3668
     72  OD1       60.9570   -2.3240   19.5640 O.co2 139  ASP139     -0.2456
     73  OD2       61.6810   -3.9080   18.1700 O.co2 139  ASP139     -0.2456
     74  N         58.6950    3.4150   18.2520 N.3   171  SER171     -0.1217
     75  CA        58.1140    2.4450   19.1900 C.3   171  SER171      0.1889
     76  C         58.1600    2.9150   20.6360 C.2   171  SER171      0.2288
     77  O         57.6440    2.2550   21.5280 O.2   171  SER171     -0.2866
     78  CB        58.8420    1.1030   19.0440 C.3   171  SER171      0.2089
     79  OG        58.6930    0.5930   17.7250 O.3   171  SER171     -0.2183
     80  N         55.2770    2.5440   23.3760 N.3   174  ALA174     -0.1231
     81  CA        54.9390    1.1430   23.7220 C.3   174  ALA174      0.1694
     82  C         55.7920    0.5810   24.8490 C.2   174  ALA174      0.2592
     83  O         55.3480   -0.3290   25.5490 O.2   174  ALA174     -0.2718
     84  CB        55.0360    0.2260   22.5100 C.3   174  ALA174      0.0304
     85  N         57.0130    1.1070   25.0060 N.am  175  TYR175     -0.1976
     86  CA        57.9450    0.7040   26.0500 C.3   175  TYR175      0.1639
     87  C         57.7580    1.4690   27.3420 C.2   175  TYR175      0.2290
     88  O         58.3780    1.1480   28.3360 O.2   175  TYR175     -0.2864
     89  CB        59.3940    0.8050   25.5210 C.3   175  TYR175      0.0560
     90  CG        59.6600   -0.2750   24.5000 C.ar  175  TYR175     -0.0198
     91  CD1       60.0360   -1.5400   24.8980 C.ar  175  TYR175     -0.0009
     92  CD2       59.4660   -0.0460   23.1530 C.ar  175  TYR175     -0.0009
     93  CE1       60.2400   -2.5470   23.9640 C.ar  175  TYR175      0.0417
     94  CE2       59.6530   -1.0660   22.2010 C.ar  175  TYR175      0.0417
     95  CZ        60.0330   -2.3210   22.6330 C.ar  175  TYR175      0.1957
     96  OH        60.2300   -3.3960   21.7640 O.3   175  TYR175     -0.2866
     97  N         54.0440    3.3590   17.6520 N.3   196  ARG196     -0.1245
     98  CA        53.3860    2.1910   18.2140 C.3   196  ARG196      0.1563
     99  C         53.0760    2.4700   19.6800 C.2   196  ARG196      0.2260
    100  O         53.9670    2.5480   20.5000 O.2   196  ARG196     -0.2867
    101  CB        54.2860    0.9600   18.0550 C.3   196  ARG196      0.0307
    102  CG        54.2230    0.3190   16.6610 C.3   196  ARG196      0.0489
    103  CD        52.9960   -0.5710   16.3890 C.3   196  ARG196      0.2205
    104  NE        52.8210   -1.4310   17.5530 N.pl3 196  ARG196     -0.0865
    105  CZ        53.5880   -2.4760   17.8570 C.cat 196  ARG196      0.5346
    106  NH1       54.5250   -2.9070   17.0060 N.pl3 196  ARG196      0.1354
    107  NH2       53.4360   -3.0800   19.0380 N.pl3 196  ARG196      0.1354
    108  N         52.3240   -5.5580   20.8300 N.3   200  ASP200     -0.1239
    109  CA        52.4650   -6.1920   19.5440 C.3   200  ASP200      0.1674
    110  C         51.2000   -6.9920   19.2280 C.2   200  ASP200      0.2266
    111  O         50.7280   -7.7730   20.1090 O.2   200  ASP200     -0.2867
    112  CB        53.6370   -7.1600   19.6160 C.3   200  ASP200      0.1410
    113  CG        54.9930   -6.4850   19.7230 C.2   200  ASP200      0.3668
    114  OD1       55.0640   -5.2370   19.8930 O.co2 200  ASP200     -0.2456
    115  OD2       56.0040   -7.2460   19.6560 O.co2 200  ASP200     -0.2456
    116  N         49.2420   -1.3120   15.0970 N.3   235  ASP235     -0.1225
    117  CA        50.0300   -2.4400   14.5710 C.3   235  ASP235      0.1805
    118  C         49.4090   -3.0330   13.2840 C.2   235  ASP235      0.2597
    119  O         48.4340   -2.5280   12.7570 O.2   235  ASP235     -0.2718
    120  CB        50.3210   -3.4870   15.6570 C.3   235  ASP235      0.1424
    121  CG        51.6940   -4.1660   15.5060 C.2   235  ASP235      0.3668
    122  OD1       52.4350   -3.8760   14.5160 O.co2 235  ASP235     -0.2456
    123  OD2       52.0450   -4.9410   16.4240 O.co2 235  ASP235     -0.2456
    124  N         50.0590   -4.0870   12.7800 N.am  236  MET236     -0.1979
    125  CA        49.8620   -4.6560   11.4850 C.3   236  MET236      0.1605
    126  C         48.4880   -5.2790   11.3390 C.2   236  MET236      0.2287
    127  O         47.8630   -5.7530   12.3030 O.2   236  MET236     -0.2864
    128  CB        50.9410   -5.7090   11.2530 C.3   236  MET236      0.0413
    129  CG        52.3030   -5.1090   11.0030 C.3   236  MET236      0.0598
    130  SD        53.6280   -6.3400   11.1970 S.3   236  MET236     -0.1393
    131  CE        53.7330   -6.4890   12.9380 C.3   236  MET236      0.0692
@<TRIPOS>BOND
     1    15    16    1
     2    31    32    1
     3     1     2    1
     4    16    19    1
     5    16    17    1
     6    18    17    2
     7    19    20    1
     8   129   130    1
     9   129   128    1
    10    17    23   am
    11     2     3    1
    12     2     5    1
    13    32    35    1
    14    32    33    1
    15    57    58    1
    16   130   131    1
    17   128   125    1
    18    26    25    2
    19   126   125    1
    20   126   127    2
    21    35    36    1
    22    34    33    2
    23     3     4    2
    24   125   124    1
    25     5     6    1
    26    25    24    1
    27    61    58    1
    28    61    62    1
    29    22    20   ar
    30    23    24    1
    31    20    21   ar
    32    58    59    1
    33   119   118    2
    34    36    38   ar
    35    36    37   ar
    36   124   118   am
    37    24    27    1
    38    63    62    1
    39    63    64    1
    40    60    59    2
    41   118   117    1
    42    38    40   ar
    43    37    39   ar
    44    11     8   ar
    45    11    13   ar
    46     6     8   ar
    47     6     7   ar
    48     8    10   ar
    49    65    64    1
    50    13    14   ar
    51    27    28    1
    52   122   121   ar
    53     7     9   ar
    54   117   116    1
    55   117   120    1
    56    40    41   ar
    57    39    41   ar
    58    29    28   ar
    59    10     9   ar
    60    10    12   ar
    61    28    30   ar
    62    41    42    1
    63   121   120    1
    64   121   123   ar
    65    14    12   ar
    66   103   102    1
    67   103   104    1
    68   102   101    1
    69   106   105    1
    70    66    67    1
    71    54    53    1
    72    54    55    1
    73   104   105    2
    74    53    50    1
    75    97    98    1
    76    79    78    1
    77   105   107    1
    78    70    67    1
    79    70    71    1
    80   101    98    1
    81    73    71   ar
    82    67    68    1
    83    98    99    1
    84    74    75    1
    85    56    55    1
    86    71    72   ar
    87    52    51    2
    88    50    51    1
    89    50    49    1
    90    78    75    1
    91    49    45   am
    92    75    76    1
    93   110   109    1
    94   110   111    2
    95    69    68    2
    96   109   112    1
    97   109   108    1
    98   112   113    1
    99    43    44    1
   100   115   113   ar
   101    99   100    2
   102   113   114   ar
   103    47    44    1
   104    47    48    1
   105    45    44    1
   106    45    46    2
   107    76    77    2
   108    96    95    1
   109    94    95   ar
   110    94    92   ar
   111    84    81    1
   112    95    93   ar
   113    92    90   ar
   114    80    81    1
   115    81    82    1
   116    93    91   ar
   117    90    91   ar
   118    90    89    1
   119    82    85   am
   120    82    83    2
   121    85    86    1
   122    89    86    1
   123    86    87    1
   124    87    88    2
