@<TRIPOS>MOLECULE
tmp/4do5A02.pdb
 126 119 0 0 0
SMALL
GASTEIGER

@<TRIPOS>ATOM
      1  N         57.3500   -8.6190    9.7430 N.3    16  TRP16      -0.1241
      2  CA        57.4650   -9.2290   11.0560 C.3    16  TRP16       0.1605
      3  C         56.3610  -10.1880   11.4460 C.2    16  TRP16       0.2264
      4  O         56.6390  -11.3010   11.8980 O.2    16  TRP16      -0.2867
      5  CB        57.5770   -8.1660   12.1410 C.3    16  TRP16       0.0550
      6  CG        57.7230   -8.7970   13.4870 C.ar   16  TRP16       0.0003
      7  CD1       56.7660   -8.8690   14.4510 C.ar   16  TRP16       0.0946
      8  CD2       58.8660   -9.5200   13.9900 C.ar   16  TRP16       0.0152
      9  NE1       57.2550   -9.5520   15.5430 N.ar   16  TRP16      -0.2442
     10  CE2       58.5300   -9.9800   15.2620 C.ar   16  TRP16       0.0810
     11  CE3       60.1450   -9.8170   13.4740 C.ar   16  TRP16       0.0012
     12  CZ2       59.4090  -10.7100   16.0330 C.ar   16  TRP16       0.0191
     13  CZ3       61.0180  -10.5590   14.2560 C.ar   16  TRP16       0.0001
     14  CH2       60.6480  -10.9950   15.5060 C.ar   16  TRP16       0.0015
     15  N         62.0570   -5.8270    8.9040 N.3    61  ASP61      -0.1225
     16  CA        61.9810   -5.7390   10.3700 C.3    61  ASP61       0.1805
     17  C         63.2320   -6.3700   10.9940 C.2    61  ASP61       0.2597
     18  O         64.3250   -6.2890   10.4220 O.2    61  ASP61      -0.2718
     19  CB        60.6700   -6.3160   10.8840 C.3    61  ASP61       0.1424
     20  CG        60.2190   -5.6900   12.1940 C.2    61  ASP61       0.3668
     21  OD1       60.5340   -6.2780   13.2490 O.co2  61  ASP61      -0.2456
     22  OD2       59.5320   -4.6500   12.1470 O.co2  61  ASP61      -0.2456
     23  N         63.1020   -6.9630   12.1610 N.am   62  ASP62      -0.1974
     24  CA        64.2680   -7.4180   12.9010 C.3    62  ASP62       0.1709
     25  C         64.9120   -8.5880   12.1340 C.2    62  ASP62       0.2293
     26  O         64.3200   -9.1940   11.2440 O.2    62  ASP62      -0.2864
     27  CB        63.8500   -7.8300   14.3300 C.3    62  ASP62       0.1436
     28  CG        64.9870   -7.8650   15.3670 C.2    62  ASP62       0.3671
     29  OD1       66.2140   -7.7520   15.0430 O.co2  62  ASP62      -0.2456
     30  OD2       64.5980   -8.0070   16.5640 O.co2  62  ASP62      -0.2456
     31  N         64.8010   -1.3160    9.7290 N.3   102  TYR102     -0.1241
     32  CA        64.5430   -1.4870   11.1400 C.3   102  TYR102      0.1605
     33  C         65.8470   -1.3320   11.8710 C.2   102  TYR102      0.2264
     34  O         66.9080   -1.7940   11.4200 O.2   102  TYR102     -0.2867
     35  CB        63.9520   -2.8950   11.3520 C.3   102  TYR102      0.0534
     36  CG        63.9230   -3.3700   12.7940 C.ar  102  TYR102     -0.0201
     37  CD1       62.7500   -3.3290   13.5410 C.ar  102  TYR102     -0.0009
     38  CD2       65.0350   -3.9000   13.3780 C.ar  102  TYR102     -0.0009
     39  CE1       62.7030   -3.7800   14.8500 C.ar  102  TYR102      0.0417
     40  CE2       65.0250   -4.3240   14.6930 C.ar  102  TYR102      0.0417
     41  CZ        63.8480   -4.2620   15.4410 C.ar  102  TYR102      0.1957
     42  OH        63.8790   -4.6940   16.7820 O.3   102  TYR102     -0.2866
     43  N         65.5900   -6.4240   19.6310 N.3   110  CYS110     -0.1221
     44  CA        64.8500   -7.3420   20.4930 C.3   110  CYS110      0.1808
     45  C         65.2790   -8.8080   20.3370 C.2   110  CYS110      0.2601
     46  O         65.2510   -9.5740   21.3130 O.2   110  CYS110     -0.2717
     47  CB        63.3440   -7.1920   20.2570 C.3   110  CYS110      0.0970
     48  SG        62.7060   -5.5270   20.6730 S.3   110  CYS110     -0.0800
     49  N         65.6600   -9.2080   19.1190 N.am  111  MET111     -0.1979
     50  CA        66.0950  -10.5780   18.8510 C.3   111  MET111      0.1605
     51  C         67.6200  -10.7480   19.0170 C.2   111  MET111      0.2287
     52  O         68.1530  -11.8140   18.7390 O.2   111  MET111     -0.2864
     53  CB        65.6370  -11.0620   17.4760 C.3   111  MET111      0.0413
     54  CG        64.1210  -11.2230   17.3520 C.3   111  MET111      0.0598
     55  SD        63.4410  -12.3400   18.5910 S.3   111  MET111     -0.1393
     56  CE        64.3080  -13.8810   18.2340 C.3   111  MET111      0.0692
     57  N         61.8260    2.0450   11.1490 N.3   137  LYS137     -0.1245
     58  CA        61.1410    1.6740   12.3650 C.3   137  LYS137      0.1561
     59  C         62.2290    1.5240   13.4180 C.2   137  LYS137      0.2260
     60  O         63.1400    0.7110   13.2470 O.2   137  LYS137     -0.2867
     61  CB        60.3750    0.3600   12.1910 C.3   137  LYS137      0.0271
     62  CG        59.8000   -0.2300   13.4790 C.3   137  LYS137      0.0035
     63  CD        58.8770   -1.4030   13.1370 C.3   137  LYS137      0.0206
     64  CE        58.5250   -2.2440   14.3770 C.3   137  LYS137      0.1093
     65  NZ        57.7130   -3.4310   13.9390 N.3   137  LYS137     -0.1314
     66  N         62.9030    0.4070   17.0530 N.3   139  ASP139     -0.1239
     67  CA        62.4210   -0.3950   18.1720 C.3   139  ASP139      0.1674
     68  C         63.1500    0.0660   19.4600 C.2   139  ASP139      0.2266
     69  O         64.1270    0.8210   19.4030 O.2   139  ASP139     -0.2867
     70  CB        62.6670   -1.8800   17.8430 C.3   139  ASP139      0.1410
     71  CG        61.6560   -2.8110   18.4760 C.2   139  ASP139      0.3668
     72  OD1       60.8750   -2.3800   19.3820 O.co2 139  ASP139     -0.2456
     73  OD2       61.6760   -3.9910   18.0660 O.co2 139  ASP139     -0.2456
     74  N         58.8460    3.3270   18.2040 N.3   171  SER171     -0.1217
     75  CA        58.2630    2.4010   19.1830 C.3   171  SER171      0.1889
     76  C         58.3120    2.9150   20.6160 C.2   171  SER171      0.2288
     77  O         57.8080    2.2690   21.5190 O.2   171  SER171     -0.2866
     78  CB        58.9900    1.0590   19.1060 C.3   171  SER171      0.2089
     79  OG        58.7660    0.4660   17.8340 O.3   171  SER171     -0.2183
     80  N         57.1720    1.1180   24.9240 N.3   175  TYR175     -0.1241
     81  CA        58.1100    0.7000   25.9670 C.3   175  TYR175      0.1605
     82  C         57.9310    1.4610   27.2660 C.2   175  TYR175      0.2264
     83  O         58.5770    1.1280   28.2630 O.2   175  TYR175     -0.2867
     84  CB        59.5340    0.7940   25.4360 C.3   175  TYR175      0.0534
     85  CG        59.8100   -0.3030   24.4310 C.ar  175  TYR175     -0.0201
     86  CD1       60.3210   -1.5280   24.8280 C.ar  175  TYR175     -0.0009
     87  CD2       59.4910   -0.1370   23.0950 C.ar  175  TYR175     -0.0009
     88  CE1       60.5400   -2.5600   23.8910 C.ar  175  TYR175      0.0417
     89  CE2       59.6990   -1.1600   22.1680 C.ar  175  TYR175      0.0417
     90  CZ        60.2080   -2.3660   22.5800 C.ar  175  TYR175      0.1957
     91  OH        60.4270   -3.4290   21.7210 O.3   175  TYR175     -0.2866
     92  N         54.2400    3.2370   17.6150 N.3   196  ARG196     -0.1245
     93  CA        53.5970    2.0750   18.2060 C.3   196  ARG196      0.1563
     94  C         53.3040    2.3750   19.6570 C.2   196  ARG196      0.2260
     95  O         54.2300    2.4950   20.4450 O.2   196  ARG196     -0.2867
     96  CB        54.4770    0.8450   18.0570 C.3   196  ARG196      0.0307
     97  CG        54.4500    0.2020   16.6510 C.3   196  ARG196      0.0489
     98  CD        53.2380   -0.7190   16.4160 C.3   196  ARG196      0.2205
     99  NE        53.1030   -1.5690   17.5870 N.pl3 196  ARG196     -0.0865
    100  CZ        53.9130   -2.5730   17.8970 C.cat 196  ARG196      0.5346
    101  NH1       54.8370   -2.9970   17.0570 N.pl3 196  ARG196      0.1354
    102  NH2       53.7960   -3.1610   19.0620 N.pl3 196  ARG196      0.1354
    103  N         52.5020   -5.7210   20.8080 N.3   200  ASP200     -0.1239
    104  CA        52.6180   -6.3660   19.5200 C.3   200  ASP200      0.1674
    105  C         51.3330   -7.1260   19.2210 C.2   200  ASP200      0.2266
    106  O         50.8390   -7.8790   20.0790 O.2   200  ASP200     -0.2867
    107  CB        53.7480   -7.4080   19.5690 C.3   200  ASP200      0.1410
    108  CG        55.1330   -6.8110   19.6630 C.2   200  ASP200      0.3668
    109  OD1       55.2850   -5.6050   19.9050 O.co2 200  ASP200     -0.2456
    110  OD2       56.0890   -7.5900   19.4840 O.co2 200  ASP200     -0.2456
    111  N         49.3990   -1.3920   15.0810 N.3   235  ASP235     -0.1225
    112  CA        50.2300   -2.4960   14.6020 C.3   235  ASP235      0.1805
    113  C         49.6210   -3.1210   13.3480 C.2   235  ASP235      0.2597
    114  O         48.6350   -2.6310   12.8060 O.2   235  ASP235     -0.2718
    115  CB        50.5440   -3.4940   15.7300 C.3   235  ASP235      0.1424
    116  CG        51.8890   -4.2210   15.5430 C.2   235  ASP235      0.3668
    117  OD1       52.6010   -3.9940   14.5280 O.co2 235  ASP235     -0.2456
    118  OD2       52.2130   -5.0310   16.4220 O.co2 235  ASP235     -0.2456
    119  N         50.2680   -4.1680   12.8550 N.am  236  MET236     -0.1979
    120  CA        50.0340   -4.6980   11.5240 C.3   236  MET236      0.1605
    121  C         48.6630   -5.3260   11.3450 C.2   236  MET236      0.2287
    122  O         48.0390   -5.8050   12.3040 O.2   236  MET236     -0.2864
    123  CB        51.1020   -5.7650   11.2600 C.3   236  MET236      0.0413
    124  CG        52.4920   -5.2070   11.0270 C.3   236  MET236      0.0598
    125  SD        53.8190   -6.4310   11.2270 S.3   236  MET236     -0.1393
    126  CE        53.9640   -6.5700   13.0090 C.3   236  MET236      0.0692
@<TRIPOS>BOND
     1    15    16    1
     2    31    32    1
     3     1     2    1
     4    16    19    1
     5    16    17    1
     6    18    17    2
     7    19    20    1
     8    17    23   am
     9   124   125    1
    10   124   123    1
    11     2     3    1
    12     2     5    1
    13    32    35    1
    14    32    33    1
    15    57    58    1
    16   125   126    1
    17    26    25    2
    18   123   120    1
    19   121   120    1
    20   121   122    2
    21    35    36    1
    22    34    33    2
    23     3     4    2
    24   120   119    1
    25    25    24    1
    26     5     6    1
    27    22    20   ar
    28    23    24    1
    29    61    58    1
    30    61    62    1
    31    20    21   ar
    32    58    59    1
    33    36    38   ar
    34    36    37   ar
    35   114   113    2
    36   119   113   am
    37    24    27    1
    38    63    62    1
    39    63    64    1
    40    60    59    2
    41   113   112    1
    42    38    40   ar
    43    11     8   ar
    44    11    13   ar
    45     6     8   ar
    46     6     7   ar
    47    37    39   ar
    48    65    64    1
    49     8    10   ar
    50    13    14   ar
    51    27    28    1
    52     7     9   ar
    53   117   116   ar
    54   112   111    1
    55   112   115    1
    56    40    41   ar
    57    39    41   ar
    58    29    28   ar
    59    10     9   ar
    60    10    12   ar
    61    28    30   ar
    62    41    42    1
    63    14    12   ar
    64   116   115    1
    65   116   118   ar
    66    98    97    1
    67    98    99    1
    68    97    96    1
    69    66    67    1
    70   101   100    1
    71    54    53    1
    72    54    55    1
    73    53    50    1
    74    99   100    2
    75    92    93    1
    76    79    78    1
    77    70    67    1
    78    70    71    1
    79   100   102    1
    80    96    93    1
    81    73    71   ar
    82    67    68    1
    83    74    75    1
    84    93    94    1
    85    56    55    1
    86    71    72   ar
    87    52    51    2
    88    50    51    1
    89    50    49    1
    90    78    75    1
    91    49    45   am
    92    75    76    1
    93   105   104    1
    94   105   106    2
    95    69    68    2
    96   110   108   ar
    97   104   107    1
    98   104   103    1
    99   107   108    1
   100    43    44    1
   101    94    95    2
   102   108   109   ar
   103    47    44    1
   104    47    48    1
   105    45    44    1
   106    45    46    2
   107    76    77    2
   108    91    90    1
   109    89    90   ar
   110    89    87   ar
   111    90    88   ar
   112    87    85   ar
   113    88    86   ar
   114    85    86   ar
   115    85    84    1
   116    80    81    1
   117    84    81    1
   118    81    82    1
   119    82    83    2
