@<TRIPOS>MOLECULE
tmp/4do6B03.pdb
 92 85 0 0 0
SMALL
GASTEIGER

@<TRIPOS>ATOM
      1  N         41.4550  -22.8170   10.2230 N.3   247  GLU247     -0.1245
      2  CA        42.3250  -23.6060   11.1070 C.3   247  GLU247      0.1567
      3  C         41.6020  -23.9710   12.4050 C.2   247  GLU247      0.2260
      4  O         41.7040  -25.0940   12.8980 O.2   247  GLU247     -0.2867
      5  CB        43.6240  -22.8720   11.4370 C.3   247  GLU247      0.0388
      6  CG        44.5720  -22.7450   10.2730 C.3   247  GLU247      0.1160
      7  CD        45.1530  -24.0740    9.8180 C.2   247  GLU247      0.3649
      8  OE1       45.4380  -24.1990    8.6130 O.co2 247  GLU247     -0.2457
      9  OE2       45.3640  -24.9630   10.6790 O.co2 247  GLU247     -0.2457
     10  N         38.9070  -26.7170   11.7770 N.3   250  ARG250     -0.1245
     11  CA        39.5560  -28.0210   11.7110 C.3   250  ARG250      0.1563
     12  C         40.0170  -28.4570   13.0980 C.2   250  ARG250      0.2260
     13  O         39.9530  -29.6460   13.4330 O.2   250  ARG250     -0.2867
     14  CB        40.7290  -28.0000   10.7430 C.3   250  ARG250      0.0307
     15  CG        40.2900  -27.9860    9.2960 C.3   250  ARG250      0.0489
     16  CD        41.4440  -28.1020    8.3540 C.3   250  ARG250      0.2205
     17  NE        40.9380  -28.1070    6.9780 N.pl3 250  ARG250     -0.0865
     18  CZ        41.5190  -27.4840    5.9530 C.cat 250  ARG250      0.5346
     19  NH1       42.6470  -26.8070    6.1020 N.pl3 250  ARG250      0.1354
     20  NH2       40.9500  -27.5320    4.7580 N.pl3 250  ARG250      0.1354
     21  N         47.4820  -38.9080    7.7430 N.3   353  ASP353     -0.1239
     22  CA        47.0940  -37.5400    8.1140 C.3   353  ASP353      0.1674
     23  C         45.6080  -37.4110    7.8010 C.2   353  ASP353      0.2266
     24  O         45.1750  -37.5870    6.6760 O.2   353  ASP353     -0.2867
     25  CB        47.9320  -36.5180    7.3280 C.3   353  ASP353      0.1410
     26  CG        47.6150  -35.0680    7.6900 C.2   353  ASP353      0.3668
     27  OD1       46.4350  -34.6790    7.6880 O.co2 353  ASP353     -0.2456
     28  OD2       48.5680  -34.3020    7.9420 O.co2 353  ASP353     -0.2456
     29  N         43.4390  -34.9390    7.6780 N.3   355  TYR355     -0.1227
     30  CA        42.9660  -33.8680    6.8030 C.3   355  TYR355      0.1736
     31  C         43.5540  -33.9070    5.3830 C.2   355  TYR355      0.2596
     32  O         42.8650  -33.5420    4.4350 O.2   355  TYR355     -0.2718
     33  CB        43.1860  -32.4980    7.4460 C.3   355  TYR355      0.0548
     34  CG        42.1590  -32.1640    8.5090 C.ar  355  TYR355     -0.0200
     35  CD1       40.8010  -32.1150    8.1940 C.ar  355  TYR355     -0.0009
     36  CD2       42.5400  -31.9170    9.8260 C.ar  355  TYR355     -0.0009
     37  CE1       39.8520  -31.8220    9.1410 C.ar  355  TYR355      0.0417
     38  CE2       41.5970  -31.6170   10.7890 C.ar  355  TYR355      0.0417
     39  CZ        40.2480  -31.5610   10.4330 C.ar  355  TYR355      0.1957
     40  OH        39.2960  -31.2560   11.3670 O.3   355  TYR355     -0.2866
     41  N         44.8040  -34.3350    5.2310 N.am  356  SER356     -0.1952
     42  CA        45.4470  -34.3850    3.9040 C.3   356  SER356      0.1924
     43  C         45.3190  -35.7510    3.2080 C.2   356  SER356      0.2314
     44  O         45.3910  -35.8390    1.9750 O.2   356  SER356     -0.2863
     45  CB        46.9230  -34.0100    4.0210 C.3   356  SER356      0.2116
     46  OG        47.7010  -35.0740    4.5360 O.3   356  SER356     -0.2180
     47  N         47.5230  -38.0130    3.4630 N.3   358  ASP358     -0.1239
     48  CA        48.8930  -38.4820    3.2370 C.3   358  ASP358      0.1674
     49  C         49.3320  -39.5550    4.2300 C.2   358  ASP358      0.2266
     50  O         49.0000  -39.5020    5.4190 O.2   358  ASP358     -0.2867
     51  CB        49.8740  -37.3130    3.2990 C.3   358  ASP358      0.1410
     52  CG        49.6520  -36.2960    2.1820 C.2   358  ASP358      0.3668
     53  OD1       48.8990  -36.5900    1.2240 O.co2 358  ASP358     -0.2456
     54  OD2       50.2300  -35.1980    2.2720 O.co2 358  ASP358     -0.2456
     55  N         54.1720  -29.7810   10.5680 N.3   372  ILE372     -0.1245
     56  CA        53.9910  -28.3360   10.4360 C.3   372  ILE372      0.1561
     57  C         52.5850  -27.9900   10.8780 C.2   372  ILE372      0.2260
     58  O         51.5990  -28.4430   10.2750 O.2   372  ILE372     -0.2867
     59  CB        54.2320  -27.8520    8.9950 C.3   372  ILE372      0.0252
     60  CG1       55.6580  -28.2100    8.5510 C.3   372  ILE372      0.0019
     61  CG2       54.0110  -26.3520    8.9000 C.3   372  ILE372      0.0019
     62  CD1       56.0010  -27.7610    7.1350 C.3   372  ILE372      0.0001
     63  N         49.8160  -24.9990   11.9690 N.3   374  ASN374     -0.1240
     64  CA        49.4550  -23.6010   11.8490 C.3   374  ASN374      0.1653
     65  C         48.8980  -23.0550   13.1600 C.2   374  ASN374      0.2266
     66  O         48.3790  -23.8160   13.9880 O.2   374  ASN374     -0.2867
     67  CB        48.4590  -23.4110   10.6950 C.3   374  ASN374      0.1155
     68  CG        49.0930  -23.6710    9.3390 C.2   374  ASN374      0.2627
     69  OD1       50.2980  -23.4850    9.1640 O.2   374  ASN374     -0.2716
     70  ND2       48.2880  -24.1230    8.3760 N.am  374  ASN374     -0.0877
     71  N         45.6630  -27.5810   13.9010 N.3   378  VAL378     -0.1231
     72  CA        46.0920  -28.9270   14.2400 C.3   378  VAL378      0.1692
     73  C         46.6980  -29.6630   13.0600 C.2   378  VAL378      0.2592
     74  O         46.5000  -29.2930   11.8920 O.2   378  VAL378     -0.2718
     75  CB        44.9190  -29.7820   14.7410 C.3   378  VAL378      0.0266
     76  CG1       44.3640  -29.2210   16.0540 C.3   378  VAL378      0.0020
     77  CG2       43.8180  -29.9070   13.6520 C.3   378  VAL378      0.0020
     78  N         47.4320  -30.7110   13.4130 N.am  379  VAL379     -0.1966
     79  CA        47.7390  -31.8190   12.5310 C.3   379  VAL379      0.1727
     80  C         47.2050  -33.0490   13.2580 C.2   379  VAL379      0.2616
     81  O         47.4250  -33.2120   14.4560 O.2   379  VAL379     -0.2715
     82  CB        49.2460  -31.9420   12.2470 C.3   379  VAL379      0.0290
     83  CG1       49.5700  -33.2420   11.4930 C.3   379  VAL379      0.0023
     84  CG2       49.7340  -30.7130   11.4540 C.3   379  VAL379      0.0023
     85  N         46.4630  -33.8850   12.5470 N.am  380  MET380     -0.1977
     86  CA        45.8970  -35.0920   13.1470 C.3   380  MET380      0.1605
     87  C         46.3300  -36.3350   12.3860 C.2   380  MET380      0.2287
     88  O         46.2720  -36.3650   11.1640 O.2   380  MET380     -0.2864
     89  CB        44.3760  -35.0090   13.1680 C.3   380  MET380      0.0413
     90  CG        43.7270  -36.1310   13.8990 C.3   380  MET380      0.0598
     91  SD        41.9500  -35.9370   13.9330 S.3   380  MET380     -0.1393
     92  CE        41.5700  -37.2120   15.1690 C.3   380  MET380      0.0692
@<TRIPOS>BOND
     1    53    52   ar
     2    44    43    2
     3    52    54   ar
     4    52    51    1
     5    43    42    1
     6    48    51    1
     7    48    47    1
     8    48    49    1
     9    42    45    1
    10    42    41    1
    11    45    46    1
    12    49    50    2
    13    32    31    2
    14    20    18    1
    15    41    31   am
    16    31    30    1
    17    18    19    1
    18    18    17    2
    19    24    23    2
    20    30    33    1
    21    30    29    1
    22    17    16    1
    23    62    60    1
    24    25    26    1
    25    25    22    1
    26    33    34    1
    27    27    26   ar
    28    26    28   ar
    29    21    22    1
    30    23    22    1
    31    35    34   ar
    32    35    37   ar
    33    16    15    1
    34    70    68   am
    35    34    36   ar
    36    60    59    1
    37     8     7   ar
    38    61    59    1
    39    59    56    1
    40    37    39   ar
    41    69    68    2
    42    15    14    1
    43    68    67    1
    44     7     6    1
    45     7     9   ar
    46    36    38   ar
    47     1     2    1
    48     6     5    1
    49    58    57    2
    50    39    38   ar
    51    39    40    1
    52    56    55    1
    53    56    57    1
    54    67    64    1
    55    14    11    1
    56     2     5    1
    57     2     3    1
    58    88    87    2
    59    84    82    1
    60    83    82    1
    61    11    10    1
    62    11    12    1
    63    64    63    1
    64    64    65    1
    65    74    73    2
    66    82    79    1
    67    87    86    1
    68     3     4    2
    69    79    80    1
    70    79    78    1
    71    85    86    1
    72    85    80   am
    73    73    78   am
    74    73    72    1
    75    12    13    2
    76    86    89    1
    77    65    66    2
    78    89    90    1
    79    80    81    2
    80    77    75    1
    81    90    91    1
    82    71    72    1
    83    91    92    1
    84    72    75    1
    85    75    76    1
