@<TRIPOS>MOLECULE
tmp/4do6B01.pdb
 83 80 0 0 0
SMALL
GASTEIGER

@<TRIPOS>ATOM
      1  N         23.9590  -44.7040   30.3700 N.3     1  LEU1       -0.1231
      2  CA        22.5480  -45.1820   30.5660 C.3     1  LEU1        0.1693
      3  C         22.3490  -46.4400   29.7230 C.2     1  LEU1        0.2592
      4  O         22.5920  -46.4280   28.5080 O.2     1  LEU1       -0.2718
      5  CB        21.5440  -44.0820   30.1820 C.3     1  LEU1        0.0284
      6  CG        20.0430  -44.4010   30.1170 C.3     1  LEU1        0.0019
      7  CD1       19.5520  -44.9440   31.4580 C.3     1  LEU1        0.0001
      8  CD2       19.2340  -43.1610   29.7100 C.3     1  LEU1        0.0001
      9  N         21.9150  -47.5230   30.3710 N.am    2  ASP2       -0.1960
     10  CA        21.8080  -48.8440   29.7370 C.3     2  ASP2        0.1840
     11  C         20.4900  -49.0400   28.9770 C.2     2  ASP2        0.2622
     12  O         19.7230  -49.9530   29.2780 O.2     2  ASP2       -0.2715
     13  CB        21.9650  -49.9420   30.8110 C.3     2  ASP2        0.1450
     14  CG        22.0600  -51.3510   30.2230 C.2     2  ASP2        0.3671
     15  OD1       22.5360  -51.5090   29.0770 O.co2   2  ASP2       -0.2456
     16  OD2       21.6670  -52.3060   30.9250 O.co2   2  ASP2       -0.2456
     17  N         20.2380  -48.1960   27.9800 N.am    3  ASN3       -0.1958
     18  CA        19.0040  -48.2600   27.1870 C.3     3  ASN3        0.1819
     19  C         19.2430  -48.6900   25.7320 C.2     3  ASN3        0.2621
     20  O         18.3630  -48.5310   24.8870 O.2     3  ASN3       -0.2715
     21  CB        18.2700  -46.9140   27.2130 C.3     3  ASN3        0.1195
     22  CG        19.1090  -45.7730   26.6400 C.2     3  ASN3        0.2630
     23  OD1       20.2400  -45.9870   26.1950 O.2     3  ASN3       -0.2716
     24  ND2       18.5540  -44.5620   26.6470 N.am    3  ASN3       -0.0877
     25  N         20.4350  -49.2120   25.4510 N.am    4  GLY4       -0.1954
     26  CA        20.7780  -49.6870   24.1160 C.3     4  GLY4        0.1869
     27  C         21.2280  -48.6010   23.1460 C.2     4  GLY4        0.2309
     28  O         21.6270  -48.9060   22.0220 O.2     4  GLY4       -0.2863
     29  N         25.8310  -46.1420   21.7350 N.3     7  GLN7       -0.1245
     30  CA        27.0210  -46.9550   21.9590 C.3     7  GLN7        0.1566
     31  C         28.2570  -46.2780   21.3670 C.2     7  GLN7        0.2260
     32  O         29.3830  -46.6180   21.7170 O.2     7  GLN7       -0.2867
     33  CB        26.8420  -48.3550   21.3640 C.3     7  GLN7        0.0367
     34  CG        25.6990  -49.1400   22.0080 C.3     7  GLN7        0.0905
     35  CD        25.8230  -49.1690   23.5170 C.2     7  GLN7        0.2608
     36  OE1       25.0170  -48.5800   24.2340 O.2     7  GLN7       -0.2717
     37  NE2       26.8590  -49.8260   24.0040 N.am    7  GLN7       -0.0878
     38  N         11.0880  -41.9370   31.3630 N.3   159  LEU159     -0.1231
     39  CA        11.3980  -42.2990   29.9810 C.3   159  LEU159      0.1693
     40  C         11.4630  -43.8130   29.8260 C.2   159  LEU159      0.2592
     41  O         10.9030  -44.3850   28.8830 O.2   159  LEU159     -0.2718
     42  CB        12.7270  -41.6680   29.5400 C.3   159  LEU159      0.0284
     43  CG        12.7530  -40.1480   29.4020 C.3   159  LEU159      0.0019
     44  CD1       14.1960  -39.6540   29.2020 C.3   159  LEU159      0.0001
     45  CD2       11.8380  -39.6610   28.2510 C.3   159  LEU159      0.0001
     46  N         12.1310  -44.4680   30.7740 N.am  160  ASN160     -0.1974
     47  CA        12.2470  -45.9200   30.7340 C.3   160  ASN160      0.1688
     48  C         10.8690  -46.5810   30.7280 C.2   160  ASN160      0.2292
     49  O         10.6010  -47.4980   29.9470 O.2   160  ASN160     -0.2864
     50  CB        13.0790  -46.4310   31.9100 C.3   160  ASN160      0.1181
     51  CG        13.3390  -47.9020   31.8120 C.2   160  ASN160      0.2629
     52  OD1       12.5220  -48.7200   32.2490 O.2   160  ASN160     -0.2716
     53  ND2       14.4700  -48.2580   31.2060 N.am  160  ASN160     -0.0877
     54  N          8.6010  -47.3560   27.5890 N.3   163  GLY163     -0.1210
     55  CA         8.9500  -48.4410   26.6900 C.3   163  GLY163      0.1956
     56  C          9.6120  -48.0150   25.3910 C.2   163  GLY163      0.2612
     57  O         10.0910  -48.8730   24.6500 O.2   163  GLY163     -0.2717
     58  N          9.6440  -46.7120   25.1020 N.am  164  ARG164     -0.1966
     59  CA        10.3160  -46.2060   23.9110 C.3   164  ARG164      0.1714
     60  C         11.7660  -45.8190   24.2390 C.2   164  ARG164      0.2458
     61  O         11.9950  -45.0190   25.1420 O.2   164  ARG164     -0.2730
     62  CB         9.5880  -44.9860   23.3330 C.3   164  ARG164      0.0347
     63  CG        10.1850  -44.5190   22.0030 C.3   164  ARG164      0.0492
     64  CD         9.4940  -43.3040   21.4090 C.3   164  ARG164      0.2205
     65  NE        10.0810  -42.9720   20.1070 N.pl3 164  ARG164     -0.0865
     66  CZ         9.8320  -43.6270   18.9730 C.cat 164  ARG164      0.5346
     67  NH1        8.9710  -44.6460   18.9420 N.pl3 164  ARG164      0.1354
     68  NH2       10.4360  -43.2550   17.8520 N.pl3 164  ARG164      0.1354
     69  N         12.7440  -46.3820   23.5030 N.am  165  PRO165     -0.2716
     70  CA        14.1300  -45.9180   23.6720 C.3   165  PRO165      0.1536
     71  C         14.2700  -44.4440   23.2920 C.2   165  PRO165      0.2598
     72  O         13.9970  -44.0640   22.1460 O.2   165  PRO165     -0.2715
     73  CB        14.9310  -46.8110   22.7140 C.3   165  PRO165      0.0310
     74  CG        14.0540  -47.9750   22.4360 C.3   165  PRO165      0.0237
     75  CD        12.6500  -47.4710   22.5180 C.3   165  PRO165      0.0939
     76  N         14.6410  -43.6170   24.2630 N.am  166  ILE166     -0.1978
     77  CA        14.8240  -42.1850   24.0320 C.3   166  ILE166      0.1596
     78  C         16.1860  -41.8000   24.5870 C.2   166  ILE166      0.2287
     79  O         16.4480  -41.9700   25.7830 O.2   166  ILE166     -0.2864
     80  CB        13.7040  -41.3530   24.7120 C.3   166  ILE166      0.0276
     81  CG1       12.3390  -41.6740   24.0860 C.3   166  ILE166      0.0022
     82  CG2       13.9870  -39.8710   24.6210 C.3   166  ILE166      0.0022
     83  CD1       11.1770  -41.1380   24.8790 C.3   166  ILE166      0.0001
@<TRIPOS>BOND
     1    68    66    1
     2    67    66    1
     3    66    65    2
     4    65    64    1
     5    33    30    1
     6    33    34    1
     7    31    32    2
     8    31    30    1
     9    64    63    1
    10    29    30    1
    11    63    62    1
    12    34    35    1
    13    28    27    2
    14    72    71    2
    15    74    75    1
    16    74    73    1
    17    75    69    1
    18    73    70    1
    19    27    26    1
    20    71    70    1
    21    71    76   am
    22    62    59    1
    23    69    70    1
    24    69    60   am
    25    35    37   am
    26    35    36    2
    27    59    60    1
    28    59    58    1
    29    77    76    1
    30    77    78    1
    31    77    80    1
    32    81    80    1
    33    81    83    1
    34    26    25    1
    35    60    61    2
    36    78    79    2
    37    82    80    1
    38    57    56    2
    39    20    19    2
    40    58    56   am
    41    56    55    1
    42    25    19   am
    43    19    18    1
    44    23    22    2
    45    22    24   am
    46    22    21    1
    47    55    54    1
    48    18    21    1
    49    18    17    1
    50    17    11   am
    51    45    43    1
    52     4     3    2
    53    41    40    2
    54    11    12    2
    55    11    10    1
    56    15    14   ar
    57    44    43    1
    58    43    42    1
    59    42    39    1
    60     8     6    1
    61     3     9   am
    62     3     2    1
    63    10     9    1
    64    10    13    1
    65    40    39    1
    66    40    46   am
    67    49    48    2
    68    39    38    1
    69     6     5    1
    70     6     7    1
    71     5     2    1
    72    14    13    1
    73    14    16   ar
    74     1     2    1
    75    48    47    1
    76    47    46    1
    77    47    50    1
    78    53    51   am
    79    51    50    1
    80    51    52    2
