@<TRIPOS>MOLECULE
tmp/4doeA01.pdb
 179 182 0 0 0
SMALL
GASTEIGER

@<TRIPOS>ATOM
      1  N         79.5060  -15.0200  -29.9370 N.3   204  GLY204     -0.1210
      2  CA        79.9670  -16.3950  -29.9720 C.3   204  GLY204      0.1956
      3  C         78.9990  -17.3550  -29.3350 C.2   204  GLY204      0.2612
      4  O         79.1840  -18.5800  -29.4260 O.2   204  GLY204     -0.2717
      5  N         77.9510  -16.8580  -28.6680 N.am  205  TYR205     -0.1962
      6  CA        77.0640  -17.7130  -27.8840 C.3   205  TYR205      0.1771
      7  C         75.6170  -17.3920  -28.2590 C.2   205  TYR205      0.2619
      8  O         74.9140  -18.2830  -28.7420 O.2   205  TYR205     -0.2715
      9  CB        77.2980  -17.4910  -26.3830 C.3   205  TYR205      0.0574
     10  CG        78.7400  -17.6220  -25.9600 C.ar  205  TYR205     -0.0198
     11  CD1       79.3480  -18.8900  -25.8970 C.ar  205  TYR205     -0.0009
     12  CD2       79.4680  -16.5240  -25.6130 C.ar  205  TYR205     -0.0009
     13  CE1       80.6890  -19.0120  -25.5460 C.ar  205  TYR205      0.0417
     14  CE2       80.8000  -16.6440  -25.2660 C.ar  205  TYR205      0.0417
     15  CZ        81.3970  -17.8770  -25.2740 C.ar  205  TYR205      0.1957
     16  OH        82.7180  -17.9260  -24.8210 O.3   205  TYR205     -0.2866
     17  N         75.2210  -16.1170  -28.0950 N.am  206  TYR206     -0.1974
     18  CA        73.8800  -15.6490  -28.3570 C.3   206  TYR206      0.1639
     19  C         73.8830  -14.2650  -29.0410 C.2   206  TYR206      0.2290
     20  O         73.1820  -13.3150  -28.6570 O.2   206  TYR206     -0.2864
     21  CB        72.9910  -15.6460  -27.0850 C.3   206  TYR206      0.0560
     22  CG        72.7040  -17.0270  -26.5610 C.ar  206  TYR206     -0.0198
     23  CD1       71.7680  -17.8260  -27.1770 C.ar  206  TYR206     -0.0009
     24  CD2       73.4700  -17.5990  -25.5510 C.ar  206  TYR206     -0.0009
     25  CE1       71.5090  -19.0940  -26.7100 C.ar  206  TYR206      0.0417
     26  CE2       73.2380  -18.8710  -25.1070 C.ar  206  TYR206      0.0417
     27  CZ        72.2650  -19.6490  -25.7260 C.ar  206  TYR206      0.1957
     28  OH        71.9770  -20.9440  -25.2480 O.3   206  TYR206     -0.2866
     29  N         71.3050  -12.3580  -34.3570 N.3   209  TRP209     -0.1227
     30  CA        71.5010  -12.6410  -35.7880 C.3   209  TRP209      0.1737
     31  C         70.4690  -11.9410  -36.5950 C.2   209  TRP209      0.2596
     32  O         70.7730  -11.3710  -37.6470 O.2   209  TRP209     -0.2718
     33  CB        71.4210  -14.1520  -36.0230 C.3   209  TRP209      0.0564
     34  CG        72.5180  -14.8730  -35.3080 C.ar  209  TRP209      0.0003
     35  CD1       72.4730  -15.5870  -34.1130 C.ar  209  TRP209      0.0946
     36  CD2       73.8740  -14.9920  -35.7630 C.ar  209  TRP209      0.0152
     37  NE1       73.7120  -16.0740  -33.8040 N.ar  209  TRP209     -0.2442
     38  CE2       74.5750  -15.7850  -34.7790 C.ar  209  TRP209      0.0810
     39  CE3       74.5590  -14.5460  -36.8840 C.ar  209  TRP209      0.0012
     40  CZ2       75.9000  -16.1160  -34.9250 C.ar  209  TRP209      0.0191
     41  CZ3       75.8990  -14.8920  -37.0110 C.ar  209  TRP209      0.0001
     42  CH2       76.5560  -15.6130  -36.0270 C.ar  209  TRP209      0.0015
     43  N         69.1990  -12.0730  -36.2410 N.am  210  SER210     -0.1952
     44  CA        68.1110  -11.5470  -37.0300 C.3   210  SER210      0.1924
     45  C         67.8170  -10.0560  -36.8190 C.2   210  SER210      0.2314
     46  O         66.9960   -9.5260  -37.5700 O.2   210  SER210     -0.2863
     47  CB        66.7980  -12.3210  -36.7720 C.3   210  SER210      0.2116
     48  OG        66.4570  -12.2940  -35.3820 O.3   210  SER210     -0.2180
     49  N         62.7150  -10.2200  -40.4230 N.3   244  PRO244     -0.2116
     50  CA        63.7460  -10.8990  -41.1700 C.3   244  PRO244      0.1372
     51  C         63.2370  -11.4070  -42.5120 C.2   244  PRO244      0.2244
     52  O         62.1790  -12.0180  -42.5850 O.2   244  PRO244     -0.2868
     53  CB        64.1140  -12.0790  -40.2220 C.3   244  PRO244      0.0268
     54  CG        63.8700  -11.5480  -38.8610 C.3   244  PRO244      0.0207
     55  CD        62.6080  -10.7440  -39.0300 C.3   244  PRO244      0.0892
     56  N         61.0440  -14.4050  -43.8660 N.3   253  ASP253     -0.1239
     57  CA        61.6550  -15.7260  -43.8830 C.3   253  ASP253      0.1674
     58  C         60.8550  -16.6980  -43.0110 C.2   253  ASP253      0.2266
     59  O         60.9060  -16.6050  -41.7830 O.2   253  ASP253     -0.2867
     60  CB        63.0530  -15.6610  -43.3400 C.3   253  ASP253      0.1410
     61  CG        63.8270  -16.9630  -43.5710 C.2   253  ASP253      0.3668
     62  OD1       63.2770  -17.9540  -44.0250 O.co2 253  ASP253     -0.2456
     63  OD2       65.0530  -16.9620  -43.3610 O.co2 253  ASP253     -0.2456
     64  N         62.6740  -20.8760  -41.0320 N.3   256  TRP256     -0.1241
     65  CA        63.3900  -21.1660  -39.7880 C.3   256  TRP256      0.1605
     66  C         62.3400  -21.5540  -38.7420 C.2   256  TRP256      0.2264
     67  O         61.4740  -22.3460  -39.0500 O.2   256  TRP256     -0.2867
     68  CB        64.2550  -20.0050  -39.3690 C.3   256  TRP256      0.0550
     69  CG        65.3420  -20.4500  -38.4340 C.ar  256  TRP256      0.0003
     70  CD1       65.5540  -20.0480  -37.1310 C.ar  256  TRP256      0.0946
     71  CD2       66.4770  -21.2630  -38.7720 C.ar  256  TRP256      0.0152
     72  NE1       66.6580  -20.6380  -36.6160 N.ar  256  TRP256     -0.2442
     73  CE2       67.2360  -21.4370  -37.5560 C.ar  256  TRP256      0.0810
     74  CE3       66.9020  -21.9410  -39.9390 C.ar  256  TRP256      0.0012
     75  CZ2       68.3450  -22.1540  -37.5140 C.ar  256  TRP256      0.0191
     76  CZ3       68.0200  -22.7880  -39.8380 C.ar  256  TRP256      0.0001
     77  CH2       68.7490  -22.8730  -38.6600 C.ar  256  TRP256      0.0015
     78  N         62.2660  -18.9810  -32.1170 N.3   259  CYS259     -0.1221
     79  CA        63.3850  -19.3550  -31.2550 C.3   259  CYS259      0.1808
     80  C         63.9370  -18.1270  -30.5600 C.2   259  CYS259      0.2601
     81  O         63.4470  -17.0230  -30.7970 O.2   259  CYS259     -0.2717
     82  CB        64.4620  -20.0270  -32.0990 C.3   259  CYS259      0.0970
     83  SG        65.2740  -18.9440  -33.3190 S.3   259  CYS259     -0.0800
     84  N         64.9180  -18.3340  -29.6990 N.am  260  TRP260     -0.1962
     85  CA        65.4690  -17.2710  -28.8760 C.3   260  TRP260      0.1771
     86  C         65.9100  -16.0520  -29.6580 C.2   260  TRP260      0.2620
     87  O         65.8640  -14.9280  -29.1280 O.2   260  TRP260     -0.2715
     88  CB        66.6380  -17.8080  -28.0030 C.3   260  TRP260      0.0590
     89  CG        67.7860  -18.3230  -28.7760 C.ar  260  TRP260      0.0006
     90  CD1       68.0570  -19.6440  -29.1680 C.ar  260  TRP260      0.0946
     91  CD2       68.8800  -17.5150  -29.3280 C.ar  260  TRP260      0.0152
     92  NE1       69.2480  -19.6790  -29.8860 N.ar  260  TRP260     -0.2442
     93  CE2       69.7500  -18.4320  -30.0360 C.ar  260  TRP260      0.0810
     94  CE3       69.2110  -16.1580  -29.3070 C.ar  260  TRP260      0.0012
     95  CZ2       70.9120  -17.9850  -30.6510 C.ar  260  TRP260      0.0191
     96  CZ3       70.3350  -15.7120  -30.0140 C.ar  260  TRP260      0.0001
     97  CH2       71.1550  -16.6130  -30.6750 C.ar  260  TRP260      0.0015
     98  N         66.3500  -16.2770  -30.8970 N.am  261  ASP261     -0.1957
     99  CA        66.8470  -15.1910  -31.7310 C.3   261  ASP261      0.1840
    100  C         65.7570  -14.5050  -32.5310 C.2   261  ASP261      0.2622
    101  O         65.9370  -13.3500  -32.9530 O.2   261  ASP261     -0.2715
    102  CB        67.9950  -15.6740  -32.6670 C.3   261  ASP261      0.1450
    103  CG        68.5710  -14.4790  -33.4650 C.2   261  ASP261      0.3671
    104  OD1       68.2750  -14.3600  -34.6700 O.co2 261  ASP261     -0.2456
    105  OD2       69.2350  -13.6710  -32.7970 O.co2 261  ASP261     -0.2456
    106  N         64.7230  -15.2420  -32.9240 N.am  262  ASP262     -0.1971
    107  CA        63.7790  -14.8290  -33.9470 C.3   262  ASP262      0.1709
    108  C         62.3650  -15.1760  -33.5600 C.2   262  ASP262      0.2293
    109  O         61.9740  -16.3180  -33.6580 O.2   262  ASP262     -0.2864
    110  CB        64.1320  -15.4530  -35.3130 C.3   262  ASP262      0.1436
    111  CG        63.3510  -14.8300  -36.4270 C.2   262  ASP262      0.3671
    112  OD1       62.3610  -14.0670  -36.2010 O.co2 262  ASP262     -0.2456
    113  OD2       63.6920  -15.1920  -37.5860 O.co2 262  ASP262     -0.2456
    114  N         72.0050  -28.7690  -34.5680 N.3   313  TRP313     -0.1241
    115  CA        72.2340  -28.3090  -33.1790 C.3   313  TRP313      0.1605
    116  C         70.8880  -27.8770  -32.5680 C.2   313  TRP313      0.2264
    117  O         70.3140  -26.8540  -32.9310 O.2   313  TRP313     -0.2867
    118  CB        73.2390  -27.1530  -33.2130 C.3   313  TRP313      0.0550
    119  CG        73.8230  -26.8270  -31.8930 C.ar  313  TRP313      0.0003
    120  CD1       73.2900  -26.9690  -30.6320 C.ar  313  TRP313      0.0946
    121  CD2       75.1670  -26.3350  -31.6860 C.ar  313  TRP313      0.0152
    122  NE1       74.1870  -26.5470  -29.6530 N.ar  313  TRP313     -0.2442
    123  CE2       75.3650  -26.2500  -30.2350 C.ar  313  TRP313      0.0810
    124  CE3       76.2050  -26.0440  -32.5360 C.ar  313  TRP313      0.0012
    125  CZ2       76.5340  -25.7130  -29.7020 C.ar  313  TRP313      0.0191
    126  CZ3       77.4030  -25.5990  -31.9930 C.ar  313  TRP313      0.0001
    127  CH2       77.5650  -25.4890  -30.6010 C.ar  313  TRP313      0.0015
    128  N         64.5630  -28.8670  -29.9680 N.3   317  ARG317     -0.1231
    129  CA        64.1240  -27.5040  -29.5770 C.3   317  ARG317      0.1694
    130  C         63.3150  -26.8580  -30.6900 C.2   317  ARG317      0.2592
    131  O         62.2060  -26.2970  -30.4850 O.2   317  ARG317     -0.2718
    132  CB        65.3340  -26.7000  -29.1120 C.3   317  ARG317      0.0321
    133  CG        65.2010  -25.1830  -29.1040 C.3   317  ARG317      0.0489
    134  CD        65.6790  -24.4940  -30.3560 C.3   317  ARG317      0.2205
    135  NE        67.0070  -24.9420  -30.8250 N.pl3 317  ARG317     -0.0865
    136  CZ        68.1570  -24.3460  -30.5360 C.cat 317  ARG317      0.5346
    137  NH1       69.2740  -24.7470  -31.0980 N.pl3 317  ARG317      0.1354
    138  NH2       68.2480  -23.3770  -29.6530 N.pl3 317  ARG317      0.1354
    139  N         63.8240  -26.8920  -31.9260 N.am  318  TYR318     -0.1976
    140  CA        63.1410  -26.1850  -32.9890 C.3   318  TYR318      0.1639
    141  C         61.7920  -26.8950  -33.3260 C.2   318  TYR318      0.2290
    142  O         60.8020  -26.2240  -33.5210 O.2   318  TYR318     -0.2864
    143  CB        63.9950  -26.1380  -34.2370 C.3   318  TYR318      0.0560
    144  CG        65.2720  -25.3140  -34.0700 C.ar  318  TYR318     -0.0198
    145  CD1       66.5210  -25.8510  -34.3390 C.ar  318  TYR318     -0.0009
    146  CD2       65.1820  -23.9700  -33.7560 C.ar  318  TYR318     -0.0009
    147  CE1       67.6570  -25.1020  -34.2460 C.ar  318  TYR318      0.0417
    148  CE2       66.3290  -23.1600  -33.6970 C.ar  318  TYR318      0.0417
    149  CZ        67.5610  -23.7280  -33.9540 C.ar  318  TYR318      0.1957
    150  OH        68.7330  -22.9700  -33.8840 O.3   318  TYR318     -0.2866
    151  N         73.4810  -31.3640  -25.2070 N.3   422  GLU422     -0.1245
    152  CA        73.2900  -30.3540  -24.2010 C.3   422  GLU422      0.1567
    153  C         71.8100  -30.1670  -23.9580 C.2   422  GLU422      0.2260
    154  O         70.9470  -30.7580  -24.6340 O.2   422  GLU422     -0.2867
    155  CB        73.9860  -29.0410  -24.6020 C.3   422  GLU422      0.0388
    156  CG        74.2340  -28.1080  -23.4050 C.3   422  GLU422      0.1160
    157  CD        75.3150  -27.0730  -23.6200 C.2   422  GLU422      0.3649
    158  OE1       75.7690  -26.8350  -24.7860 O.co2 422  GLU422     -0.2457
    159  OE2       75.6430  -26.4140  -22.5880 O.co2 422  GLU422     -0.2457
    160  N         66.0620  -22.4650  -23.3100 N.3   426  ASP426     -0.1225
    161  CA        65.2770  -22.2600  -24.5200 C.3   426  ASP426      0.1805
    162  C         64.7930  -23.5890  -25.1010 C.2   426  ASP426      0.2597
    163  O         63.7700  -23.6280  -25.8220 O.2   426  ASP426     -0.2718
    164  CB        65.9890  -21.4000  -25.5630 C.3   426  ASP426      0.1424
    165  CG        67.0080  -22.1750  -26.3740 C.2   426  ASP426      0.3668
    166  OD1       68.1440  -22.3790  -25.8740 O.co2 426  ASP426     -0.2456
    167  OD2       66.7000  -22.5390  -27.5360 O.co2 426  ASP426     -0.2456
    168  N         65.5540  -24.6650  -24.9280 N.am  427  TYR427     -0.1976
    169  CA        65.0990  -25.9830  -25.4150 C.3   427  TYR427      0.1639
    170  C         63.7970  -26.4570  -24.7470 C.2   427  TYR427      0.2290
    171  O         62.9850  -27.0200  -25.4350 O.2   427  TYR427     -0.2864
    172  CB        66.1580  -27.0740  -25.1050 C.3   427  TYR427      0.0560
    173  CG        67.4380  -27.0850  -25.8980 C.ar  427  TYR427     -0.0198
    174  CD1       67.8710  -26.0060  -26.6540 C.ar  427  TYR427     -0.0009
    175  CD2       68.2850  -28.1740  -25.7910 C.ar  427  TYR427     -0.0009
    176  CE1       69.0410  -26.0440  -27.3870 C.ar  427  TYR427      0.0417
    177  CE2       69.4980  -28.1900  -26.4490 C.ar  427  TYR427      0.0417
    178  CZ        69.8770  -27.1540  -27.2480 C.ar  427  TYR427      0.1957
    179  OH        71.0560  -27.2460  -27.9960 O.3   427  TYR427     -0.2866
@<TRIPOS>BOND
     1    62    61   ar
     2    57    56    1
     3    57    60    1
     4    57    58    1
     5    61    63   ar
     6    61    60    1
     7    58    59    2
     8    52    51    2
     9    51    50    1
    10    50    49    1
    11    50    53    1
    12    64    65    1
    13    49    55    1
    14    53    54    1
    15    74    76   ar
    16    74    71   ar
    17    76    77   ar
    18    65    68    1
    19    65    66    1
    20    68    69    1
    21    67    66    2
    22    55    54    1
    23    71    69   ar
    24    71    73   ar
    25    77    75   ar
    26    69    70   ar
    27    32    31    2
    28   113   111   ar
    29    46    45    2
    30    73    75   ar
    31    73    72   ar
    32    70    72   ar
    33    44    45    1
    34    44    47    1
    35    44    43    1
    36    41    39   ar
    37    41    42   ar
    38    39    36   ar
    39    47    48    1
    40    31    43   am
    41    31    30    1
    42   111   112   ar
    43   111   110    1
    44    42    40   ar
    45    33    30    1
    46    33    34    1
    47    30    29    1
    48    36    34   ar
    49    36    38   ar
    50   110   107    1
    51    34    35   ar
    52    40    38   ar
    53    38    37   ar
    54   104   103   ar
    55   114   115    1
    56   145   147   ar
    57   145   144   ar
    58   147   149   ar
    59   143   144    1
    60   143   140    1
    61    35    37   ar
    62   144   146   ar
    63   149   150    1
    64   149   148   ar
    65   107   108    1
    66   107   106    1
    67   146   148   ar
    68   109   108    2
    69   142   141    2
    70   103   105   ar
    71   103   102    1
    72   141   140    1
    73    83    82    1
    74   118   115    1
    75   118   119    1
    76   115   116    1
    77   140   139    1
    78   101   100    2
    79   117   116    2
    80   106   100   am
    81   102    99    1
    82   124   126   ar
    83   124   121   ar
    84   100    99    1
    85    78    79    1
    86    82    79    1
    87   126   127   ar
    88   139   130   am
    89   119   121   ar
    90   119   120   ar
    91    99    98    1
    92   121   123   ar
    93    79    80    1
    94   137   136    1
    95    98    86   am
    96   135   136    2
    97   135   134    1
    98    81    80    2
    99   130   131    2
   100   130   129    1
   101    97    95   ar
   102    97    96   ar
   103    95    93   ar
   104   120   122   ar
   105   127   125   ar
   106    80    84   am
   107   136   138    1
   108   134   133    1
   109   123   125   ar
   110   123   122   ar
   111    93    92   ar
   112    93    91   ar
   113    96    94   ar
   114     2     1    1
   115     2     3    1
   116   128   129    1
   117    92    90   ar
   118    84    85    1
   119    86    87    2
   120    86    85    1
   121   129   132    1
   122     4     3    2
   123     3     5   am
   124    91    94   ar
   125    91    89   ar
   126    90    89   ar
   127   132   133    1
   128    19    20    2
   129    19    18    1
   130    85    88    1
   131    89    88    1
   132     8     7    2
   133     5     6    1
   134    18    17    1
   135    18    21    1
   136     7    17   am
   137     7     6    1
   138   179   178    1
   139     6     9    1
   140   167   165   ar
   141   176   178   ar
   142   176   174   ar
   143   178   177   ar
   144    23    25   ar
   145    23    22   ar
   146    21    22    1
   147    25    27   ar
   148   174   173   ar
   149    22    24   ar
   150   177   175   ar
   151     9    10    1
   152   165   166   ar
   153   165   164    1
   154    10    11   ar
   155    10    12   ar
   156   173   175   ar
   157   173   172    1
   158    11    13   ar
   159   163   162    2
   160    27    28    1
   161    27    26   ar
   162    12    14   ar
   163   164   161    1
   164    24    26   ar
   165    13    15   ar
   166   171   170    2
   167   169   172    1
   168   169   168    1
   169   169   170    1
   170    15    14   ar
   171    15    16    1
   172   151   152    1
   173   162   168   am
   174   162   161    1
   175   158   157   ar
   176   154   153    2
   177   155   152    1
   178   155   156    1
   179   161   160    1
   180   152   153    1
   181   157   156    1
   182   157   159   ar
