@<TRIPOS>MOLECULE
tmp/4doeA00.pdb
 123 120 0 0 0
SMALL
GASTEIGER

@<TRIPOS>ATOM
      1  N         72.4650  -23.2550  -19.8780 N.3    57  ALA57      -0.1245
      2  CA        72.4720  -24.5540  -20.5810 C.3    57  ALA57       0.1562
      3  C         73.1670  -25.5680  -19.6670 C.2    57  ALA57       0.2260
      4  O         72.7350  -25.7560  -18.5200 O.2    57  ALA57      -0.2867
      5  CB        73.0950  -24.3960  -21.9930 C.3    57  ALA57       0.0290
      6  N         76.1970  -24.9770  -18.7370 N.3    59  ASP59      -0.1239
      7  CA        77.1840  -24.0310  -18.2250 C.3    59  ASP59       0.1674
      8  C         76.5630  -23.1480  -17.1200 C.2    59  ASP59       0.2266
      9  O         75.4070  -23.3590  -16.6930 O.2    59  ASP59      -0.2867
     10  CB        77.6990  -23.1880  -19.4150 C.3    59  ASP59       0.1410
     11  CG        76.5960  -22.3580  -20.0740 C.2    59  ASP59       0.3668
     12  OD1       75.3730  -22.6470  -19.9060 O.co2  59  ASP59      -0.2456
     13  OD2       76.9280  -21.3700  -20.8300 O.co2  59  ASP59      -0.2456
     14  N         83.2770  -21.5550  -19.2760 N.3   126  HIS126     -0.1226
     15  CA        83.3590  -22.8250  -20.0360 C.3   126  HIS126      0.1752
     16  C         84.6210  -23.5950  -19.8580 C.2   126  HIS126      0.2595
     17  O         84.6310  -24.7960  -20.0470 O.2   126  HIS126     -0.2718
     18  CB        83.0430  -22.6000  -21.4930 C.3   126  HIS126      0.0759
     19  CG        81.6320  -22.1010  -21.7460 C.ar  126  HIS126      0.0818
     20  ND1       81.1730  -21.7900  -23.0110 N.ar  126  HIS126     -0.2268
     21  CD2       80.5710  -21.9090  -20.8910 C.ar  126  HIS126      0.1154
     22  CE1       79.9000  -21.4160  -22.9210 C.ar  126  HIS126      0.1986
     23  NE2       79.5080  -21.4950  -21.6390 N.ar  126  HIS126     -0.2212
     24  N         85.6580  -22.9150  -19.3780 N.am  127  ALA127     -0.1980
     25  CA        86.9660  -23.5760  -19.2080 C.3   127  ALA127      0.1597
     26  C         87.0340  -24.5020  -17.9940 C.2   127  ALA127      0.2287
     27  O         87.9600  -25.2720  -17.8770 O.2   127  ALA127     -0.2864
     28  CB        88.0860  -22.5220  -19.1550 C.3   127  ALA127      0.0319
     29  N         85.0540  -27.3700  -15.4050 N.3   129  TRP129     -0.1241
     30  CA        83.9990  -28.3800  -15.4060 C.3   129  TRP129      0.1605
     31  C         83.7300  -28.8370  -13.9800 C.2   129  TRP129      0.2264
     32  O         84.4090  -29.6960  -13.4280 O.2   129  TRP129     -0.2867
     33  CB        84.4500  -29.5680  -16.2820 C.3   129  TRP129      0.0550
     34  CG        83.3020  -30.4960  -16.5330 C.ar  129  TRP129      0.0003
     35  CD1       82.8370  -31.5980  -15.8150 C.ar  129  TRP129      0.0946
     36  CD2       82.3280  -30.2970  -17.6280 C.ar  129  TRP129      0.0152
     37  NE1       81.6710  -32.0780  -16.3580 N.ar  129  TRP129     -0.2442
     38  CE2       81.2560  -31.2440  -17.3870 C.ar  129  TRP129      0.0810
     39  CE3       82.1830  -29.3570  -18.6240 C.ar  129  TRP129      0.0012
     40  CZ2       80.1860  -31.3510  -18.2370 C.ar  129  TRP129      0.0191
     41  CZ3       81.0680  -29.4460  -19.4950 C.ar  129  TRP129      0.0001
     42  CH2       80.0670  -30.4090  -19.2790 C.ar  129  TRP129      0.0015
     43  N         79.5060  -15.0200  -29.9370 N.3   204  GLY204     -0.1210
     44  CA        79.9670  -16.3950  -29.9720 C.3   204  GLY204      0.1956
     45  C         78.9990  -17.3550  -29.3350 C.2   204  GLY204      0.2611
     46  O         79.1840  -18.5800  -29.4260 O.2   204  GLY204     -0.2717
     47  N         77.9510  -16.8580  -28.6680 N.am  205  TYR205     -0.1976
     48  CA        77.0640  -17.7130  -27.8840 C.3   205  TYR205      0.1639
     49  C         75.6170  -17.3920  -28.2590 C.2   205  TYR205      0.2290
     50  O         74.9140  -18.2830  -28.7420 O.2   205  TYR205     -0.2864
     51  CB        77.2980  -17.4910  -26.3830 C.3   205  TYR205      0.0560
     52  CG        78.7400  -17.6220  -25.9600 C.ar  205  TYR205     -0.0198
     53  CD1       79.3480  -18.8900  -25.8970 C.ar  205  TYR205     -0.0009
     54  CD2       79.4680  -16.5240  -25.6130 C.ar  205  TYR205     -0.0009
     55  CE1       80.6890  -19.0120  -25.5460 C.ar  205  TYR205      0.0417
     56  CE2       80.8000  -16.6440  -25.2660 C.ar  205  TYR205      0.0417
     57  CZ        81.3970  -17.8770  -25.2740 C.ar  205  TYR205      0.1957
     58  OH        82.7180  -17.9260  -24.8210 O.3   205  TYR205     -0.2866
     59  N         72.0050  -28.7690  -34.5680 N.3   313  TRP313     -0.1241
     60  CA        72.2340  -28.3090  -33.1790 C.3   313  TRP313      0.1605
     61  C         70.8880  -27.8770  -32.5680 C.2   313  TRP313      0.2264
     62  O         70.3140  -26.8540  -32.9310 O.2   313  TRP313     -0.2867
     63  CB        73.2390  -27.1530  -33.2130 C.3   313  TRP313      0.0550
     64  CG        73.8230  -26.8270  -31.8930 C.ar  313  TRP313      0.0003
     65  CD1       73.2900  -26.9690  -30.6320 C.ar  313  TRP313      0.0946
     66  CD2       75.1670  -26.3350  -31.6860 C.ar  313  TRP313      0.0152
     67  NE1       74.1870  -26.5470  -29.6530 N.ar  313  TRP313     -0.2442
     68  CE2       75.3650  -26.2500  -30.2350 C.ar  313  TRP313      0.0810
     69  CE3       76.2050  -26.0440  -32.5360 C.ar  313  TRP313      0.0012
     70  CZ2       76.5340  -25.7130  -29.7020 C.ar  313  TRP313      0.0191
     71  CZ3       77.4030  -25.5990  -31.9930 C.ar  313  TRP313      0.0001
     72  CH2       77.5650  -25.4890  -30.6010 C.ar  313  TRP313      0.0015
     73  N         75.2340  -33.0150  -21.4450 N.3   375  HIS375     -0.1241
     74  CA        76.3340  -32.0750  -21.2690 C.3   375  HIS375      0.1621
     75  C         75.8820  -30.9880  -20.2900 C.2   375  HIS375      0.2264
     76  O         75.2790  -29.9820  -20.6720 O.2   375  HIS375     -0.2867
     77  CB        76.6730  -31.4390  -22.6130 C.3   375  HIS375      0.0745
     78  CG        77.8780  -30.5150  -22.5970 C.ar  375  HIS375      0.0817
     79  ND1       79.1460  -30.9440  -22.9000 N.ar  375  HIS375     -0.2268
     80  CD2       77.9620  -29.1570  -22.3940 C.ar  375  HIS375      0.1154
     81  CE1       79.9880  -29.8880  -22.8140 C.ar  375  HIS375      0.1986
     82  NE2       79.2790  -28.7870  -22.5430 N.ar  375  HIS375     -0.2212
     83  N         77.2240  -29.4880  -16.3730 N.3   377  ARG377     -0.1245
     84  CA        78.2510  -29.5040  -15.3100 C.3   377  ARG377      0.1563
     85  C         77.6610  -29.8770  -13.9460 C.2   377  ARG377      0.2260
     86  O         78.2470  -30.6770  -13.2040 O.2   377  ARG377     -0.2867
     87  CB        78.9440  -28.1450  -15.2320 C.3   377  ARG377      0.0307
     88  CG        79.8840  -27.9070  -16.3920 C.3   377  ARG377      0.0489
     89  CD        80.2520  -26.4590  -16.4440 C.3   377  ARG377      0.2205
     90  NE        81.2120  -26.1970  -17.5060 N.pl3 377  ARG377     -0.0865
     91  CZ        80.9220  -26.1300  -18.7990 C.cat 377  ARG377      0.5346
     92  NH1       81.8980  -25.9550  -19.6860 N.pl3 377  ARG377      0.1354
     93  NH2       79.6980  -26.2700  -19.2250 N.pl3 377  ARG377      0.1354
     94  N         85.2740  -34.2160  -17.2790 N.3   387  GLN387     -0.1245
     95  CA        84.0240  -34.8610  -17.7610 C.3   387  GLN387      0.1566
     96  C         84.0180  -36.3280  -17.5400 C.2   387  GLN387      0.2260
     97  O         82.9400  -36.9310  -17.5800 O.2   387  GLN387     -0.2867
     98  CB        83.8410  -34.6070  -19.2800 C.3   387  GLN387      0.0367
     99  CG        83.4410  -33.1920  -19.5820 C.3   387  GLN387      0.0905
    100  CD        83.2970  -32.8730  -21.0740 C.2   387  GLN387      0.2608
    101  OE1       82.8800  -31.7290  -21.4740 O.2   387  GLN387     -0.2717
    102  NE2       83.5430  -33.8060  -21.8970 N.am  387  GLN387     -0.0878
    103  N         78.1340  -31.4390  -26.9330 N.3   418  TYR418     -0.1241
    104  CA        77.3000  -30.2960  -26.6670 C.3   418  TYR418      0.1605
    105  C         76.4030  -29.8720  -27.8080 C.2   418  TYR418      0.2264
    106  O         75.4720  -29.0760  -27.6150 O.2   418  TYR418     -0.2867
    107  CB        78.1070  -29.1140  -26.1190 C.3   418  TYR418      0.0534
    108  CG        79.2530  -28.6730  -26.9730 C.ar  418  TYR418     -0.0201
    109  CD1       80.5400  -28.9210  -26.5910 C.ar  418  TYR418     -0.0009
    110  CD2       79.0760  -28.0020  -28.1830 C.ar  418  TYR418     -0.0009
    111  CE1       81.6500  -28.5130  -27.3480 C.ar  418  TYR418      0.0417
    112  CE2       80.1660  -27.6780  -28.9720 C.ar  418  TYR418      0.0417
    113  CZ        81.4410  -27.9370  -28.5440 C.ar  418  TYR418      0.1957
    114  OH        82.5870  -27.5810  -29.2450 O.3   418  TYR418     -0.2866
    115  N         73.4810  -31.3640  -25.2070 N.3   422  GLU422     -0.1245
    116  CA        73.2900  -30.3540  -24.2010 C.3   422  GLU422      0.1567
    117  C         71.8100  -30.1670  -23.9580 C.2   422  GLU422      0.2260
    118  O         70.9470  -30.7580  -24.6340 O.2   422  GLU422     -0.2867
    119  CB        73.9860  -29.0410  -24.6020 C.3   422  GLU422      0.0388
    120  CG        74.2340  -28.1080  -23.4050 C.3   422  GLU422      0.1160
    121  CD        75.3150  -27.0730  -23.6200 C.2   422  GLU422      0.3649
    122  OE1       75.7690  -26.8350  -24.7860 O.co2 422  GLU422     -0.2457
    123  OE2       75.6430  -26.4140  -22.5880 O.co2 422  GLU422     -0.2457
@<TRIPOS>BOND
     1    59    60    1
     2    63    60    1
     3    63    64    1
     4    60    61    1
     5    62    61    2
     6    69    71   ar
     7    69    66   ar
     8    71    72   ar
     9    64    66   ar
    10    64    65   ar
    11    66    68   ar
    12    65    67   ar
    13    72    70   ar
    14    68    70   ar
    15    68    67   ar
    16    44    43    1
    17    44    45    1
    18    46    45    2
    19    45    47   am
    20   114   113    1
    21   112   113   ar
    22   112   110   ar
    23    50    49    2
    24    47    48    1
    25   113   111   ar
    26    49    48    1
    27   110   108   ar
    28    48    51    1
    29   105   106    2
    30   105   104    1
    31   111   109   ar
    32   108   109   ar
    33   108   107    1
    34   103   104    1
    35   104   107    1
    36    51    52    1
    37    52    53   ar
    38    52    54   ar
    39    53    55   ar
    40    54    56   ar
    41    55    57   ar
    42    57    56   ar
    43    57    58    1
    44   115   116    1
    45   122   121   ar
    46   118   117    2
    47   119   116    1
    48   119   120    1
    49   116   117    1
    50   121   120    1
    51   121   123   ar
    52    20    22   ar
    53    20    19   ar
    54    22    23   ar
    55    79    81   ar
    56    79    78   ar
    57    81    82   ar
    58    77    78    1
    59    77    74    1
    60    78    80   ar
    61    82    80   ar
    62     5     2    1
    63   102   100   am
    64    19    18    1
    65    19    21   ar
    66    23    21   ar
    67    18    15    1
    68   101   100    2
    69    73    74    1
    70    74    75    1
    71   100    99    1
    72    13    11   ar
    73    76    75    2
    74     2     1    1
    75     2     3    1
    76    11    12   ar
    77    11    10    1
    78    17    16    2
    79    15    16    1
    80    15    14    1
    81    16    24   am
    82    92    91    1
    83     3     4    2
    84    99    98    1
    85    41    42   ar
    86    41    39   ar
    87    10     7    1
    88    24    25    1
    89    98    95    1
    90    42    40   ar
    91    93    91    1
    92    25    28    1
    93    25    26    1
    94    91    90    2
    95     6     7    1
    96    39    36   ar
    97    40    38   ar
    98     7     8    1
    99    26    27    2
   100    95    96    1
   101    95    94    1
   102    36    38   ar
   103    36    34   ar
   104    97    96    2
   105    90    89    1
   106    38    37   ar
   107     8     9    2
   108    34    33    1
   109    34    35   ar
   110    89    88    1
   111    88    87    1
   112    83    84    1
   113    37    35   ar
   114    33    30    1
   115    30    29    1
   116    30    31    1
   117    84    87    1
   118    84    85    1
   119    31    32    2
   120    85    86    2
