@<TRIPOS>MOLECULE
tmp/4dojC01.pdb
 123 121 0 0 0
SMALL
GASTEIGER

@<TRIPOS>ATOM
      1  N         16.0460   -6.2080   32.5680 N.3    91  ALA91      -0.1231
      2  CA        17.4190   -6.5660   32.9000 C.3    91  ALA91       0.1694
      3  C         17.4810   -7.2420   34.2640 C.2    91  ALA91       0.2592
      4  O         18.4870   -7.8560   34.6210 O.2    91  ALA91      -0.2718
      5  CB        18.3140   -5.3340   32.8740 C.3    91  ALA91       0.0304
      6  N         16.4000   -7.1230   35.0270 N.am   92  ALA92      -0.1966
      7  CA        16.3210   -7.7490   36.3390 C.3    92  ALA92       0.1728
      8  C         15.8470   -9.1910   36.2130 C.2    92  ALA92       0.2617
      9  O         16.0830  -10.0100   37.1010 O.2    92  ALA92      -0.2715
     10  CB        15.3950   -6.9570   37.2520 C.3    92  ALA92       0.0334
     11  N         15.1820   -9.4950   35.1020 N.am   93  GLY93      -0.1940
     12  CA        14.6510  -10.8260   34.8610 C.3    93  GLY93       0.2014
     13  C         15.3960  -11.5700   33.7690 C.2    93  GLY93       0.2639
     14  O         14.7920  -12.0780   32.8230 O.2    93  GLY93      -0.2714
     15  N         16.7170  -11.6370   33.9100 N.am   94  MET94      -0.1963
     16  CA        17.5860  -12.2510   32.9110 C.3    94  MET94       0.1736
     17  C         18.9870  -12.4260   33.4860 C.2    94  MET94       0.2617
     18  O         19.4660  -11.5810   34.2400 O.2    94  MET94      -0.2715
     19  CB        17.6460  -11.3860   31.6500 C.3    94  MET94       0.0427
     20  CG        18.6450  -11.8560   30.6040 C.3    94  MET94       0.0599
     21  SD        17.9060  -12.9110   29.3460 S.3    94  MET94      -0.1393
     22  CE        16.6870  -11.8020   28.6390 C.3    94  MET94       0.0692
     23  N         19.6400  -13.5260   33.1300 N.am   95  GLY95      -0.1955
     24  CA        20.9690  -13.8160   33.6330 C.3    95  GLY95       0.1869
     25  C         21.2090  -15.3080   33.7260 C.2    95  GLY95       0.2309
     26  O         20.3020  -16.0990   33.4800 O.2    95  GLY95      -0.2863
     27  N         20.8500  -17.7620   35.4560 N.3    97  ASP97      -0.1225
     28  CA        19.6900  -18.5860   35.7740 C.3    97  ASP97       0.1805
     29  C         19.0170  -19.1410   34.5250 C.2    97  ASP97       0.2597
     30  O         19.0540  -20.3430   34.2710 O.2    97  ASP97      -0.2718
     31  CB        18.6750  -17.7720   36.5720 C.3    97  ASP97       0.1424
     32  CG        19.3210  -16.9480   37.6580 C.2    97  ASP97       0.3668
     33  OD1       20.2730  -17.4440   38.2990 O.co2  97  ASP97      -0.2456
     34  OD2       18.8800  -15.7970   37.8600 O.co2  97  ASP97      -0.2456
     35  N         18.4020  -18.2580   33.7480 N.am   98  LEU98      -0.1979
     36  CA        17.6620  -18.6740   32.5640 C.3    98  LEU98       0.1596
     37  C         18.5510  -19.3430   31.5260 C.2    98  LEU98       0.2287
     38  O         18.1120  -20.2380   30.8060 O.2    98  LEU98      -0.2864
     39  CB        16.9320  -17.4860   31.9480 C.3    98  LEU98       0.0297
     40  CG        15.8300  -16.9310   32.8440 C.3    98  LEU98       0.0022
     41  CD1       16.1810  -15.5280   33.3230 C.3    98  LEU98       0.0001
     42  CD2       14.4990  -16.9440   32.1080 C.3    98  LEU98       0.0001
     43  N          8.8280  -13.6910   42.1170 N.3   138  TRP138     -0.1241
     44  CA         8.6910  -12.2380   42.0920 C.3   138  TRP138      0.1605
     45  C          7.8060  -11.6740   43.2130 C.2   138  TRP138      0.2264
     46  O          7.9740  -10.5240   43.6250 O.2   138  TRP138     -0.2867
     47  CB         8.2510  -11.7630   40.7030 C.3   138  TRP138      0.0550
     48  CG         9.3660  -11.8960   39.7190 C.ar  138  TRP138      0.0003
     49  CD1        9.5290  -12.8790   38.7910 C.ar  138  TRP138      0.0946
     50  CD2       10.5070  -11.0360   39.6000 C.ar  138  TRP138      0.0152
     51  NE1       10.6920  -12.6740   38.0870 N.ar  138  TRP138     -0.2442
     52  CE2       11.3100  -11.5490   38.5670 C.ar  138  TRP138      0.0810
     53  CE3       10.9200   -9.8760   40.2610 C.ar  138  TRP138      0.0012
     54  CZ2       12.4990  -10.9440   38.1800 C.ar  138  TRP138      0.0191
     55  CZ3       12.1000   -9.2800   39.8760 C.ar  138  TRP138      0.0001
     56  CH2       12.8760   -9.8120   38.8450 C.ar  138  TRP138      0.0015
     57  N         10.3970  -11.2040   45.8610 N.3   141  TYR141     -0.1241
     58  CA        11.1810  -10.0220   45.5370 C.3   141  TYR141      0.1605
     59  C         10.4070   -8.7430   45.8460 C.2   141  TYR141      0.2264
     60  O         10.9900   -7.7390   46.2640 O.2   141  TYR141     -0.2867
     61  CB        11.6250  -10.0630   44.0770 C.3   141  TYR141      0.0534
     62  CG        12.4800  -11.2670   43.7600 C.ar  141  TYR141     -0.0201
     63  CD1       13.0860  -11.9960   44.7770 C.ar  141  TYR141     -0.0009
     64  CD2       12.6820  -11.6780   42.4510 C.ar  141  TYR141     -0.0009
     65  CE1       13.8660  -13.0990   44.4970 C.ar  141  TYR141      0.0417
     66  CE2       13.4630  -12.7810   42.1620 C.ar  141  TYR141      0.0417
     67  CZ        14.0500  -13.4850   43.1880 C.ar  141  TYR141      0.1957
     68  OH        14.8230  -14.5830   42.9010 O.3   141  TYR141     -0.2866
     69  N         18.0010  -14.7210   47.4650 N.3   316  TRP316     -0.1241
     70  CA        18.3510  -13.7020   46.4930 C.3   316  TRP316      0.1605
     71  C         17.5460  -12.4270   46.7230 C.2   316  TRP316      0.2264
     72  O         17.9410  -11.3430   46.2890 O.2   316  TRP316     -0.2867
     73  CB        18.1300  -14.2290   45.0810 C.3   316  TRP316      0.0550
     74  CG        19.3290  -14.0720   44.2220 C.ar  316  TRP316      0.0003
     75  CD1       20.5250  -13.5140   44.5760 C.ar  316  TRP316      0.0946
     76  CD2       19.4610  -14.4740   42.8580 C.ar  316  TRP316      0.0152
     77  NE1       21.3940  -13.5440   43.5130 N.ar  316  TRP316     -0.2442
     78  CE2       20.7640  -14.1290   42.4460 C.ar  316  TRP316      0.0810
     79  CE3       18.6040  -15.0910   41.9450 C.ar  316  TRP316      0.0012
     80  CZ2       21.2280  -14.3800   41.1610 C.ar  316  TRP316      0.0191
     81  CZ3       19.0660  -15.3400   40.6720 C.ar  316  TRP316      0.0001
     82  CH2       20.3660  -14.9850   40.2900 C.ar  316  TRP316      0.0015
     83  N         19.0890   -9.1520   47.5050 N.3   319  PHE319     -0.1227
     84  CA        19.7320   -8.4710   46.3850 C.3   319  PHE319      0.1736
     85  C         18.7120   -7.8170   45.4590 C.2   319  PHE319      0.2595
     86  O         18.6690   -6.5910   45.3260 O.2   319  PHE319     -0.2718
     87  CB        20.6150   -9.4350   45.5950 C.3   319  PHE319      0.0547
     88  CG        20.8380   -9.0170   44.1710 C.ar  319  PHE319     -0.0202
     89  CD1       21.4060   -7.7900   43.8770 C.ar  319  PHE319     -0.0042
     90  CD2       20.4820   -9.8520   43.1270 C.ar  319  PHE319     -0.0042
     91  CE1       21.6080   -7.4050   42.5690 C.ar  319  PHE319     -0.0003
     92  CE2       20.6860   -9.4710   41.8160 C.ar  319  PHE319     -0.0003
     93  CZ        21.2480   -8.2480   41.5360 C.ar  319  PHE319     -0.0000
     94  N         17.8990   -8.6440   44.8150 N.am  320  VAL320     -0.1980
     95  CA        16.8500   -8.1510   43.9370 C.3   320  VAL320      0.1595
     96  C         15.9900   -7.1200   44.6640 C.2   320  VAL320      0.2287
     97  O         15.5950   -6.1080   44.0860 O.2   320  VAL320     -0.2864
     98  CB        15.9490   -9.2990   43.4560 C.3   320  VAL320      0.0276
     99  CG1       15.0450   -8.8230   42.3340 C.3   320  VAL320      0.0022
    100  CG2       16.7950  -10.4800   43.0040 C.3   320  VAL320      0.0022
    101  N         17.5670   -3.7200   44.5870 N.3   323  PHE323     -0.1241
    102  CA        17.5290   -3.2560   43.2050 C.3   323  PHE323      0.1605
    103  C         16.2110   -2.5690   42.8660 C.2   323  PHE323      0.2264
    104  O         16.1760   -1.3710   42.5870 O.2   323  PHE323     -0.2867
    105  CB        17.7430   -4.4290   42.2530 C.3   323  PHE323      0.0534
    106  CG        17.8080   -4.0350   40.8020 C.ar  323  PHE323     -0.0203
    107  CD1       18.9530   -3.4560   40.2810 C.ar  323  PHE323     -0.0042
    108  CD2       16.7330   -4.2630   39.9580 C.ar  323  PHE323     -0.0042
    109  CE1       19.0210   -3.1050   38.9480 C.ar  323  PHE323     -0.0003
    110  CE2       16.7960   -3.9170   38.6220 C.ar  323  PHE323     -0.0003
    111  CZ        17.9400   -3.3360   38.1160 C.ar  323  PHE323     -0.0000
    112  N         26.4480   -9.7830   37.2840 N.3   407  SER407     -0.1217
    113  CA        25.6770  -10.4080   38.3470 C.3   407  SER407      0.1889
    114  C         26.4320  -10.3030   39.6640 C.2   407  SER407      0.2288
    115  O         25.8270  -10.1610   40.7270 O.2   407  SER407     -0.2866
    116  CB        25.3890  -11.8740   38.0140 C.3   407  SER407      0.2089
    117  OG        24.4310  -12.4220   38.9030 O.3   407  SER407     -0.2183
    118  N         26.4450   -6.0580   40.9850 N.3   410  SER410     -0.1217
    119  CA        25.2180   -5.7140   41.6940 C.3   410  SER410      0.1889
    120  C         25.1200   -6.4220   43.0460 C.2   410  SER410      0.2288
    121  O         24.7680   -5.8070   44.0520 O.2   410  SER410     -0.2866
    122  CB        24.0030   -6.0400   40.8250 C.3   410  SER410      0.2089
    123  OG        24.1350   -7.3200   40.2320 O.3   410  SER410     -0.2183
@<TRIPOS>BOND
     1    22    21    1
     2    21    20    1
     3    20    19    1
     4    38    37    2
     5    37    36    1
     6    19    16    1
     7    39    36    1
     8    39    40    1
     9    42    40    1
    10    36    35    1
    11     1     2    1
    12    14    13    2
    13    40    41    1
    14     5     2    1
    15     2     3    1
    16    16    17    1
    17    16    15    1
    18    23    17   am
    19    23    24    1
    20    26    25    2
    21    17    18    2
    22    24    25    1
    23    35    29   am
    24    13    15   am
    25    13    12    1
    26     3     4    2
    27     3     6   am
    28    30    29    2
    29    29    28    1
    30    12    11    1
    31     6     7    1
    32    11     8   am
    33    27    28    1
    34    28    31    1
    35     8     7    1
    36     8     9    2
    37     7    10    1
    38    31    32    1
    39   112   113    1
    40    32    34   ar
    41    32    33   ar
    42   116   113    1
    43   116   117    1
    44    51    52   ar
    45    51    49   ar
    46   111   110   ar
    47   111   109   ar
    48    54    52   ar
    49    54    56   ar
    50   113   114    1
    51    52    50   ar
    52   110   108   ar
    53    49    48   ar
    54    56    55   ar
    55   109   107   ar
    56    50    48   ar
    57    50    53   ar
    58   114   115    2
    59    48    47    1
    60    55    53   ar
    61   108   106   ar
    62   123   122    1
    63   107   106   ar
    64    82    81   ar
    65    82    80   ar
    66    81    79   ar
    67    47    44    1
    68   106   105    1
    69   122   119    1
    70   118   119    1
    71    80    78   ar
    72    93    92   ar
    73    93    91   ar
    74   119   120    1
    75    92    90   ar
    76    79    76   ar
    77    44    43    1
    78    44    45    1
    79    66    64   ar
    80    66    67   ar
    81   105   102    1
    82    99    98    1
    83    78    76   ar
    84    78    77   ar
    85    64    62   ar
    86    91    89   ar
    87   104   103    2
    88    76    74   ar
    89   103   102    1
    90    68    67    1
    91   100    98    1
    92   120   121    2
    93    90    88   ar
    94    67    65   ar
    95   102   101    1
    96    45    46    2
    97    98    95    1
    98    77    75   ar
    99    62    61    1
   100    62    63   ar
   101    89    88   ar
   102    95    96    1
   103    95    94    1
   104    61    58    1
   105    97    96    2
   106    88    87    1
   107    74    75   ar
   108    74    73    1
   109    65    63   ar
   110    94    85   am
   111    73    70    1
   112    86    85    2
   113    85    84    1
   114    58    59    1
   115    58    57    1
   116    87    84    1
   117    59    60    2
   118    72    71    2
   119    84    83    1
   120    70    71    1
   121    70    69    1
