@<TRIPOS>MOLECULE
tmp/4dolA00.pdb
 188 176 0 0 0
SMALL
GASTEIGER

@<TRIPOS>ATOM
      1  N         22.7000    6.5480  -10.4860 N.3    34  ARG34      -0.1245
      2  CA        23.6010    6.0540  -11.5110 C.3    34  ARG34       0.1563
      3  C         23.5170    7.0350  -12.6640 C.2    34  ARG34       0.2260
      4  O         22.4340    7.3130  -13.1770 O.2    34  ARG34      -0.2867
      5  CB        23.1730    4.6550  -11.9670 C.3    34  ARG34       0.0307
      6  CG        24.2150    3.8880  -12.7800 C.3    34  ARG34       0.0489
      7  CD        24.2040    4.2650  -14.2560 C.3    34  ARG34       0.2205
      8  NE        24.7990    3.2050  -15.0750 N.pl3  34  ARG34      -0.0865
      9  CZ        26.0160    3.2420  -15.6120 C.cat  34  ARG34       0.5346
     10  NH1       26.8050    4.2960  -15.4340 N.pl3  34  ARG34       0.1354
     11  NH2       26.4480    2.2120  -16.3310 N.pl3  34  ARG34       0.1354
     12  N         25.3040    8.3340  -16.4930 N.3    36  LYS36      -0.1245
     13  CA        26.0980    7.8650  -17.6180 C.3    36  LYS36       0.1561
     14  C         26.1460    8.9410  -18.6860 C.2    36  LYS36       0.2260
     15  O         25.1850    9.6900  -18.8640 O.2    36  LYS36      -0.2867
     16  CB        25.4930    6.5830  -18.2120 C.3    36  LYS36       0.0271
     17  CG        26.3210    5.9910  -19.3590 C.3    36  LYS36       0.0035
     18  CD        25.9060    4.5620  -19.7000 C.3    36  LYS36       0.0206
     19  CE        26.7800    3.9850  -20.8100 C.3    36  LYS36       0.1093
     20  NZ        26.4260    2.5660  -21.1250 N.3    36  LYS36      -0.1314
     21  N         26.1250    9.5240  -22.4340 N.3    38  PHE38      -0.1241
     22  CA        25.8230    8.8900  -23.7080 C.3    38  PHE38       0.1605
     23  C         26.3490    9.7550  -24.8350 C.2    38  PHE38       0.2264
     24  O         26.7070    9.2520  -25.9030 O.2    38  PHE38      -0.2867
     25  CB        24.3170    8.7320  -23.8730 C.3    38  PHE38       0.0534
     26  CG        23.6850    7.8640  -22.8270 C.ar   38  PHE38      -0.0203
     27  CD1       23.8110    6.4810  -22.8870 C.ar   38  PHE38      -0.0042
     28  CD2       22.9790    8.4330  -21.7710 C.ar   38  PHE38      -0.0042
     29  CE1       23.2440    5.6720  -21.9020 C.ar   38  PHE38      -0.0003
     30  CE2       22.4070    7.6330  -20.7810 C.ar   38  PHE38      -0.0003
     31  CZ        22.5390    6.2510  -20.8490 C.ar   38  PHE38      -0.0000
     32  N         20.4520    8.4340  -14.8090 N.3    45  VAL45      -0.1231
     33  CA        19.6110    7.4340  -15.4480 C.3    45  VAL45       0.1692
     34  C         18.6060    6.8610  -14.4600 C.2    45  VAL45       0.2592
     35  O         17.4360    6.6600  -14.7910 O.2    45  VAL45      -0.2718
     36  CB        20.4640    6.2890  -16.0350 C.3    45  VAL45       0.0266
     37  CG1       19.5810    5.3240  -16.8000 C.3    45  VAL45       0.0020
     38  CG2       21.5500    6.8630  -16.9380 C.3    45  VAL45       0.0020
     39  N         19.0610    6.5990  -13.2430 N.am   46  TYR46      -0.1976
     40  CA        18.1600    6.0560  -12.2420 C.3    46  TYR46       0.1639
     41  C         18.6240    6.2630  -10.8150 C.2    46  TYR46       0.2290
     42  O         19.7810    6.5970  -10.5570 O.2    46  TYR46      -0.2864
     43  CB        17.9230    4.5590  -12.5060 C.3    46  TYR46       0.0560
     44  CG        19.1500    3.6560  -12.4290 C.ar   46  TYR46      -0.0198
     45  CD1       19.6330    3.1930  -11.2000 C.ar   46  TYR46      -0.0009
     46  CD2       19.7790    3.2060  -13.5920 C.ar   46  TYR46      -0.0009
     47  CE1       20.7090    2.2930  -11.1380 C.ar   46  TYR46       0.0417
     48  CE2       20.8510    2.3130  -13.5410 C.ar   46  TYR46       0.0417
     49  CZ        21.3090    1.8570  -12.3110 C.ar   46  TYR46       0.1957
     50  OH        22.3510    0.9560  -12.2670 O.3    46  TYR46      -0.2866
     51  N         15.4660   -0.2260   -8.2190 N.3    92  ILE92      -0.1245
     52  CA        15.9300    0.7590   -9.1830 C.3    92  ILE92       0.1561
     53  C         14.7270    1.5120   -9.7240 C.2    92  ILE92       0.2260
     54  O         13.7470    0.8970  -10.1300 O.2    92  ILE92      -0.2867
     55  CB        16.6710    0.0710  -10.3440 C.3    92  ILE92       0.0252
     56  CG1       17.9750   -0.5330   -9.8200 C.3    92  ILE92       0.0019
     57  CG2       16.9250    1.0650  -11.4750 C.3    92  ILE92       0.0019
     58  CD1       18.7150   -1.3880  -10.8390 C.3    92  ILE92       0.0001
     59  N         13.7660    4.3380  -12.5500 N.3    94  LEU94      -0.1245
     60  CA        14.2590    5.1050  -13.6870 C.3    94  LEU94       0.1561
     61  C         13.8220    6.5600  -13.5920 C.2    94  LEU94       0.2260
     62  O         12.6770    6.8450  -13.2380 O.2    94  LEU94      -0.2867
     63  CB        13.7580    4.4970  -15.0030 C.3    94  LEU94       0.0270
     64  CG        14.1590    3.0470  -15.2930 C.3    94  LEU94       0.0019
     65  CD1       13.6940    2.6630  -16.6900 C.3    94  LEU94       0.0001
     66  CD2       15.6710    2.8890  -15.1730 C.3    94  LEU94       0.0001
     67  N         14.6150    4.7680  -21.0670 N.3    98  VAL98      -0.1245
     68  CA        15.7500    3.9510  -21.4790 C.3    98  VAL98       0.1561
     69  C         15.2470    3.0840  -22.6230 C.2    98  VAL98       0.2260
     70  O         14.3190    2.2950  -22.4400 O.2    98  VAL98      -0.2867
     71  CB        16.2460    3.0390  -20.3260 C.3    98  VAL98       0.0252
     72  CG1       17.3080    2.0710  -20.8380 C.3    98  VAL98       0.0019
     73  CG2       16.8130    3.8890  -19.2070 C.3    98  VAL98       0.0019
     74  N         20.0040    0.7700  -25.4770 N.3   102  THR102     -0.1203
     75  CA        20.6860    1.3100  -24.3130 C.3   102  THR102      0.1994
     76  C         20.6780    0.2640  -23.2050 C.2   102  THR102      0.2617
     77  O         21.6960    0.0170  -22.5620 O.2   102  THR102     -0.2717
     78  CB        19.9900    2.5870  -23.8070 C.3   102  THR102      0.1784
     79  OG1       20.0730    3.6000  -24.8170 O.3   102  THR102     -0.2211
     80  CG2       20.6460    3.0900  -22.5320 C.3   102  THR102      0.0376
     81  N         19.5200   -0.3520  -22.9960 N.am  103  PHE103     -0.1975
     82  CA        19.3850   -1.3730  -21.9660 C.3   103  PHE103      0.1639
     83  C         20.2670   -2.5930  -22.2300 C.2   103  PHE103      0.2290
     84  O         21.0070   -3.0270  -21.3520 O.2   103  PHE103     -0.2864
     85  CB        17.9270   -1.8160  -21.8520 C.3   103  PHE103      0.0560
     86  CG        17.6930   -2.8330  -20.7800 C.ar  103  PHE103     -0.0200
     87  CD1       17.6570   -2.4550  -19.4450 C.ar  103  PHE103     -0.0042
     88  CD2       17.5300   -4.1760  -21.1030 C.ar  103  PHE103     -0.0042
     89  CE1       17.4620   -3.4030  -18.4400 C.ar  103  PHE103     -0.0003
     90  CE2       17.3360   -5.1340  -20.1050 C.ar  103  PHE103     -0.0003
     91  CZ        17.3010   -4.7450  -18.7730 C.ar  103  PHE103     -0.0000
     92  N         24.0140   -1.8420  -21.7370 N.3   106  ALA106     -0.1231
     93  CA        24.3890   -1.7570  -20.3350 C.3   106  ALA106      0.1694
     94  C         24.4420   -3.1370  -19.6820 C.2   106  ALA106      0.2591
     95  O         25.3470   -3.4250  -18.8960 O.2   106  ALA106     -0.2718
     96  CB        23.4060   -0.8560  -19.5900 C.3   106  ALA106      0.0304
     97  N         23.4740   -3.9900  -20.0100 N.am  107  LEU107     -0.1980
     98  CA        23.4270   -5.3310  -19.4370 C.3   107  LEU107      0.1596
     99  C         24.6210   -6.1570  -19.9140 C.2   107  LEU107      0.2287
    100  O         25.2310   -6.8980  -19.1360 O.2   107  LEU107     -0.2864
    101  CB        22.1110   -6.0200  -19.8190 C.3   107  LEU107      0.0297
    102  CG        21.8410   -7.4080  -19.2290 C.3   107  LEU107      0.0022
    103  CD1       21.8780   -7.3460  -17.7070 C.3   107  LEU107      0.0001
    104  CD2       20.4810   -7.9080  -19.7130 C.3   107  LEU107      0.0001
    105  N         27.7950   -5.0220  -18.2870 N.3   110  ALA110     -0.1245
    106  CA        27.8450   -5.4170  -16.8860 C.3   110  ALA110      0.1562
    107  C         28.1050   -6.9090  -16.6890 C.2   110  ALA110      0.2260
    108  O         28.9190   -7.3010  -15.8510 O.2   110  ALA110     -0.2867
    109  CB        26.5410   -5.0220  -16.1920 C.3   110  ALA110      0.0290
    110  N         16.0790  -13.9480  -17.5700 N.3   129  PHE129     -0.1241
    111  CA        16.2200  -12.5650  -17.1120 C.3   129  PHE129      0.1605
    112  C         15.8480  -11.5860  -18.2310 C.2   129  PHE129      0.2264
    113  O         15.0490  -10.6690  -18.0320 O.2   129  PHE129     -0.2867
    114  CB        17.6680  -12.3130  -16.6750 C.3   129  PHE129      0.0534
    115  CG        17.9100  -10.9400  -16.0990 C.ar  129  PHE129     -0.0203
    116  CD1       17.8130  -10.7170  -14.7290 C.ar  129  PHE129     -0.0042
    117  CD2       18.2410   -9.8750  -16.9290 C.ar  129  PHE129     -0.0042
    118  CE1       18.0470   -9.4460  -14.1900 C.ar  129  PHE129     -0.0003
    119  CE2       18.4770   -8.6010  -16.4050 C.ar  129  PHE129     -0.0003
    120  CZ        18.3800   -8.3860  -15.0340 C.ar  129  PHE129     -0.0000
    121  N         12.4050   -8.2840  -19.9070 N.3   133  PHE133     -0.1241
    122  CA        12.5860   -6.9500  -20.4730 C.3   133  PHE133      0.1605
    123  C         12.3360   -6.8350  -21.9690 C.2   133  PHE133      0.2264
    124  O         12.1850   -5.7300  -22.4860 O.2   133  PHE133     -0.2867
    125  CB        14.0000   -6.4530  -20.1660 C.3   133  PHE133      0.0534
    126  CG        14.2860   -6.3200  -18.6990 C.ar  133  PHE133     -0.0203
    127  CD1       13.8370   -5.2140  -17.9880 C.ar  133  PHE133     -0.0042
    128  CD2       14.9800   -7.3160  -18.0230 C.ar  133  PHE133     -0.0042
    129  CE1       14.0720   -5.1020  -16.6220 C.ar  133  PHE133     -0.0003
    130  CE2       15.2220   -7.2150  -16.6530 C.ar  133  PHE133     -0.0003
    131  CZ        14.7660   -6.1040  -15.9520 C.ar  133  PHE133     -0.0000
    132  N         10.9470    0.6790  -21.1890 N.3   138  LEU138     -0.1245
    133  CA        11.4310    1.1010  -19.8810 C.3   138  LEU138      0.1561
    134  C         11.4030    2.6200  -19.8120 C.2   138  LEU138      0.2260
    135  O         12.4260    3.2830  -19.9750 O.2   138  LEU138     -0.2867
    136  CB        12.8580    0.5990  -19.6410 C.3   138  LEU138      0.0270
    137  CG        13.0310   -0.8980  -19.3850 C.3   138  LEU138      0.0019
    138  CD1       14.4990   -1.1940  -19.1190 C.3   138  LEU138      0.0001
    139  CD2       12.1840   -1.3210  -18.1940 C.3   138  LEU138      0.0001
    140  N         12.4380   -1.4310  -11.0600 N.3   144  ILE144     -0.1245
    141  CA        12.9680   -2.7700  -11.2470 C.3   144  ILE144      0.1561
    142  C         13.4320   -3.2700   -9.8890 C.2   144  ILE144      0.2260
    143  O         14.0460   -2.5300   -9.1290 O.2   144  ILE144     -0.2867
    144  CB        14.1680   -2.7660  -12.2230 C.3   144  ILE144      0.0252
    145  CG1       13.6950   -2.3420  -13.6160 C.3   144  ILE144      0.0019
    146  CG2       14.8210   -4.1470  -12.2680 C.3   144  ILE144      0.0019
    147  CD1       14.8250   -2.0680  -14.5820 C.3   144  ILE144      0.0001
    148  N         15.6060   -6.2710   -8.0320 N.3   146  LEU146     -0.1245
    149  CA        16.5720   -7.3540   -8.1560 C.3   146  LEU146      0.1561
    150  C         16.7050   -7.8750   -6.7320 C.2   146  LEU146      0.2260
    151  O         17.3530   -7.2530   -5.8900 O.2   146  LEU146     -0.2867
    152  CB        17.9200   -6.8330   -8.6460 C.3   146  LEU146      0.0270
    153  CG        17.9340   -6.1390  -10.0120 C.3   146  LEU146      0.0019
    154  CD1       19.3550   -5.7100  -10.3160 C.3   146  LEU146      0.0001
    155  CD2       17.4130   -7.0750  -11.1060 C.3   146  LEU146      0.0001
    156  N         25.7600   -9.6960  -10.7900 N.3   180  LEU180     -0.1245
    157  CA        24.8830   -8.5530  -10.5510 C.3   180  LEU180      0.1561
    158  C         25.2200   -7.8340   -9.2400 C.2   180  LEU180      0.2260
    159  O         25.1580   -6.6100   -9.1700 O.2   180  LEU180     -0.2867
    160  CB        23.4090   -8.9960  -10.5830 C.3   180  LEU180      0.0270
    161  CG        22.9210   -9.3090  -12.0060 C.3   180  LEU180      0.0019
    162  CD1       21.5160   -9.8670  -11.9850 C.3   180  LEU180      0.0001
    163  CD2       22.9680   -8.0340  -12.8410 C.3   180  LEU180      0.0001
    164  N         28.3290   -5.7110   -9.7910 N.3   183  VAL183     -0.1231
    165  CA        28.0340   -4.5230  -10.5920 C.3   183  VAL183      0.1692
    166  C         27.8210   -3.3100   -9.6860 C.2   183  VAL183      0.2592
    167  O         28.2880   -2.2070   -9.9810 O.2   183  VAL183     -0.2718
    168  CB        26.7540   -4.7450  -11.4450 C.3   183  VAL183      0.0266
    169  CG1       26.2640   -3.4180  -12.0460 C.3   183  VAL183      0.0020
    170  CG2       27.0460   -5.7490  -12.5580 C.3   183  VAL183      0.0020
    171  N         27.1370   -3.5280   -8.5660 N.am  184  PHE184     -0.1976
    172  CA        26.8260   -2.4420   -7.6380 C.3   184  PHE184      0.1639
    173  C         27.7380   -2.2770   -6.4290 C.2   184  PHE184      0.2290
    174  O         27.8900   -1.1650   -5.9200 O.2   184  PHE184     -0.2864
    175  CB        25.3830   -2.6030   -7.1560 C.3   184  PHE184      0.0560
    176  CG        24.3770   -2.5120   -8.2580 C.ar  184  PHE184     -0.0200
    177  CD1       23.9730   -1.2740   -8.7420 C.ar  184  PHE184     -0.0042
    178  CD2       23.8820   -3.6660   -8.8640 C.ar  184  PHE184     -0.0042
    179  CE1       23.0990   -1.1820   -9.8170 C.ar  184  PHE184     -0.0003
    180  CE2       23.0060   -3.5850   -9.9430 C.ar  184  PHE184     -0.0003
    181  CZ        22.6130   -2.3380  -10.4190 C.ar  184  PHE184     -0.0000
    182  N         28.7660    0.7750  -10.3660 N.3   190  VAL190     -0.1245
    183  CA        28.1470    1.6570  -11.3520 C.3   190  VAL190      0.1561
    184  C         27.5850    2.8820  -10.6450 C.2   190  VAL190      0.2260
    185  O         27.4160    3.9380  -11.2570 O.2   190  VAL190     -0.2867
    186  CB        27.0150    0.9570  -12.1470 C.3   190  VAL190      0.0252
    187  CG1       27.6060   -0.0600  -13.1050 C.3   190  VAL190      0.0019
    188  CG2       26.0220    0.2960  -11.1920 C.3   190  VAL190      0.0019
@<TRIPOS>BOND
     1    24    23    2
     2    74    75    1
     3    23    22    1
     4    79    78    1
     5    75    78    1
     6    75    76    1
     7    25    22    1
     8    25    26    1
     9    78    80    1
    10    22    21    1
    11    76    81   am
    12    76    77    2
    13    81    82    1
    14    27    26   ar
    15    27    29   ar
    16    26    28   ar
    17    69    70    2
    18    69    68    1
    19   124   123    2
    20    83    82    1
    21    83    84    2
    22   123   122    1
    23    82    85    1
    24    29    31   ar
    25    85    86    1
    26    28    30   ar
    27    92    93    1
    28    68    67    1
    29    68    71    1
    30   132   133    1
    31    20    19    1
    32    88    86   ar
    33    88    90   ar
    34    31    30   ar
    35    72    71    1
    36    19    18    1
    37    86    87   ar
    38   122   125    1
    39   122   121    1
    40    93    94    1
    41    93    96    1
    42    71    73    1
    43   125   126    1
    44    90    91   ar
    45    97    94   am
    46    97    98    1
    47   135   134    2
    48    99    98    1
    49    99   100    2
    50   133   134    1
    51   133   136    1
    52   101    98    1
    53   101   102    1
    54   104   102    1
    55    18    17    1
    56    94    95    2
    57   136   137    1
    58    87    89   ar
    59   137   138    1
    60   137   139    1
    61    17    16    1
    62   102   103    1
    63    15    14    2
    64    91    89   ar
    65   126   128   ar
    66   126   127   ar
    67    14    13    1
    68   105   106    1
    69   112   113    2
    70   112   111    1
    71    16    13    1
    72   128   130   ar
    73   127   129   ar
    74    13    12    1
    75   110   111    1
    76   111   114    1
    77    38    36    1
    78   117   119   ar
    79   117   115   ar
    80   106   107    1
    81   106   109    1
    82    37    36    1
    83    65    64    1
    84   107   108    2
    85   114   115    1
    86   130   131   ar
    87   129   131   ar
    88   119   120   ar
    89    11     9    1
    90   115   116   ar
    91    36    33    1
    92     9    10    1
    93     9     8    2
    94    33    32    1
    95    33    34    1
    96    64    66    1
    97    64    63    1
    98     8     7    1
    99   120   118   ar
   100    63    60    1
   101    35    34    2
   102   116   118   ar
   103   147   145    1
   104    34    39   am
   105     7     6    1
   106    60    61    1
   107    60    59    1
   108   145   144    1
   109    46    48   ar
   110    46    44   ar
   111    61    62    2
   112    48    49   ar
   113    39    40    1
   114     4     3    2
   115   187   186    1
   116   163   161    1
   117     6     5    1
   118     3     2    1
   119   170   168    1
   120    43    44    1
   121    43    40    1
   122    44    45   ar
   123    49    50    1
   124    49    47   ar
   125   146   144    1
   126    40    41    1
   127   144   141    1
   128   186   183    1
   129   186   188    1
   130   169   168    1
   131   161   162    1
   132   161   160    1
   133     5     2    1
   134     2     1    1
   135    57    55    1
   136   168   165    1
   137   183   184    1
   138   183   182    1
   139   185   184    2
   140   141   140    1
   141   141   142    1
   142    45    47   ar
   143   155   153    1
   144    58    56    1
   145    41    42    2
   146   156   157    1
   147   165   164    1
   148   165   166    1
   149   160   157    1
   150   157   158    1
   151   181   180   ar
   152   181   179   ar
   153    55    56    1
   154    55    52    1
   155   154   153    1
   156    54    53    2
   157   153   152    1
   158   167   166    2
   159   180   178   ar
   160   142   143    2
   161   179   177   ar
   162    53    52    1
   163   166   171   am
   164   158   159    2
   165    52    51    1
   166   178   176   ar
   167   177   176   ar
   168   152   149    1
   169   171   172    1
   170   176   175    1
   171   149   148    1
   172   149   150    1
   173   172   175    1
   174   172   173    1
   175   150   151    2
   176   173   174    2
