@<TRIPOS>MOLECULE
tmp/4donA00.pdb
 101 99 0 0 0
SMALL
GASTEIGER

@<TRIPOS>ATOM
      1  N          2.2970   -0.3820    0.8960 N.3    39  TRP39      -0.1228
      2  CA         2.0400   -1.6980    1.4830 C.3    39  TRP39       0.1722
      3  C          3.2690   -2.5450    1.8370 C.2    39  TRP39       0.2437
      4  O          3.2590   -3.2410    2.8530 O.2    39  TRP39      -0.2733
      5  CB         1.0430   -2.5090    0.6340 C.3    39  TRP39       0.0563
      6  CG         1.4950   -2.8120   -0.7560 C.ar   39  TRP39       0.0003
      7  CD1        1.2000   -2.1030   -1.8840 C.ar   39  TRP39       0.0946
      8  CD2        2.3130   -3.9120   -1.1760 C.ar   39  TRP39       0.0152
      9  NE1        1.7940   -2.6840   -2.9790 N.ar   39  TRP39      -0.2442
     10  CE2        2.4780   -3.8020   -2.5700 C.ar   39  TRP39       0.0810
     11  CE3        2.9240   -4.9780   -0.5060 C.ar   39  TRP39       0.0012
     12  CZ2        3.2360   -4.7070   -3.3080 C.ar   39  TRP39       0.0191
     13  CZ3        3.6710   -5.8850   -1.2410 C.ar   39  TRP39       0.0001
     14  CH2        3.8190   -5.7470   -2.6260 C.ar   39  TRP39       0.0015
     15  N          4.3320   -2.5000    1.0170 N.am   40  PRO40      -0.2718
     16  CA         5.4720   -3.3660    1.3580 C.3    40  PRO40       0.1535
     17  C          6.1910   -2.8990    2.6120 C.2    40  PRO40       0.2598
     18  O          6.9960   -3.6350    3.1940 O.2    40  PRO40      -0.2715
     19  CB         6.4110   -3.2030    0.1510 C.3    40  PRO40       0.0310
     20  CG         5.5600   -2.6340   -0.9420 C.3    40  PRO40       0.0237
     21  CD         4.5450   -1.7800   -0.2510 C.3    40  PRO40       0.0939
     22  N          5.8880   -1.6770    3.0290 N.am   41  PHE41      -0.1974
     23  CA         6.6290   -1.0310    4.1020 C.3    41  PHE41       0.1639
     24  C          5.7990   -0.8870    5.3600 C.2    41  PHE41       0.2290
     25  O          6.2410   -0.2670    6.3260 O.2    41  PHE41      -0.2864
     26  CB         7.1290    0.3400    3.6180 C.3    41  PHE41       0.0560
     27  CG         7.9600    0.2420    2.3770 C.ar   41  PHE41      -0.0200
     28  CD1        9.3020   -0.1130    2.4560 C.ar   41  PHE41      -0.0042
     29  CD2        7.3860    0.4350    1.1230 C.ar   41  PHE41      -0.0042
     30  CE1       10.0700   -0.2510    1.3190 C.ar   41  PHE41      -0.0003
     31  CE2        8.1500    0.3000   -0.0310 C.ar   41  PHE41      -0.0003
     32  CZ         9.4950   -0.0470    0.0660 C.ar   41  PHE41      -0.0000
     33  N          9.8140   -6.7050    7.4050 N.3    45  VAL45      -0.1245
     34  CA        10.0510   -7.6600    6.3250 C.3    45  VAL45       0.1561
     35  C          9.9160   -9.0720    6.8830 C.2    45  VAL45       0.2260
     36  O         10.5470   -9.4200    7.8820 O.2    45  VAL45      -0.2867
     37  CB        11.4420   -7.4870    5.6860 C.3    45  VAL45       0.0252
     38  CG1       11.7270   -8.6130    4.6870 C.3    45  VAL45       0.0019
     39  CG2       11.5530   -6.1290    5.0090 C.3    45  VAL45       0.0019
     40  N          7.9620  -13.8970    2.2730 N.3    50  LEU50      -0.1245
     41  CA         8.3830  -13.2780    1.0160 C.3    50  LEU50       0.1561
     42  C          9.4530  -14.0940    0.2940 C.2    50  LEU50       0.2260
     43  O          9.8820  -13.7400   -0.8040 O.2    50  LEU50      -0.2867
     44  CB         8.8910  -11.8450    1.2680 C.3    50  LEU50       0.0270
     45  CG         7.8500  -10.8450    1.7690 C.3    50  LEU50       0.0019
     46  CD1        8.5150   -9.5570    2.2450 C.3    50  LEU50       0.0001
     47  CD2        6.8160  -10.5570    0.6860 C.3    50  LEU50       0.0001
     48  N         12.5950  -14.4890    1.2110 N.3    52  LEU52      -0.1245
     49  CA        13.8340  -13.7190    1.2110 C.3    52  LEU52       0.1561
     50  C         14.7110  -14.2260    2.3460 C.2    52  LEU52       0.2260
     51  O         14.9720  -13.5110    3.3100 O.2    52  LEU52      -0.2867
     52  CB        13.5350  -12.2240    1.4040 C.3    52  LEU52       0.0270
     53  CG        12.4870  -11.6220    0.4680 C.3    52  LEU52       0.0019
     54  CD1       12.1080  -10.1980    0.8880 C.3    52  LEU52       0.0001
     55  CD2       13.0010  -11.6290   -0.9540 C.3    52  LEU52       0.0001
     56  N         17.5420  -12.1040    3.7890 N.3    55  TYR55      -0.1241
     57  CA        17.2790  -10.6960    4.1010 C.3    55  TYR55       0.1605
     58  C         18.0010  -10.2530    5.3680 C.2    55  TYR55       0.2264
     59  O         18.7240   -9.2570    5.3590 O.2    55  TYR55      -0.2867
     60  CB        15.7810  -10.4070    4.2260 C.3    55  TYR55       0.0534
     61  CG        15.5030   -8.9310    4.4020 C.ar   55  TYR55      -0.0201
     62  CD1       15.3980   -8.0950    3.2990 C.ar   55  TYR55      -0.0009
     63  CD2       15.3820   -8.3760    5.6610 C.ar   55  TYR55      -0.0009
     64  CE1       15.1660   -6.7330    3.4390 C.ar   55  TYR55       0.0417
     65  CE2       15.1450   -7.0130    5.8210 C.ar   55  TYR55       0.0417
     66  CZ        15.0400   -6.1990    4.7000 C.ar   55  TYR55       0.1957
     67  OH        14.8100   -4.8420    4.8500 O.3    55  TYR55      -0.2866
     68  N         16.1780   -0.8430    2.0250 N.3    94  CYS94      -0.1235
     69  CA        15.5880   -1.2930    0.7700 C.3    94  CYS94       0.1677
     70  C         16.5880   -1.1570   -0.3780 C.2    94  CYS94       0.2270
     71  O         16.6960   -2.0500   -1.2270 O.2    94  CYS94      -0.2867
     72  CB        14.2870   -0.5330    0.4870 C.3    94  CYS94       0.0956
     73  SG        13.3620   -1.1500   -0.9360 S.3    94  CYS94      -0.0801
     74  N         19.5240   -3.9560    0.1490 N.3    97  TYR97      -0.1227
     75  CA        19.1890   -5.3490   -0.1390 C.3    97  TYR97       0.1736
     76  C         18.8460   -5.5750   -1.6120 C.2    97  TYR97       0.2595
     77  O         19.1920   -6.6110   -2.1920 O.2    97  TYR97      -0.2718
     78  CB        18.0210   -5.8200    0.7310 C.3    97  TYR97       0.0548
     79  CG        17.6420   -7.2680    0.4640 C.ar   97  TYR97      -0.0200
     80  CD1       18.4170   -8.3090    0.9590 C.ar   97  TYR97      -0.0009
     81  CD2       16.5200   -7.5850   -0.2880 C.ar   97  TYR97      -0.0009
     82  CE1       18.0860   -9.6370    0.7010 C.ar   97  TYR97       0.0417
     83  CE2       16.1780   -8.9090   -0.5490 C.ar   97  TYR97       0.0417
     84  CZ        16.9640   -9.9280   -0.0470 C.ar   97  TYR97       0.1957
     85  OH        16.6320  -11.2420   -0.3000 O.3    97  TYR97      -0.2866
     86  N         18.1390   -4.6200   -2.2020 N.am   98  ASN98      -0.1974
     87  CA        17.6950   -4.7330   -3.5850 C.3    98  ASN98       0.1688
     88  C         18.5670   -3.9140   -4.5290 C.2    98  ASN98       0.2292
     89  O         19.5020   -3.2480   -4.0950 O.2    98  ASN98      -0.2864
     90  CB        16.2320   -4.3080   -3.7070 C.3    98  ASN98       0.1181
     91  CG        15.3300   -5.0460   -2.7320 C.2    98  ASN98       0.2629
     92  OD1       14.9760   -6.2000   -2.9520 O.2    98  ASN98      -0.2716
     93  ND2       14.9560   -4.3790   -1.6490 N.am   98  ASN98      -0.0877
     94  N         10.5020   -3.0250   -6.1420 N.3   104  ILE104     -0.1245
     95  CA        10.4710   -2.6060   -4.7430 C.3   104  ILE104      0.1561
     96  C         11.2790   -1.3260   -4.5300 C.2   104  ILE104      0.2260
     97  O         10.9020   -0.4690   -3.7190 O.2   104  ILE104     -0.2867
     98  CB        10.9630   -3.7280   -3.7890 C.3   104  ILE104      0.0252
     99  CG1       10.7340   -3.3240   -2.3310 C.3   104  ILE104      0.0019
    100  CG2       12.4250   -4.0610   -4.0440 C.3   104  ILE104      0.0019
    101  CD1        9.2790   -3.2530   -1.9610 C.3   104  ILE104      0.0001
@<TRIPOS>BOND
     1    94    95    1
     2    95    96    1
     3    95    98    1
     4    96    97    2
     5    88    89    2
     6    88    87    1
     7   100    98    1
     8    98    99    1
     9    90    87    1
    10    90    91    1
    11    87    86    1
    12    12    14   ar
    13    12    10   ar
    14     9    10   ar
    15     9     7   ar
    16    92    91    2
    17    91    93   am
    18    14    13   ar
    19    10     8   ar
    20    99   101    1
    21    86    76   am
    22    77    76    2
    23     7     6   ar
    24    76    75    1
    25    13    11   ar
    26    71    70    2
    27     8     6   ar
    28     8    11   ar
    29    55    53    1
    30    20    21    1
    31    20    19    1
    32    73    72    1
    33    43    42    2
    34     6     5    1
    35    83    81   ar
    36    83    84   ar
    37    70    69    1
    38    85    84    1
    39    81    79   ar
    40    21    15    1
    41    75    74    1
    42    75    78    1
    43    84    82   ar
    44    31    32   ar
    45    31    29   ar
    46    32    30   ar
    47    19    16    1
    48    42    41    1
    49    79    78    1
    50    79    80   ar
    51    53    54    1
    52    53    52    1
    53    72    69    1
    54     5     2    1
    55    47    45    1
    56    82    80   ar
    57    69    68    1
    58     1     2    1
    59    41    44    1
    60    41    40    1
    61    15    16    1
    62    15     3   am
    63    29    27   ar
    64    48    49    1
    65    49    52    1
    66    49    50    1
    67    44    45    1
    68    30    28   ar
    69    16    17    1
    70     2     3    1
    71    45    46    1
    72     3     4    2
    73    50    51    2
    74    27    28   ar
    75    27    26    1
    76    17    22   am
    77    17    18    2
    78    22    23    1
    79    62    64   ar
    80    62    61   ar
    81    64    66   ar
    82    26    23    1
    83    56    57    1
    84    57    60    1
    85    57    58    1
    86    23    24    1
    87    60    61    1
    88    61    63   ar
    89    38    37    1
    90    66    67    1
    91    66    65   ar
    92    39    37    1
    93    59    58    2
    94    24    25    2
    95    63    65   ar
    96    37    34    1
    97    34    35    1
    98    34    33    1
    99    35    36    2
