@<TRIPOS>MOLECULE
tmp/4dooB00.pdb
 188 177 0 0 0
SMALL
GASTEIGER

@<TRIPOS>ATOM
      1  N         -7.5420   -9.4310  -35.1150 N.3    28  ARG28      -0.1245
      2  CA        -8.0870   -8.6170  -36.1880 C.3    28  ARG28       0.1563
      3  C         -7.6920   -7.2000  -35.8120 C.2    28  ARG28       0.2260
      4  O         -8.1440   -6.6610  -34.7990 O.2    28  ARG28      -0.2867
      5  CB        -9.6090   -8.7570  -36.2520 C.3    28  ARG28       0.0307
      6  CG       -10.2600   -8.1800  -37.5130 C.3    28  ARG28       0.0489
      7  CD       -10.5030   -6.6780  -37.4490 C.3    28  ARG28       0.2205
      8  NE       -11.5320   -6.2970  -38.4170 N.pl3  28  ARG28      -0.0865
      9  CZ       -11.4370   -5.2930  -39.2840 C.cat  28  ARG28       0.5346
     10  NH1      -10.3480   -4.5370  -39.3230 N.pl3  28  ARG28       0.1354
     11  NH2      -12.4350   -5.0530  -40.1280 N.pl3  28  ARG28       0.1354
     12  N        -10.1110   -7.0720  -32.0020 N.3    41  TYR41      -0.1241
     13  CA       -10.5460   -8.2590  -31.2850 C.3    41  TYR41       0.1605
     14  C         -9.6760   -9.4630  -31.6150 C.2    41  TYR41       0.2264
     15  O         -9.0150   -9.5090  -32.6520 O.2    41  TYR41      -0.2867
     16  CB       -12.0170   -8.6020  -31.6080 C.3    41  TYR41       0.0534
     17  CG       -12.3240   -8.9300  -33.0690 C.ar   41  TYR41      -0.0201
     18  CD1      -12.8900   -7.9760  -33.9150 C.ar   41  TYR41      -0.0009
     19  CD2      -12.0770  -10.2040  -33.5930 C.ar   41  TYR41      -0.0009
     20  CE1      -13.2170   -8.2820  -35.2500 C.ar   41  TYR41       0.0417
     21  CE2      -12.3950  -10.5200  -34.9300 C.ar   41  TYR41       0.0417
     22  CZ       -12.9690   -9.5530  -35.7460 C.ar   41  TYR41       0.1957
     23  OH       -13.3330   -9.8640  -37.0440 O.3    41  TYR41      -0.2866
     24  N        -15.2700  -14.4220  -31.4150 N.3    89  LEU89      -0.1245
     25  CA       -14.6130  -13.1230  -31.2930 C.3    89  LEU89       0.1561
     26  C        -14.6490  -12.6660  -29.8420 C.2    89  LEU89       0.2260
     27  O        -15.6720  -12.7940  -29.1690 O.2    89  LEU89      -0.2867
     28  CB       -15.3260  -12.0630  -32.1390 C.3    89  LEU89       0.0270
     29  CG       -15.3800  -12.1830  -33.6580 C.3    89  LEU89       0.0019
     30  CD1      -16.3070  -13.3120  -34.0620 C.3    89  LEU89       0.0001
     31  CD2      -15.8820  -10.8670  -34.2350 C.3    89  LEU89       0.0001
     32  N        -20.3690    1.8580  -31.9280 N.3    98  ILE98      -0.1245
     33  CA       -21.2300    0.9300  -32.6450 C.3    98  ILE98       0.1561
     34  C        -21.5870    1.3740  -34.0660 C.2    98  ILE98       0.2260
     35  O        -21.7410    0.5390  -34.9590 O.2    98  ILE98      -0.2867
     36  CB       -22.5110    0.6310  -31.8350 C.3    98  ILE98       0.0252
     37  CG1      -23.1360   -0.6710  -32.3360 C.3    98  ILE98       0.0019
     38  CG2      -23.5000    1.7850  -31.9510 C.3    98  ILE98       0.0019
     39  CD1      -24.0870   -1.2990  -31.3490 C.3    98  ILE98       0.0001
     40  N        -18.6200    0.5460  -36.0580 N.3   101  VAL101     -0.1231
     41  CA       -18.4740   -0.9030  -36.1610 C.3   101  VAL101      0.1692
     42  C        -19.3850   -1.4320  -37.2610 C.2   101  VAL101      0.2591
     43  O        -18.9750   -2.2790  -38.0500 O.2   101  VAL101     -0.2718
     44  CB       -18.8070   -1.6170  -34.8300 C.3   101  VAL101      0.0266
     45  CG1      -18.9700   -3.1260  -35.0640 C.3   101  VAL101      0.0020
     46  CG2      -17.6770   -1.3880  -33.8290 C.3   101  VAL101      0.0020
     47  N        -20.6170   -0.9310  -37.3170 N.am  102  ARG102     -0.1980
     48  CA       -21.5510   -1.3600  -38.3530 C.3   102  ARG102      0.1597
     49  C        -21.0080   -0.9730  -39.7300 C.2   102  ARG102      0.2287
     50  O        -21.0410   -1.7660  -40.6650 O.2   102  ARG102     -0.2864
     51  CB       -22.9350   -0.7380  -38.1330 C.3   102  ARG102      0.0334
     52  CG       -23.7040   -1.3470  -36.9640 C.3   102  ARG102      0.0492
     53  CD       -25.1060   -0.7660  -36.8330 C.3   102  ARG102      0.2205
     54  NE       -25.9090   -1.4850  -35.8450 N.pl3 102  ARG102     -0.0865
     55  CZ       -26.2270   -1.0170  -34.6400 C.cat 102  ARG102      0.5346
     56  NH1      -25.8130    0.1850  -34.2570 N.pl3 102  ARG102      0.1354
     57  NH2      -26.9680   -1.7530  -33.8150 N.pl3 102  ARG102      0.1354
     58  N        -17.9960   -0.6210  -40.5130 N.3   104  ALA104     -0.1231
     59  CA       -16.8360   -1.4700  -40.7230 C.3   104  ALA104      0.1694
     60  C        -17.1410   -2.8750  -41.2320 C.2   104  ALA104      0.2592
     61  O        -16.5050   -3.3320  -42.1810 O.2   104  ALA104     -0.2718
     62  CB       -16.0150   -1.5480  -39.4420 C.3   104  ALA104      0.0304
     63  N        -18.0920   -3.5750  -40.6200 N.am  105  PHE105     -0.1976
     64  CA       -18.3690   -4.9240  -41.1020 C.3   105  PHE105      0.1639
     65  C        -19.1920   -4.9370  -42.3890 C.2   105  PHE105      0.2290
     66  O        -19.1700   -5.9070  -43.1460 O.2   105  PHE105     -0.2864
     67  CB       -18.9870   -5.8150  -39.9960 C.3   105  PHE105      0.0560
     68  CG       -20.4050   -5.4790  -39.6030 C.ar  105  PHE105     -0.0200
     69  CD1      -21.4600   -5.6200  -40.5050 C.ar  105  PHE105     -0.0042
     70  CD2      -20.6960   -5.1290  -38.2880 C.ar  105  PHE105     -0.0042
     71  CE1      -22.7780   -5.4250  -40.1010 C.ar  105  PHE105     -0.0003
     72  CE2      -22.0140   -4.9330  -37.8740 C.ar  105  PHE105     -0.0003
     73  CZ       -23.0570   -5.0840  -38.7860 C.ar  105  PHE105     -0.0000
     74  N        -16.3240   -4.7990  -44.8340 N.3   108  SER108     -0.1202
     75  CA       -15.5640   -6.0430  -44.9170 C.3   108  SER108      0.2020
     76  C        -16.4120   -7.1810  -45.4730 C.2   108  SER108      0.2618
     77  O        -16.0130   -7.8590  -46.4240 O.2   108  SER108     -0.2717
     78  CB       -15.0130   -6.4290  -43.5390 C.3   108  SER108      0.2103
     79  OG       -16.0600   -6.7300  -42.6330 O.3   108  SER108     -0.2182
     80  N        -17.5860   -7.3920  -44.8860 N.am  109  VAL109     -0.1979
     81  CA       -18.4630   -8.4600  -45.3500 C.3   109  VAL109      0.1595
     82  C        -18.9870   -8.1410  -46.7480 C.2   109  VAL109      0.2287
     83  O        -19.0900   -9.0290  -47.5990 O.2   109  VAL109     -0.2864
     84  CB       -19.6500   -8.6680  -44.3820 C.3   109  VAL109      0.0276
     85  CG1      -20.5830   -9.7550  -44.9120 C.3   109  VAL109      0.0022
     86  CG2      -19.1240   -9.0500  -43.0120 C.3   109  VAL109      0.0022
     87  N        -27.9470   -9.4840  -42.5590 N.3   128  PHE128     -0.1241
     88  CA       -26.8800   -9.7390  -41.5830 C.3   128  PHE128      0.1605
     89  C        -26.8560   -8.5740  -40.5890 C.2   128  PHE128      0.2264
     90  O        -26.8860   -8.7650  -39.3680 O.2   128  PHE128     -0.2867
     91  CB       -25.5240   -9.8460  -42.3020 C.3   128  PHE128      0.0534
     92  CG       -24.3470  -10.0350  -41.3710 C.ar  128  PHE128     -0.0203
     93  CD1      -24.1960  -11.2100  -40.6440 C.ar  128  PHE128     -0.0042
     94  CD2      -23.3980   -9.0290  -41.2180 C.ar  128  PHE128     -0.0042
     95  CE1      -23.1120  -11.3820  -39.7730 C.ar  128  PHE128     -0.0003
     96  CE2      -22.3140   -9.1870  -40.3530 C.ar  128  PHE128     -0.0003
     97  CZ       -22.1730  -10.3670  -39.6320 C.ar  128  PHE128     -0.0000
     98  N        -28.0770   -7.4850  -35.6180 N.3   132  PHE132     -0.1241
     99  CA       -27.5230   -6.6830  -34.5310 C.3   132  PHE132      0.1605
    100  C        -28.3230   -5.4140  -34.2040 C.2   132  PHE132      0.2264
    101  O        -27.8330   -4.5290  -33.4960 O.2   132  PHE132     -0.2867
    102  CB       -26.0800   -6.3010  -34.8810 C.3   132  PHE132      0.0534
    103  CG       -25.2370   -7.4690  -35.3440 C.ar  132  PHE132     -0.0203
    104  CD1      -25.0640   -7.7280  -36.6980 C.ar  132  PHE132     -0.0042
    105  CD2      -24.6470   -8.3270  -34.4190 C.ar  132  PHE132     -0.0042
    106  CE1      -24.3160   -8.8280  -37.1290 C.ar  132  PHE132     -0.0003
    107  CE2      -23.9000   -9.4250  -34.8330 C.ar  132  PHE132     -0.0003
    108  CZ       -23.7320   -9.6790  -36.1910 C.ar  132  PHE132     -0.0000
    109  N        -28.4090   -4.1020  -30.5100 N.3   135  GLU135     -0.1245
    110  CA       -27.1670   -3.8170  -29.7940 C.3   135  GLU135      0.1567
    111  C        -26.8140   -2.3350  -29.7630 C.2   135  GLU135      0.2260
    112  O        -27.0570   -1.6080  -30.7320 O.2   135  GLU135     -0.2867
    113  CB       -26.0140   -4.6010  -30.4260 C.3   135  GLU135      0.0388
    114  CG       -26.2780   -6.0970  -30.4930 C.3   135  GLU135      0.1160
    115  CD       -26.3840   -6.7310  -29.1220 C.2   135  GLU135      0.3649
    116  OE1      -27.2480   -7.6110  -28.9460 O.co2 135  GLU135     -0.2457
    117  OE2      -25.5960   -6.3620  -28.2250 O.co2 135  GLU135     -0.2457
    118  N        -20.4130   -2.6510  -27.4790 N.3   138  ILE138     -0.1245
    119  CA       -19.5220   -3.7730  -27.7980 C.3   138  ILE138      0.1561
    120  C        -18.3360   -3.6030  -26.8600 C.2   138  ILE138      0.2260
    121  O        -17.2600   -3.1910  -27.2860 O.2   138  ILE138     -0.2867
    122  CB       -18.9490   -3.6960  -29.2320 C.3   138  ILE138      0.0252
    123  CG1      -19.9620   -3.0680  -30.1820 C.3   138  ILE138      0.0019
    124  CG2      -18.5650   -5.0940  -29.7020 C.3   138  ILE138      0.0019
    125  CD1      -21.2620   -3.8170  -30.2790 C.3   138  ILE138      0.0001
    126  N        -18.5610  -12.8170  -29.1340 N.3   144  ILE144     -0.1245
    127  CA       -19.5330  -12.9690  -30.2120 C.3   144  ILE144      0.1561
    128  C        -19.1830  -14.2350  -30.9780 C.2   144  ILE144      0.2260
    129  O        -18.0460  -14.4060  -31.4290 O.2   144  ILE144     -0.2867
    130  CB       -19.5050  -11.7730  -31.1880 C.3   144  ILE144      0.0252
    131  CG1      -19.9070  -10.4970  -30.4440 C.3   144  ILE144      0.0019
    132  CG2      -20.4550  -12.0300  -32.3660 C.3   144  ILE144      0.0019
    133  CD1      -19.8810   -9.2600  -31.2990 C.3   144  ILE144      0.0001
    134  N        -19.8740  -16.4680  -34.2830 N.3   146  LEU146     -0.1245
    135  CA       -20.4450  -16.5180  -35.6260 C.3   146  LEU146      0.1561
    136  C        -20.4270  -18.0040  -35.9380 C.2   146  LEU146      0.2260
    137  O        -19.3620  -18.5920  -36.1400 O.2   146  LEU146     -0.2867
    138  CB       -19.5620  -15.7680  -36.6250 C.3   146  LEU146      0.0270
    139  CG       -19.2530  -14.3110  -36.2640 C.3   146  LEU146      0.0019
    140  CD1      -18.4080  -13.6940  -37.3660 C.3   146  LEU146      0.0001
    141  CD2      -20.5570  -13.5320  -36.0760 C.3   146  LEU146      0.0001
    142  N        -24.4430  -13.4490  -29.0100 N.3   158  ILE158     -0.1245
    143  CA       -23.6870  -12.3800  -28.3720 C.3   158  ILE158      0.1561
    144  C        -23.7480  -12.5780  -26.8700 C.2   158  ILE158      0.2260
    145  O        -24.8330  -12.6620  -26.2940 O.2   158  ILE158     -0.2867
    146  CB       -24.2670  -10.9960  -28.7190 C.3   158  ILE158      0.0252
    147  CG1      -24.0740  -10.7170  -30.2170 C.3   158  ILE158      0.0019
    148  CG2      -23.5760   -9.9200  -27.8950 C.3   158  ILE158      0.0019
    149  CD1      -24.7140   -9.4270  -30.6890 C.3   158  ILE158      0.0001
    150  N        -18.1250  -14.6760  -44.9610 N.3   175  ILE175     -0.1245
    151  CA       -17.6530  -14.3530  -43.6220 C.3   175  ILE175      0.1561
    152  C        -16.4370  -15.2010  -43.2570 C.2   175  ILE175      0.2260
    153  O        -15.4530  -14.6810  -42.7350 O.2   175  ILE175     -0.2867
    154  CB       -18.7540  -14.5680  -42.5680 C.3   175  ILE175      0.0252
    155  CG1      -19.8280  -13.4880  -42.7250 C.3   175  ILE175      0.0019
    156  CG2      -18.1490  -14.5110  -41.1580 C.3   175  ILE175      0.0019
    157  CD1      -21.0400  -13.6960  -41.8430 C.3   175  ILE175      0.0001
    158  N        -12.9500  -14.0970  -44.5680 N.3   178  LEU178     -0.1231
    159  CA       -12.2320  -13.0190  -43.8940 C.3   178  LEU178      0.1693
    160  C        -11.2000  -13.5600  -42.9100 C.2   178  LEU178      0.2592
    161  O        -10.1940  -12.9060  -42.6240 O.2   178  LEU178     -0.2718
    162  CB       -13.2190  -12.1210  -43.1360 C.3   178  LEU178      0.0284
    163  CG       -14.2570  -11.3560  -43.9640 C.3   178  LEU178      0.0019
    164  CD1      -15.2970  -10.7290  -43.0340 C.3   178  LEU178      0.0001
    165  CD2      -13.5650  -10.2820  -44.8060 C.3   178  LEU178      0.0001
    166  N        -11.4480  -14.7670  -42.4110 N.am  179  TYR179     -0.1976
    167  CA       -10.5780  -15.3830  -41.4210 C.3   179  TYR179      0.1639
    168  C         -9.6690  -16.4910  -41.9240 C.2   179  TYR179      0.2290
    169  O         -8.5480  -16.6410  -41.4400 O.2   179  TYR179     -0.2864
    170  CB       -11.4360  -15.9370  -40.2820 C.3   179  TYR179      0.0560
    171  CG       -12.3260  -14.8930  -39.6610 C.ar  179  TYR179     -0.0198
    172  CD1      -11.8250  -13.9970  -38.7120 C.ar  179  TYR179     -0.0009
    173  CD2      -13.6600  -14.7700  -40.0500 C.ar  179  TYR179     -0.0009
    174  CE1      -12.6310  -13.0020  -38.1650 C.ar  179  TYR179      0.0417
    175  CE2      -14.4740  -13.7840  -39.5100 C.ar  179  TYR179      0.0417
    176  CZ       -13.9550  -12.9040  -38.5700 C.ar  179  TYR179      0.1957
    177  OH       -14.7690  -11.9400  -38.0310 O.3   179  TYR179     -0.2866
    178  N         -7.4490  -11.8500  -42.0460 N.3   185  PHE185     -0.1241
    179  CA        -7.1400  -10.8070  -41.0780 C.3   185  PHE185      0.1605
    180  C         -5.8000  -11.1070  -40.4130 C.2   185  PHE185      0.2264
    181  O         -5.0650  -10.1990  -40.0330 O.2   185  PHE185     -0.2867
    182  CB        -8.2240  -10.7550  -39.9940 C.3   185  PHE185      0.0534
    183  CG        -9.4880  -10.0620  -40.4170 C.ar  185  PHE185     -0.0203
    184  CD1      -10.7270  -10.6280  -40.1400 C.ar  185  PHE185     -0.0042
    185  CD2       -9.4450   -8.8200  -41.0420 C.ar  185  PHE185     -0.0042
    186  CE1      -11.9060   -9.9680  -40.4760 C.ar  185  PHE185     -0.0003
    187  CE2      -10.6160   -8.1490  -41.3840 C.ar  185  PHE185     -0.0003
    188  CZ       -11.8510   -8.7240  -41.0990 C.ar  185  PHE185     -0.0000
@<TRIPOS>BOND
     1    83    82    2
     2    82    81    1
     3    77    76    2
     4    76    75    1
     5    76    80   am
     6    81    80    1
     7    81    84    1
     8   150   151    1
     9    75    74    1
    10    75    78    1
    11    85    84    1
    12   165   163    1
    13   158   159    1
    14    84    86    1
    15   163   162    1
    16   163   164    1
    17   159   162    1
    18   159   160    1
    19   151   152    1
    20   151   154    1
    21    78    79    1
    22   152   153    2
    23    66    65    2
    24   160   161    2
    25   160   166   am
    26   155   154    1
    27   155   157    1
    28   154   156    1
    29    87    88    1
    30   166   167    1
    31    65    64    1
    32    91    88    1
    33    91    92    1
    34    61    60    2
    35   178   179    1
    36   168   169    2
    37   168   167    1
    38    88    89    1
    39   167   170    1
    40   187   188   ar
    41   187   185   ar
    42    92    94   ar
    43    92    93   ar
    44    60    59    1
    45    60    63   am
    46    94    96   ar
    47    64    63    1
    48    64    67    1
    49   188   186   ar
    50   179   180    1
    51   179   182    1
    52   185   183   ar
    53    59    58    1
    54    59    62    1
    55    50    49    2
    56    93    95   ar
    57    89    90    2
    58    69    71   ar
    59    69    68   ar
    60   186   184   ar
    61   183   184   ar
    62   183   182    1
    63   180   181    2
    64    96    97   ar
    65   170   171    1
    66    11     9    1
    67    71    73   ar
    68   173   171   ar
    69   173   175   ar
    70    67    68    1
    71    95    97   ar
    72    49    48    1
    73   171   172   ar
    74    68    70   ar
    75   175   176   ar
    76    10     9    1
    77     9     8    2
    78    73    72   ar
    79   172   174   ar
    80   176   174   ar
    81   176   177    1
    82     8     7    1
    83    48    51    1
    84    48    47    1
    85    70    72   ar
    86    51    52    1
    87    43    42    2
    88     6     7    1
    89     6     5    1
    90   140   139    1
    91    47    42   am
    92    42    41    1
    93   106   104   ar
    94   106   108   ar
    95    23    22    1
    96    52    53    1
    97    53    54    1
    98   104   103   ar
    99   138   139    1
   100   138   135    1
   101   139   141    1
   102     5     2    1
   103   108   107   ar
   104     2     3    1
   105     2     1    1
   106    41    40    1
   107    41    44    1
   108   137   136    2
   109   136   135    1
   110    54    55    2
   111     3     4    2
   112    22    20   ar
   113    22    21   ar
   114   135   134    1
   115    98    99    1
   116   103   102    1
   117   103   105   ar
   118    20    18   ar
   119    45    44    1
   120    35    34    2
   121    21    19   ar
   122   102    99    1
   123   107   105   ar
   124    44    46    1
   125    55    56    1
   126    55    57    1
   127    99   100    1
   128    31    29    1
   129   100   101    2
   130    34    33    1
   131    30    29    1
   132    18    17   ar
   133    29    28    1
   134    19    17   ar
   135    17    16    1
   136    15    14    2
   137    33    32    1
   138    33    36    1
   139   132   130    1
   140    37    36    1
   141    37    39    1
   142    28    25    1
   143    12    13    1
   144    38    36    1
   145    14    13    1
   146    16    13    1
   147   129   128    2
   148    24    25    1
   149   133   131    1
   150    25    26    1
   151   130   131    1
   152   130   127    1
   153   128   127    1
   154   112   111    2
   155   149   147    1
   156   109   110    1
   157   114   113    1
   158   114   115    1
   159   113   110    1
   160   125   123    1
   161   147   146    1
   162   127   126    1
   163   123   122    1
   164    26    27    2
   165   110   111    1
   166   124   122    1
   167   122   119    1
   168   115   116   ar
   169   115   117   ar
   170   142   143    1
   171   146   143    1
   172   146   148    1
   173   143   144    1
   174   119   118    1
   175   119   120    1
   176   121   120    2
   177   144   145    2
