@<TRIPOS>MOLECULE
tmp/4dooB01.pdb
 153 143 0 0 0
SMALL
GASTEIGER

@<TRIPOS>ATOM
      1  N         -7.5420   -9.4310  -35.1150 N.3    28  ARG28      -0.1245
      2  CA        -8.0870   -8.6170  -36.1880 C.3    28  ARG28       0.1563
      3  C         -7.6920   -7.2000  -35.8120 C.2    28  ARG28       0.2260
      4  O         -8.1440   -6.6610  -34.7990 O.2    28  ARG28      -0.2867
      5  CB        -9.6090   -8.7570  -36.2520 C.3    28  ARG28       0.0307
      6  CG       -10.2600   -8.1800  -37.5130 C.3    28  ARG28       0.0489
      7  CD       -10.5030   -6.6780  -37.4490 C.3    28  ARG28       0.2205
      8  NE       -11.5320   -6.2970  -38.4170 N.pl3  28  ARG28      -0.0865
      9  CZ       -11.4370   -5.2930  -39.2840 C.cat  28  ARG28       0.5346
     10  NH1      -10.3480   -4.5370  -39.3230 N.pl3  28  ARG28       0.1354
     11  NH2      -12.4350   -5.0530  -40.1280 N.pl3  28  ARG28       0.1354
     12  N         -6.9090   -3.0140  -36.9820 N.3    30  LYS30      -0.1245
     13  CA        -7.4840   -1.9650  -37.8020 C.3    30  LYS30       0.1561
     14  C         -6.3880   -0.9380  -38.0170 C.2    30  LYS30       0.2260
     15  O         -5.9860   -0.2540  -37.0810 O.2    30  LYS30      -0.2867
     16  CB        -8.6630   -1.2990  -37.0990 C.3    30  LYS30       0.0271
     17  CG        -9.2330   -0.1220  -37.8750 C.3    30  LYS30       0.0035
     18  CD        -9.8000   -0.5630  -39.2170 C.3    30  LYS30       0.0206
     19  CE       -10.1550    0.6320  -40.0840 C.3    30  LYS30       0.1093
     20  NZ       -11.0310    1.5990  -39.3650 N.3    30  LYS30      -0.1314
     21  N         -5.0220    2.4090  -38.8780 N.3    32  LEU32      -0.1245
     22  CA        -5.5470    3.7600  -38.9200 C.3    32  LEU32       0.1561
     23  C         -4.5390    4.6540  -39.6370 C.2    32  LEU32       0.2260
     24  O         -3.6220    4.1590  -40.2940 O.2    32  LEU32      -0.2867
     25  CB        -5.8210    4.2610  -37.4990 C.3    32  LEU32       0.0270
     26  CG        -6.8560    3.4310  -36.7260 C.3    32  LEU32       0.0019
     27  CD1       -7.0150    3.9690  -35.3180 C.3    32  LEU32       0.0001
     28  CD2       -8.1920    3.4670  -37.4610 C.3    32  LEU32       0.0001
     29  N         -4.7060   -0.4820  -34.1440 N.3    38  ILE38      -0.1245
     30  CA        -5.3600   -0.9370  -32.9310 C.3    38  ILE38       0.1561
     31  C         -5.7570   -2.3890  -33.0850 C.2    38  ILE38       0.2260
     32  O         -6.0360   -2.8520  -34.1970 O.2    38  ILE38      -0.2867
     33  CB        -6.6330   -0.1130  -32.5970 C.3    38  ILE38       0.0252
     34  CG1       -7.6440   -0.2080  -33.7400 C.3    38  ILE38       0.0019
     35  CG2       -6.2680    1.3430  -32.3340 C.3    38  ILE38       0.0019
     36  CD1       -8.9820    0.4260  -33.4070 C.3    38  ILE38       0.0001
     37  N         -8.4960   -4.7660  -32.6140 N.3    40  VAL40      -0.1231
     38  CA        -9.9310   -4.6870  -32.4150 C.3    40  VAL40       0.1692
     39  C        -10.4610   -5.8550  -31.5980 C.2    40  VAL40       0.2592
     40  O        -11.1780   -5.6550  -30.6210 O.2    40  VAL40      -0.2718
     41  CB       -10.6720   -4.6220  -33.7700 C.3    40  VAL40       0.0266
     42  CG1      -12.1580   -4.3850  -33.5410 C.3    40  VAL40       0.0020
     43  CG2      -10.0880   -3.5070  -34.6230 C.3    40  VAL40       0.0020
     44  N        -10.1110   -7.0720  -32.0020 N.am   41  TYR41      -0.1976
     45  CA       -10.5460   -8.2590  -31.2850 C.3    41  TYR41       0.1639
     46  C         -9.6760   -9.4630  -31.6150 C.2    41  TYR41       0.2290
     47  O         -9.0150   -9.5090  -32.6520 O.2    41  TYR41      -0.2864
     48  CB       -12.0170   -8.6020  -31.6080 C.3    41  TYR41       0.0560
     49  CG       -12.3240   -8.9300  -33.0690 C.ar   41  TYR41      -0.0198
     50  CD1      -12.8900   -7.9760  -33.9150 C.ar   41  TYR41      -0.0009
     51  CD2      -12.0770  -10.2040  -33.5930 C.ar   41  TYR41      -0.0009
     52  CE1      -13.2170   -8.2820  -35.2500 C.ar   41  TYR41       0.0417
     53  CE2      -12.3950  -10.5200  -34.9300 C.ar   41  TYR41       0.0417
     54  CZ       -12.9690   -9.5530  -35.7460 C.ar   41  TYR41       0.1957
     55  OH       -13.3330   -9.8640  -37.0440 O.3    41  TYR41      -0.2866
     56  N        -15.2700  -14.4220  -31.4150 N.3    89  LEU89      -0.1245
     57  CA       -14.6130  -13.1230  -31.2930 C.3    89  LEU89       0.1561
     58  C        -14.6490  -12.6660  -29.8420 C.2    89  LEU89       0.2260
     59  O        -15.6720  -12.7940  -29.1690 O.2    89  LEU89      -0.2867
     60  CB       -15.3260  -12.0630  -32.1390 C.3    89  LEU89       0.0270
     61  CG       -15.3800  -12.1830  -33.6580 C.3    89  LEU89       0.0019
     62  CD1      -16.3070  -13.3120  -34.0620 C.3    89  LEU89       0.0001
     63  CD2      -15.8820  -10.8670  -34.2350 C.3    89  LEU89       0.0001
     64  N        -13.7460   -9.2280  -27.8590 N.3    91  ILE91      -0.1245
     65  CA       -13.3870   -7.8250  -28.0170 C.3    91  ILE91       0.1561
     66  C        -12.2110   -7.3360  -27.1840 C.2    91  ILE91       0.2260
     67  O        -12.1850   -7.5020  -25.9620 O.2    91  ILE91      -0.2867
     68  CB       -14.5920   -6.9210  -27.7290 C.3    91  ILE91       0.0252
     69  CG1      -15.7730   -7.3390  -28.6110 C.3    91  ILE91       0.0019
     70  CG2      -14.2320   -5.4790  -28.0230 C.3    91  ILE91       0.0019
     71  CD1      -15.4530   -7.3080  -30.0950 C.3    91  ILE91       0.0001
     72  N        -10.4230   -3.9330  -28.1010 N.3    93  TYR93      -0.1241
     73  CA       -10.4850   -2.4700  -28.0320 C.3    93  TYR93       0.1605
     74  C        -11.5900   -2.0620  -27.0590 C.2    93  TYR93       0.2264
     75  O        -12.6910   -2.6040  -27.0990 O.2    93  TYR93      -0.2867
     76  CB       -10.7360   -1.8900  -29.4240 C.3    93  TYR93       0.0534
     77  CG       -10.4880   -0.4030  -29.5310 C.ar   93  TYR93      -0.0201
     78  CD1       -9.2270    0.1330  -29.2710 C.ar   93  TYR93      -0.0009
     79  CD2      -11.5100    0.4680  -29.9020 C.ar   93  TYR93      -0.0009
     80  CE1       -8.9890    1.5010  -29.3790 C.ar   93  TYR93       0.0417
     81  CE2      -11.2820    1.8400  -30.0130 C.ar   93  TYR93       0.0417
     82  CZ       -10.0200    2.3460  -29.7500 C.ar   93  TYR93       0.1957
     83  OH        -9.7860    3.6990  -29.8500 O.3    93  TYR93      -0.2866
     84  N        -13.0870    1.1060  -26.6080 N.3    95  LYS95      -0.1231
     85  CA       -14.0190    2.1820  -26.9150 C.3    95  LYS95       0.1693
     86  C        -14.5570    2.1530  -28.3340 C.2    95  LYS95       0.2592
     87  O        -14.4970    3.1500  -29.0520 O.2    95  LYS95      -0.2718
     88  CB       -13.3900    3.5490  -26.6270 C.3    95  LYS95       0.0285
     89  CG       -11.9740    3.7360  -27.1350 C.3    95  LYS95       0.0035
     90  CD       -10.9660    3.0570  -26.2170 C.3    95  LYS95       0.0206
     91  CE        -9.5390    3.4520  -26.5660 C.3    95  LYS95       0.1093
     92  NZ        -8.5470    2.7630  -25.6950 N.3    95  LYS95      -0.1314
     93  N        -15.0910    1.0050  -28.7280 N.am   96  LEU96      -0.1966
     94  CA       -15.6620    0.8480  -30.0580 C.3    96  LEU96       0.1728
     95  C        -16.9540    1.6430  -30.1690 C.2    96  LEU96       0.2616
     96  O        -17.7780    1.6380  -29.2550 O.2    96  LEU96      -0.2715
     97  CB       -15.9640   -0.6240  -30.3370 C.3    96  LEU96       0.0311
     98  CG       -14.7770   -1.5570  -30.5640 C.3    96  LEU96       0.0022
     99  CD1      -15.2560   -2.9980  -30.5590 C.3    96  LEU96       0.0001
    100  CD2      -14.1010   -1.2090  -31.8840 C.3    96  LEU96       0.0001
    101  N        -17.1140    2.3300  -31.2930 N.am   97  ASN97      -0.1972
    102  CA       -18.3100    3.1160  -31.5710 C.3    97  ASN97       0.1688
    103  C        -19.1740    2.1790  -32.4100 C.2    97  ASN97       0.2292
    104  O        -18.7580    1.7480  -33.4760 O.2    97  ASN97      -0.2864
    105  CB       -17.9290    4.3730  -32.3650 C.3    97  ASN97       0.1181
    106  CG       -19.1350    5.1660  -32.8230 C.2    97  ASN97       0.2629
    107  OD1      -19.9050    4.7120  -33.6650 O.2    97  ASN97      -0.2716
    108  ND2      -19.3040    6.3640  -32.2680 N.am   97  ASN97      -0.0877
    109  N        -19.6260    3.0980  -36.0410 N.3   100  SER100     -0.1202
    110  CA       -18.4300    2.8490  -36.8390 C.3   100  SER100      0.2020
    111  C        -18.2060    1.3500  -37.0350 C.2   100  SER100      0.2618
    112  O        -17.6610    0.9320  -38.0560 O.2   100  SER100     -0.2717
    113  CB       -17.1980    3.4730  -36.1790 C.3   100  SER100      0.2103
    114  OG       -16.8480    2.7720  -35.0010 O.3   100  SER100     -0.2182
    115  N        -18.6200    0.5460  -36.0580 N.am  101  VAL101     -0.1979
    116  CA       -18.4740   -0.9030  -36.1610 C.3   101  VAL101      0.1595
    117  C        -19.3850   -1.4320  -37.2610 C.2   101  VAL101      0.2287
    118  O        -18.9750   -2.2790  -38.0500 O.2   101  VAL101     -0.2864
    119  CB       -18.8070   -1.6170  -34.8300 C.3   101  VAL101      0.0276
    120  CG1      -18.9700   -3.1260  -35.0640 C.3   101  VAL101      0.0022
    121  CG2      -17.6770   -1.3880  -33.8290 C.3   101  VAL101      0.0022
    122  N        -17.9960   -0.6210  -40.5130 N.3   104  ALA104     -0.1231
    123  CA       -16.8360   -1.4700  -40.7230 C.3   104  ALA104      0.1694
    124  C        -17.1410   -2.8750  -41.2320 C.2   104  ALA104      0.2592
    125  O        -16.5050   -3.3320  -42.1810 O.2   104  ALA104     -0.2718
    126  CB       -16.0150   -1.5480  -39.4420 C.3   104  ALA104      0.0304
    127  N        -18.0920   -3.5750  -40.6200 N.am  105  PHE105     -0.1976
    128  CA       -18.3690   -4.9240  -41.1020 C.3   105  PHE105      0.1639
    129  C        -19.1920   -4.9370  -42.3890 C.2   105  PHE105      0.2290
    130  O        -19.1700   -5.9070  -43.1460 O.2   105  PHE105     -0.2864
    131  CB       -18.9870   -5.8150  -39.9960 C.3   105  PHE105      0.0560
    132  CG       -20.4050   -5.4790  -39.6030 C.ar  105  PHE105     -0.0200
    133  CD1      -21.4600   -5.6200  -40.5050 C.ar  105  PHE105     -0.0042
    134  CD2      -20.6960   -5.1290  -38.2880 C.ar  105  PHE105     -0.0042
    135  CE1      -22.7780   -5.4250  -40.1010 C.ar  105  PHE105     -0.0003
    136  CE2      -22.0140   -4.9330  -37.8740 C.ar  105  PHE105     -0.0003
    137  CZ       -23.0570   -5.0840  -38.7860 C.ar  105  PHE105     -0.0000
    138  N        -20.4130   -2.6510  -27.4790 N.3   138  ILE138     -0.1245
    139  CA       -19.5220   -3.7730  -27.7980 C.3   138  ILE138      0.1561
    140  C        -18.3360   -3.6030  -26.8600 C.2   138  ILE138      0.2260
    141  O        -17.2600   -3.1910  -27.2860 O.2   138  ILE138     -0.2867
    142  CB       -18.9490   -3.6960  -29.2320 C.3   138  ILE138      0.0252
    143  CG1      -19.9620   -3.0680  -30.1820 C.3   138  ILE138      0.0019
    144  CG2      -18.5650   -5.0940  -29.7020 C.3   138  ILE138      0.0019
    145  CD1      -21.2620   -3.8170  -30.2790 C.3   138  ILE138      0.0001
    146  N        -18.5610  -12.8170  -29.1340 N.3   144  ILE144     -0.1245
    147  CA       -19.5330  -12.9690  -30.2120 C.3   144  ILE144      0.1561
    148  C        -19.1830  -14.2350  -30.9780 C.2   144  ILE144      0.2260
    149  O        -18.0460  -14.4060  -31.4290 O.2   144  ILE144     -0.2867
    150  CB       -19.5050  -11.7730  -31.1880 C.3   144  ILE144      0.0252
    151  CG1      -19.9070  -10.4970  -30.4440 C.3   144  ILE144      0.0019
    152  CG2      -20.4550  -12.0300  -32.3660 C.3   144  ILE144      0.0019
    153  CD1      -19.8810   -9.2600  -31.2990 C.3   144  ILE144      0.0001
@<TRIPOS>BOND
     1   130   129    2
     2   129   128    1
     3   125   124    2
     4   124   123    1
     5   124   127   am
     6   128   127    1
     7   128   131    1
     8   123   122    1
     9   123   126    1
    10   133   135   ar
    11   133   132   ar
    12    24    23    2
    13    11     9    1
    14   135   137   ar
    15    19    20    1
    16    19    18    1
    17   131   132    1
    18    23    22    1
    19   132   134   ar
    20    10     9    1
    21     9     8    2
    22    18    17    1
    23    22    21    1
    24    22    25    1
    25   137   136   ar
    26     8     7    1
    27   134   136   ar
    28   112   111    2
    29   118   117    2
    30    14    13    1
    31    14    15    2
    32    17    16    1
    33    13    16    1
    34    13    12    1
    35     6     7    1
    36     6     5    1
    37    25    26    1
    38    28    26    1
    39   117   116    1
    40    55    54    1
    41   111   110    1
    42   111   115   am
    43   110   113    1
    44   110   109    1
    45    26    27    1
    46     5     2    1
    47     2     3    1
    48     2     1    1
    49   113   114    1
    50   116   115    1
    51   116   119    1
    52     3     4    2
    53    54    52   ar
    54    54    53   ar
    55    52    50   ar
    56   120   119    1
    57    53    51   ar
    58   119   121    1
    59    43    41    1
    60    63    61    1
    61    32    31    2
    62    29    30    1
    63    62    61    1
    64    50    49   ar
    65    41    42    1
    66    41    38    1
    67    34    36    1
    68    34    33    1
    69   107   106    2
    70    61    60    1
    71    51    49   ar
    72   104   103    2
    73    31    30    1
    74    49    48    1
    75    30    33    1
    76   106   105    1
    77   106   108   am
    78    47    46    2
    79    37    38    1
    80    33    35    1
    81    38    39    1
    82   103   102    1
    83   152   150    1
    84   105   102    1
    85    60    57    1
    86    44    39   am
    87    44    45    1
    88   100    98    1
    89    46    45    1
    90    48    45    1
    91    39    40    2
    92   102   101    1
    93   149   148    2
    94    56    57    1
    95   153   151    1
    96   101    95   am
    97    57    58    1
    98   150   151    1
    99   150   147    1
   100   148   147    1
   101    98    99    1
   102    98    97    1
   103    97    94    1
   104   145   143    1
   105   147   146    1
   106   143   142    1
   107    95    94    1
   108    95    96    2
   109    71    69    1
   110    94    93    1
   111    81    79   ar
   112    81    82   ar
   113    79    77   ar
   114    83    82    1
   115    58    59    2
   116    82    80   ar
   117   144   142    1
   118    77    76    1
   119    77    78   ar
   120    76    73    1
   121    80    78   ar
   122   142   139    1
   123    87    86    2
   124    93    86   am
   125    69    68    1
   126    86    85    1
   127    72    73    1
   128    73    74    1
   129    70    68    1
   130    65    64    1
   131    65    68    1
   132    65    66    1
   133   139   138    1
   134   139   140    1
   135   141   140    2
   136    66    67    2
   137    89    88    1
   138    89    90    1
   139    75    74    2
   140    85    88    1
   141    85    84    1
   142    91    90    1
   143    91    92    1
