@<TRIPOS>MOLECULE
tmp/4doqA00.pdb
 82 81 0 0 0
SMALL
GASTEIGER

@<TRIPOS>ATOM
      1  N         11.9590    0.5520   45.6220 N.3    39  ALA39      -0.1231
      2  CA        12.1530   -0.9120   45.8410 C.3    39  ALA39       0.1694
      3  C         13.4860   -1.2110   46.5480 C.2    39  ALA39       0.2592
      4  O         13.5750   -2.1100   47.3800 O.2    39  ALA39      -0.2718
      5  CB        12.0330   -1.7160   44.5350 C.3    39  ALA39       0.0304
      6  N         14.5030   -0.4010   46.2580 N.am   40  HIS40      -0.1976
      7  CA        15.8150   -0.6640   46.8850 C.3    40  HIS40       0.1656
      8  C         15.7980   -0.3480   48.4010 C.2    40  HIS40       0.2291
      9  O         16.7180   -0.7400   49.1260 O.2    40  HIS40      -0.2864
     10  CB        16.9550    0.0640   46.1290 C.3    40  HIS40       0.0771
     11  CG        17.1000    1.5040   46.5130 C.ar   40  HIS40       0.0820
     12  ND1       16.6730    2.5310   45.7060 N.ar   40  HIS40      -0.2267
     13  CD2       17.5930    2.0830   47.6340 C.ar   40  HIS40       0.1154
     14  CE1       16.9130    3.6850   46.3090 C.ar   40  HIS40       0.1986
     15  NE2       17.4630    3.4370   47.4850 N.ar   40  HIS40      -0.2212
     16  N         13.6800   -1.6770   50.3560 N.3    42  TYR42      -0.1241
     17  CA        13.0830   -2.8910   50.9180 C.3    42  TYR42       0.1605
     18  C         13.7800   -3.4280   52.1730 C.2    42  TYR42       0.2264
     19  O         14.9760   -3.6770   52.1540 O.2    42  TYR42      -0.2867
     20  CB        12.9960   -4.0290   49.8900 C.3    42  TYR42       0.0534
     21  CG        12.3450   -5.2430   50.5050 C.ar   42  TYR42      -0.0201
     22  CD1       10.9650   -5.4480   50.4080 C.ar   42  TYR42      -0.0009
     23  CD2       13.1000   -6.1550   51.2520 C.ar   42  TYR42      -0.0009
     24  CE1       10.3440   -6.5680   51.0250 C.ar   42  TYR42       0.0417
     25  CE2       12.5000   -7.2630   51.8840 C.ar   42  TYR42       0.0417
     26  CZ        11.1340   -7.4540   51.7640 C.ar   42  TYR42       0.1957
     27  OH        10.5850   -8.5460   52.3960 O.3    42  TYR42      -0.2866
     28  N          7.3290   -5.1170   46.2140 N.3    72  THR72      -0.1203
     29  CA         8.2360   -4.4610   45.2680 C.3    72  THR72       0.1994
     30  C          7.7550   -4.6480   43.8350 C.2    72  THR72       0.2618
     31  O          7.1340   -5.6520   43.5300 O.2    72  THR72      -0.2717
     32  CB         9.7090   -4.9380   45.4460 C.3    72  THR72       0.1784
     33  OG1        9.7880   -6.3530   45.2550 O.3    72  THR72      -0.2211
     34  CG2       10.2050   -4.6140   46.8450 C.3    72  THR72       0.0376
     35  N          8.0300   -3.6860   42.9460 N.am   73  HIS73      -0.1961
     36  CA         7.6790   -3.8950   41.5660 C.3    73  HIS73       0.1772
     37  C          8.2450   -5.2300   41.0410 C.2    73  HIS73       0.2462
     38  O          9.4260   -5.4970   41.2140 O.2    73  HIS73      -0.2730
     39  CB         8.1130   -2.7250   40.6480 C.3    73  HIS73       0.0785
     40  CG         7.4270   -2.7690   39.3250 C.ar   73  HIS73       0.0821
     41  ND1        7.7750   -3.6670   38.3430 N.ar   73  HIS73      -0.2267
     42  CD2        6.3430   -2.1050   38.8620 C.ar   73  HIS73       0.1154
     43  CE1        6.9650   -3.5230   37.3100 C.ar   73  HIS73       0.1986
     44  NE2        6.0620   -2.6050   37.6190 N.ar   73  HIS73      -0.2212
     45  N          7.4050   -6.0660   40.3880 N.am   74  PRO74      -0.2727
     46  CA         7.8740   -7.3890   39.8820 C.3    74  PRO74       0.1402
     47  C          9.0950   -7.3270   38.9320 C.2    74  PRO74       0.2269
     48  O          9.9050   -8.2960   38.8380 O.2    74  PRO74      -0.2865
     49  CB         6.6490   -7.9300   39.1190 C.3    74  PRO74       0.0296
     50  CG         5.6970   -6.8240   38.9990 C.3    74  PRO74       0.0237
     51  CD         5.9820   -5.8140   40.0790 C.3    74  PRO74       0.0939
     52  N         11.4460   -4.9780   39.1700 N.3    76  PHE76      -0.1241
     53  CA        12.5930   -4.2720   39.8090 C.3    76  PHE76       0.1605
     54  C         13.9030   -4.9860   39.4700 C.2    76  PHE76       0.2264
     55  O         14.0070   -6.2230   39.6140 O.2    76  PHE76      -0.2867
     56  CB        12.4510   -4.1780   41.3170 C.3    76  PHE76       0.0534
     57  CG        13.6440   -3.5390   42.0010 C.ar   76  PHE76      -0.0203
     58  CD1       14.0570   -2.2320   41.6570 C.ar   76  PHE76      -0.0042
     59  CD2       14.3400   -4.2280   43.0070 C.ar   76  PHE76      -0.0042
     60  CE1       15.1630   -1.6300   42.3020 C.ar   76  PHE76      -0.0003
     61  CE2       15.4210   -3.6390   43.6510 C.ar   76  PHE76      -0.0003
     62  CZ        15.8370   -2.3560   43.3040 C.ar   76  PHE76      -0.0000
     63  N         17.6420   -4.7630   40.7160 N.3    78  GLY78      -0.1210
     64  CA        18.5330   -4.2290   41.7110 C.3    78  GLY78       0.1956
     65  C         19.9080   -3.8250   41.2030 C.2    78  GLY78       0.2611
     66  O         20.6260   -3.1540   41.9100 O.2    78  GLY78      -0.2717
     67  N         20.2640   -4.2330   39.9770 N.am   79  ASN79      -0.1974
     68  CA        21.5970   -3.9460   39.4310 C.3    79  ASN79       0.1688
     69  C         21.6370   -2.6890   38.5240 C.2    79  ASN79       0.2292
     70  O         22.6510   -2.0030   38.4580 O.2    79  ASN79      -0.2864
     71  CB        22.1620   -5.1800   38.7570 C.3    79  ASN79       0.1181
     72  CG        22.5600   -6.2800   39.7800 C.2    79  ASN79       0.2629
     73  OD1       22.1070   -7.4160   39.6790 O.2    79  ASN79      -0.2716
     74  ND2       23.4020   -5.9280   40.7610 N.am   79  ASN79      -0.0877
     75  N         18.6590   -0.5920   38.8030 N.3    81  LEU81      -0.1245
     76  CA        17.5830    0.1520   39.5070 C.3    81  LEU81       0.1561
     77  C         16.3990    0.5140   38.6180 C.2    81  LEU81       0.2260
     78  O         15.6440    1.4610   38.9260 O.2    81  LEU81      -0.2867
     79  CB        18.1380    1.3690   40.3060 C.3    81  LEU81       0.0270
     80  CG        19.2560    1.0820   41.3760 C.3    81  LEU81       0.0019
     81  CD1       19.9020    2.4120   41.9560 C.3    81  LEU81       0.0001
     82  CD2       18.8580    0.2020   42.5660 C.3    81  LEU81       0.0001
@<TRIPOS>BOND
     1    43    44   ar
     2    43    41   ar
     3    44    42   ar
     4    41    40   ar
     5    70    69    2
     6    69    68    1
     7    77    78    2
     8    77    76    1
     9    71    68    1
    10    71    72    1
    11    75    76    1
    12    48    47    2
    13    42    40   ar
    14    47    46    1
    15    50    49    1
    16    50    51    1
    17    49    46    1
    18    52    53    1
    19    40    39    1
    20    68    67    1
    21    54    55    2
    22    54    53    1
    23    76    79    1
    24    73    72    2
    25    72    74   am
    26    53    56    1
    27    46    45    1
    28    67    65   am
    29    51    45    1
    30    79    80    1
    31    45    37   am
    32    39    36    1
    33    63    64    1
    34    37    38    2
    35    37    36    1
    36    65    64    1
    37    65    66    2
    38    56    57    1
    39    80    81    1
    40    80    82    1
    41    36    35    1
    42    58    57   ar
    43    58    60   ar
    44    57    59   ar
    45    60    62   ar
    46    35    30   am
    47    59    61   ar
    48    62    61   ar
    49    31    30    2
    50    30    29    1
    51     5     2    1
    52    33    32    1
    53    29    32    1
    54    29    28    1
    55    32    34    1
    56     1     2    1
    57    12    14   ar
    58    12    11   ar
    59     2     3    1
    60    10    11    1
    61    10     7    1
    62     6     3   am
    63     6     7    1
    64    14    15   ar
    65    11    13   ar
    66     3     4    2
    67     7     8    1
    68    15    13   ar
    69     8     9    2
    70    20    21    1
    71    20    17    1
    72    16    17    1
    73    22    21   ar
    74    22    24   ar
    75    21    23   ar
    76    17    18    1
    77    24    26   ar
    78    23    25   ar
    79    26    25   ar
    80    26    27    1
    81    19    18    2
