@<TRIPOS>MOLECULE
tmp/4dorA00.pdb
 135 127 0 0 0
SMALL
GASTEIGER

@<TRIPOS>ATOM
      1  N         27.9990    3.5650   28.9220 N.3    55  PHE55      -0.1241
      2  CA        28.4130    2.7180   30.0460 C.3    55  PHE55       0.1605
      3  C         29.7970    3.1050   30.5510 C.2    55  PHE55       0.2264
      4  O         30.0280    3.1850   31.7720 O.2    55  PHE55      -0.2867
      5  CB        28.3760    1.2120   29.6970 C.3    55  PHE55       0.0534
      6  CG        27.0320    0.6360   29.8260 C.ar   55  PHE55      -0.0203
      7  CD1       26.1590    0.6520   28.7500 C.ar   55  PHE55      -0.0042
      8  CD2       26.6020    0.1100   31.0330 C.ar   55  PHE55      -0.0042
      9  CE1       24.8700    0.1360   28.8640 C.ar   55  PHE55      -0.0003
     10  CE2       25.2780   -0.4300   31.1460 C.ar   55  PHE55      -0.0003
     11  CZ        24.4350   -0.3950   30.0740 C.ar   55  PHE55      -0.0000
     12  N         29.5320    6.4040   32.4480 N.3    58  VAL58      -0.1245
     13  CA        28.9800    6.2000   33.7820 C.3    58  VAL58       0.1561
     14  C         30.0110    5.5640   34.7200 C.2    58  VAL58       0.2260
     15  O         30.1410    5.9770   35.8920 O.2    58  VAL58      -0.2867
     16  CB        27.6570    5.3660   33.7850 C.3    58  VAL58       0.0252
     17  CG1       27.2730    4.9720   35.2230 C.3    58  VAL58       0.0019
     18  CG2       26.5150    6.1630   33.1480 C.3    58  VAL58       0.0019
     19  N         31.4080    7.3370   38.1110 N.3    62  ARG62      -0.1245
     20  CA        31.1330    6.6530   39.3820 C.3    62  ARG62       0.1563
     21  C         32.4280    6.3850   40.1630 C.2    62  ARG62       0.2260
     22  O         32.4320    6.3700   41.3980 O.2    62  ARG62      -0.2867
     23  CB        30.3630    5.3390   39.0730 C.3    62  ARG62       0.0307
     24  CG        30.0940    4.4620   40.2320 C.3    62  ARG62       0.0489
     25  CD        29.3950    3.2090   39.7900 C.3    62  ARG62       0.2205
     26  NE        29.2750    2.2710   40.9060 N.pl3  62  ARG62      -0.0865
     27  CZ        30.1680    1.3200   41.1830 C.cat  62  ARG62       0.5346
     28  NH1       31.2630    1.1800   40.4410 N.pl3  62  ARG62       0.1354
     29  NH2       29.9710    0.5030   42.2100 N.pl3  62  ARG62       0.1354
     30  N         33.0080   12.9670   42.6390 N.3    67  PHE67      -0.1241
     31  CA        31.7590   12.4020   42.2020 C.3    67  PHE67       0.1605
     32  C         31.3690   11.2300   43.0680 C.2    67  PHE67       0.2264
     33  O         30.2910   11.1070   43.4380 O.2    67  PHE67      -0.2867
     34  CB        31.7950   12.0090   40.7400 C.3    67  PHE67       0.0534
     35  CG        30.4600   11.6630   40.1710 C.ar   67  PHE67      -0.0203
     36  CD1       29.6460   12.6230   39.6250 C.ar   67  PHE67      -0.0042
     37  CD2       30.0220   10.3850   40.1710 C.ar   67  PHE67      -0.0042
     38  CE1       28.4160   12.2970   39.1030 C.ar   67  PHE67      -0.0003
     39  CE2       28.8010   10.0450   39.6420 C.ar   67  PHE67      -0.0003
     40  CZ        27.9930   11.0030   39.1080 C.ar   67  PHE67      -0.0000
     41  N         23.7390    8.5270   45.7740 N.3    72  VAL72      -0.1231
     42  CA        23.2710    8.0090   44.4650 C.3    72  VAL72       0.1692
     43  C         22.3030    8.9700   43.7670 C.2    72  VAL72       0.2592
     44  O         22.4170    9.2240   42.5990 O.2    72  VAL72      -0.2718
     45  CB        22.6350    6.5950   44.5920 C.3    72  VAL72       0.0266
     46  CG1       21.9690    6.1420   43.2480 C.3    72  VAL72       0.0020
     47  CG2       23.7130    5.5830   45.0330 C.3    72  VAL72       0.0020
     48  N         21.3510    9.5110   44.5130 N.am   73  ASP73      -0.1974
     49  CA        20.3820   10.3870   43.9070 C.3    73  ASP73       0.1709
     50  C         20.9920   11.6670   43.3140 C.2    73  ASP73       0.2293
     51  O         20.4770   12.1440   42.3090 O.2    73  ASP73      -0.2864
     52  CB        19.2760   10.7360   44.9020 C.3    73  ASP73       0.1436
     53  CG        18.3740    9.5520   45.1910 C.2    73  ASP73       0.3671
     54  OD1       18.5040    8.4790   44.5310 O.co2  73  ASP73      -0.2456
     55  OD2       17.5270    9.6940   46.0890 O.co2  73  ASP73      -0.2456
     56  N         24.1830   11.7700   42.1200 N.3    75  GLN75      -0.1231
     57  CA        24.8930   11.2300   40.9300 C.3    75  GLN75       0.1698
     58  C         23.9370   11.0540   39.7520 C.2    75  GLN75       0.2592
     59  O         24.2540   11.4200   38.6170 O.2    75  GLN75      -0.2718
     60  CB        25.5560    9.8940   41.2580 C.3    75  GLN75       0.0381
     61  CG        26.6540   10.0360   42.3460 C.3    75  GLN75       0.0905
     62  CD        27.3560    8.7150   42.5730 C.2    75  GLN75       0.2608
     63  OE1       26.8270    7.6890   42.2200 O.2    75  GLN75      -0.2717
     64  NE2       28.5490    8.7430   43.1180 N.am   75  GLN75      -0.0878
     65  N         22.7440   10.5480   40.0430 N.am   76  MET76      -0.1979
     66  CA        21.7090   10.3960   39.0140 C.3    76  MET76       0.1605
     67  C         21.3560   11.7210   38.3900 C.2    76  MET76       0.2287
     68  O         21.3030   11.8140   37.1640 O.2    76  MET76      -0.2864
     69  CB        20.4430    9.7420   39.5800 C.3    76  MET76       0.0413
     70  CG        20.6940    8.3380   40.0620 C.3    76  MET76       0.0598
     71  SD        20.3360    7.2270   38.6930 S.3    76  MET76      -0.1393
     72  CE        18.5640    7.4370   38.5220 C.3    76  MET76       0.0692
     73  N         24.2040   13.0860   36.0890 N.3    79  LEU79      -0.1231
     74  CA        24.3710   12.3410   34.8230 C.3    79  LEU79       0.1693
     75  C         23.1790   12.5450   33.8790 C.2    79  LEU79       0.2591
     76  O         23.3550   12.6690   32.6640 O.2    79  LEU79      -0.2718
     77  CB        24.6720   10.8660   35.0810 C.3    79  LEU79       0.0284
     78  CG        26.1330   10.6210   35.5260 C.3    79  LEU79       0.0019
     79  CD1       26.2480    9.2360   36.1190 C.3    79  LEU79       0.0001
     80  CD2       27.0990   10.8100   34.3810 C.3    79  LEU79       0.0001
     81  N         21.9690   12.6050   34.4290 N.am   80  GLN80      -0.1979
     82  CA        20.7700   12.8700   33.6050 C.3    80  GLN80       0.1601
     83  C         20.8620   14.2240   32.8840 C.2    80  GLN80       0.2287
     84  O         20.3470   14.4120   31.7870 O.2    80  GLN80      -0.2864
     85  CB        19.4870   12.8300   34.4490 C.3    80  GLN80       0.0394
     86  CG        19.1000   11.3920   34.8400 C.3    80  GLN80       0.0908
     87  CD        17.8420   11.3240   35.6850 C.2    80  GLN80       0.2608
     88  OE1       16.7690   10.9770   35.1900 O.2    80  GLN80      -0.2717
     89  NE2       17.9590   11.6880   36.9520 N.am   80  GLN80      -0.0878
     90  N         15.8230   -0.7900   24.8880 N.3   207  ASN207     -0.1225
     91  CA        16.0370   -1.6160   26.0580 C.3   207  ASN207      0.1785
     92  C         17.4890   -1.4950   26.4780 C.2   207  ASN207      0.2597
     93  O         18.1510   -2.4940   26.7680 O.2   207  ASN207     -0.2718
     94  CB        15.6290   -3.0920   25.8010 C.3   207  ASN207      0.1169
     95  CG        14.2290   -3.3750   26.2720 C.2   207  ASN207      0.2627
     96  OD1       13.7650   -2.7630   27.2310 O.2   207  ASN207     -0.2716
     97  ND2       13.5270   -4.2620   25.5810 N.am  207  ASN207     -0.0877
     98  N         17.9790   -0.2530   26.4760 N.am  208  ASN208     -0.1960
     99  CA        19.3660    0.0290   26.7880 C.3   208  ASN208      0.1819
    100  C         19.4960    1.3640   27.5460 C.2   208  ASN208      0.2621
    101  O         18.4990    2.0460   27.8310 O.2   208  ASN208     -0.2715
    102  CB        20.2270    0.0080   25.4900 C.3   208  ASN208      0.1195
    103  CG        19.7740    1.0440   24.4780 C.2   208  ASN208      0.2630
    104  OD1       19.1130    2.0330   24.8260 O.2   208  ASN208     -0.2716
    105  ND2       20.0730    0.8060   23.2300 N.am  208  ASN208     -0.0877
    106  N         20.7270    1.7410   27.8430 N.am  209  LEU209     -0.1977
    107  CA        20.9900    2.9260   28.6480 C.3   209  LEU209      0.1596
    108  C         20.7470    4.1830   27.8110 C.2   209  LEU209      0.2287
    109  O         20.1900    5.1720   28.3010 O.2   209  LEU209     -0.2864
    110  CB        22.4560    2.9040   29.1210 C.3   209  LEU209      0.0297
    111  CG        22.9530    4.0480   30.0190 C.3   209  LEU209      0.0022
    112  CD1       22.0310    4.2580   31.2190 C.3   209  LEU209      0.0001
    113  CD2       24.4030    3.7260   30.4370 C.3   209  LEU209      0.0001
    114  N         17.0090    5.0860   27.8070 N.3   212  GLU212     -0.1231
    115  CA        16.5980    5.5800   29.1110 C.3   212  GLU212      0.1699
    116  C         16.9380    7.0510   29.2940 C.2   212  GLU212      0.2592
    117  O         16.2110    7.8010   29.9350 O.2   212  GLU212     -0.2718
    118  CB        17.3830    4.8650   30.1950 C.3   212  GLU212      0.0402
    119  CG        16.8950    3.5670   30.4660 C.3   212  GLU212      0.1161
    120  CD        17.4970    3.0040   31.7200 C.2   212  GLU212      0.3649
    121  OE1       18.3450    3.6640   32.3910 O.co2 212  GLU212     -0.2457
    122  OE2       17.1130    1.8840   32.0080 O.co2 212  GLU212     -0.2457
    123  N         18.0910    7.4470   28.7680 N.am  213  MET213     -0.1979
    124  CA        18.5540    8.8100   29.0100 C.3   213  MET213      0.1605
    125  C         17.7830    9.8120   28.1550 C.2   213  MET213      0.2287
    126  O         17.5590   10.9730   28.5500 O.2   213  MET213     -0.2864
    127  CB        20.0700    8.9060   28.7570 C.3   213  MET213      0.0413
    128  CG        20.8970    7.9860   29.6390 C.3   213  MET213      0.0598
    129  SD        20.5740    8.0720   31.4100 S.3   213  MET213     -0.1393
    130  CE        21.1850    9.7080   31.7560 C.3   213  MET213      0.0692
    131  N         14.3540   10.1780   30.0760 N.3   216  ALA216     -0.1245
    132  CA        14.4340   10.8100   31.3920 C.3   216  ALA216      0.1562
    133  C         14.6200   12.3360   31.3220 C.2   216  ALA216      0.2260
    134  O         13.9880   13.0290   30.5070 O.2   216  ALA216     -0.2867
    135  CB        15.5610   10.1730   32.1910 C.3   216  ALA216      0.0290
@<TRIPOS>BOND
     1   105   103   am
     2   103   104    2
     3   103   102    1
     4    90    91    1
     5   102    99    1
     6    97    95   am
     7    94    91    1
     8    94    95    1
     9    91    92    1
    10    95    96    2
    11    98    92   am
    12    98    99    1
    13    92    93    2
    14    99   100    1
    15   100   101    2
    16   100   106   am
    17   114   115    1
    18   108   109    2
    19   108   107    1
    20   106   107    1
    21   125   126    2
    22   125   124    1
    23   107   110    1
    24     7     9   ar
    25     7     6   ar
    26   127   124    1
    27   127   128    1
    28   123   124    1
    29   123   116   am
    30     9    11   ar
    31     1     2    1
    32   115   116    1
    33   115   118    1
    34   110   111    1
    35   116   117    2
    36   128   129    1
    37     5     6    1
    38     5     2    1
    39     6     8   ar
    40   111   113    1
    41   111   112    1
    42     2     3    1
    43    11    10   ar
    44   131   132    1
    45   118   119    1
    46   119   120    1
    47   134   133    2
    48     3     4    2
    49     8    10   ar
    50   133   132    1
    51   132   135    1
    52   129   130    1
    53   120   122   ar
    54   120   121   ar
    55    84    83    2
    56    12    13    1
    57    76    75    2
    58    83    82    1
    59    18    16    1
    60    82    81    1
    61    82    85    1
    62    13    16    1
    63    13    14    1
    64    16    17    1
    65    75    81   am
    66    75    74    1
    67    80    78    1
    68    85    86    1
    69    14    15    2
    70    74    77    1
    71    74    73    1
    72    86    87    1
    73    77    78    1
    74    88    87    2
    75    78    79    1
    76    87    89   am
    77    68    67    2
    78    19    20    1
    79    67    66    1
    80    72    71    1
    81    59    58    2
    82    71    70    1
    83    66    69    1
    84    66    65    1
    85    23    20    1
    86    23    24    1
    87    38    40   ar
    88    38    36   ar
    89    40    39   ar
    90    20    21    1
    91    69    70    1
    92    36    35   ar
    93    39    37   ar
    94    58    65   am
    95    58    57    1
    96    25    24    1
    97    25    26    1
    98    21    22    2
    99    35    37   ar
   100    35    34    1
   101    28    27    1
   102    34    31    1
   103    26    27    2
   104    57    60    1
   105    57    56    1
   106    27    29    1
   107    60    61    1
   108    31    30    1
   109    31    32    1
   110    63    62    2
   111    51    50    2
   112    61    62    1
   113    62    64   am
   114    44    43    2
   115    32    33    2
   116    46    45    1
   117    50    49    1
   118    43    42    1
   119    43    48   am
   120    49    48    1
   121    49    52    1
   122    42    45    1
   123    42    41    1
   124    54    53   ar
   125    45    47    1
   126    52    53    1
   127    53    55   ar
