@<TRIPOS>MOLECULE
tmp/4dosA01.pdb
 106 97 0 0 0
SMALL
GASTEIGER

@<TRIPOS>ATOM
      1  N        -16.0760  -27.7220   21.6870 N.3    27  MET27      -0.1245
      2  CA       -15.1180  -28.8300   21.5740 C.3    27  MET27       0.1570
      3  C        -15.5240  -30.0340   22.4310 C.2    27  MET27       0.2261
      4  O        -15.5140  -31.1700   21.9470 O.2    27  MET27      -0.2867
      5  CB       -13.6890  -28.3910   21.9070 C.3    27  MET27       0.0387
      6  CG       -12.6190  -29.4800   21.6560 C.3    27  MET27       0.0595
      7  SD       -12.5790  -30.0210   19.9320 S.3    27  MET27      -0.1393
      8  CE       -10.9220  -30.7120   19.8070 C.3    27  MET27       0.0692
      9  N        -18.5180  -31.8920   20.8250 N.3    30  LEU30      -0.1231
     10  CA       -18.1180  -32.6910   19.6670 C.3    30  LEU30       0.1693
     11  C        -17.3040  -33.9250   20.0580 C.2    30  LEU30       0.2591
     12  O        -17.4980  -35.0050   19.4940 O.2    30  LEU30      -0.2718
     13  CB       -17.3530  -31.8400   18.6480 C.3    30  LEU30       0.0284
     14  CG       -18.1560  -30.6800   18.0380 C.3    30  LEU30       0.0019
     15  CD1      -17.2520  -29.7470   17.2650 C.3    30  LEU30       0.0001
     16  CD2      -19.2920  -31.1880   17.1500 C.3    30  LEU30       0.0001
     17  N        -16.3890  -33.7670   21.0100 N.am   31  GLN31      -0.1979
     18  CA       -15.6280  -34.9120   21.5130 C.3    31  GLN31       0.1601
     19  C        -16.5370  -35.9610   22.1680 C.2    31  GLN31       0.2287
     20  O        -16.3420  -37.1620   21.9610 O.2    31  GLN31      -0.2864
     21  CB       -14.5160  -34.4710   22.4750 C.3    31  GLN31       0.0394
     22  CG       -13.3850  -33.6940   21.7950 C.3    31  GLN31       0.0908
     23  CD       -12.2140  -33.4130   22.7280 C.2    31  GLN31       0.2608
     24  OE1      -11.0500  -33.4910   22.3290 O.2    31  GLN31      -0.2717
     25  NE2      -12.5160  -33.0900   23.9710 N.am   31  GLN31      -0.0878
     26  N        -18.6440  -37.8050   19.3730 N.3    34  GLN34      -0.1245
     27  CA       -17.8740  -38.8170   18.6610 C.3    34  GLN34       0.1566
     28  C        -17.5530  -40.0410   19.5350 C.2    34  GLN34       0.2260
     29  O        -17.5910  -41.1790   19.0520 O.2    34  GLN34      -0.2867
     30  CB       -16.5950  -38.2000   18.0820 C.3    34  GLN34       0.0367
     31  CG       -15.9220  -39.0190   17.0020 C.3    34  GLN34       0.0905
     32  CD       -16.6940  -39.0280   15.6860 C.2    34  GLN34       0.2608
     33  OE1      -17.9020  -39.2730   15.6560 O.2    34  GLN34      -0.2717
     34  NE2      -15.9870  -38.7810   14.5900 N.am   34  GLN34      -0.0878
     35  N        -15.5120  -36.0140    8.8910 N.3    45  THR45      -0.1218
     36  CA       -15.1160  -34.6230    9.0820 C.3    45  THR45       0.1862
     37  C        -16.2850  -33.6920    8.7620 C.2    45  THR45       0.2287
     38  O        -16.5530  -32.7270    9.5040 O.2    45  THR45      -0.2866
     39  CB       -13.9070  -34.2520    8.2000 C.3    45  THR45       0.1770
     40  OG1      -12.7650  -34.9980    8.6300 O.3    45  THR45      -0.2211
     41  CG2      -13.6000  -32.7400    8.3010 C.3    45  THR45       0.0375
     42  N        -18.9760  -33.8420   11.5260 N.3    48  LEU48      -0.1231
     43  CA       -18.4970  -33.0640   12.6810 C.3    48  LEU48       0.1693
     44  C        -18.5940  -31.5570   12.4540 C.2    48  LEU48       0.2591
     45  O        -18.9860  -30.8140   13.3550 O.2    48  LEU48      -0.2718
     46  CB       -17.0460  -33.4400   13.0200 C.3    48  LEU48       0.0284
     47  CG       -16.8090  -34.8350   13.6000 C.3    48  LEU48       0.0019
     48  CD1      -15.3210  -35.1410   13.5760 C.3    48  LEU48       0.0001
     49  CD2      -17.3680  -34.9630   15.0150 C.3    48  LEU48       0.0001
     50  N        -18.2350  -31.1090   11.2500 N.am   49  MET49      -0.1979
     51  CA       -18.3150  -29.6920   10.9030 C.3    49  MET49       0.1605
     52  C        -19.7630  -29.1940   10.8770 C.2    49  MET49       0.2287
     53  O        -20.0390  -28.0370   11.2120 O.2    49  MET49      -0.2864
     54  CB       -17.6310  -29.4250    9.5580 C.3    49  MET49       0.0413
     55  CG       -16.1040  -29.6100    9.5650 C.3    49  MET49       0.0598
     56  SD       -15.2500  -28.6110   10.8120 S.3    49  MET49      -0.1393
     57  CE       -15.8540  -26.9680   10.4000 C.3    49  MET49       0.0692
     58  N        -20.6160  -28.7860   14.4560 N.3    52  MET52      -0.1245
     59  CA       -19.8920  -27.6070   14.9070 C.3    52  MET52       0.1570
     60  C        -20.6200  -26.3200   14.4870 C.2    52  MET52       0.2261
     61  O        -20.8110  -25.4100   15.3000 O.2    52  MET52      -0.2867
     62  CB       -18.4700  -27.6060   14.3580 C.3    52  MET52       0.0387
     63  CG       -17.5900  -26.4950   14.9510 C.3    52  MET52       0.0595
     64  SD       -15.9740  -26.3980   14.1550 S.3    52  MET52      -0.1393
     65  CE       -15.2600  -27.9880   14.5810 C.3    52  MET52       0.0692
     66  N        -10.7280  -22.7440   13.5990 N.3   109  LEU109     -0.1245
     67  CA       -12.1170  -23.1180   13.8590 C.3   109  LEU109      0.1561
     68  C        -12.5700  -22.6460   15.2320 C.2   109  LEU109      0.2260
     69  O        -11.7440  -22.3360   16.0880 O.2   109  LEU109     -0.2867
     70  CB       -12.2850  -24.6380   13.7520 C.3   109  LEU109      0.0270
     71  CG       -11.8650  -25.2430   12.4130 C.3   109  LEU109      0.0019
     72  CD1      -12.1350  -26.7370   12.3980 C.3   109  LEU109      0.0001
     73  CD2      -12.5780  -24.5440   11.2390 C.3   109  LEU109      0.0001
     74  N         -9.3220  -25.5350   16.8490 N.3   113  GLN113     -0.1231
     75  CA        -8.6040  -26.3600   15.8790 C.3   113  GLN113      0.1698
     76  C         -8.0640  -25.5220   14.7320 C.2   113  GLN113      0.2592
     77  O         -8.6920  -24.5400   14.3140 O.2   113  GLN113     -0.2718
     78  CB        -9.5150  -27.4370   15.3090 C.3   113  GLN113      0.0381
     79  CG        -9.8260  -28.5750   16.2630 C.3   113  GLN113      0.0905
     80  CD       -10.9740  -29.4400   15.7460 C.2   113  GLN113      0.2608
     81  OE1      -12.1350  -29.0250   15.7630 O.2   113  GLN113     -0.2717
     82  NE2      -10.6490  -30.6460   15.2830 N.am  113  GLN113     -0.0878
     83  N         -6.9000  -25.9170   14.2200 N.am  114  GLN114     -0.1966
     84  CA        -6.3530  -25.2880   13.0250 C.3   114  GLN114      0.1733
     85  C         -6.2050  -26.2900   11.8730 C.2   114  GLN114      0.2616
     86  O         -5.7350  -27.4120   12.0610 O.2   114  GLN114     -0.2715
     87  CB        -5.0750  -24.5040   13.3380 C.3   114  GLN114      0.0408
     88  CG        -5.4060  -23.1470   14.0000 C.3   114  GLN114      0.0908
     89  CD        -4.2060  -22.2680   14.3120 C.2   114  GLN114      0.2608
     90  OE1       -3.2950  -22.6730   15.0420 O.2   114  GLN114     -0.2717
     91  NE2       -4.2150  -21.0370   13.7850 N.am  114  GLN114     -0.0878
     92  N         -6.6640  -25.8750   10.6970 N.am  115  VAL115     -0.1977
     93  CA        -6.7610  -26.7370    9.5230 C.3   115  VAL115      0.1596
     94  C         -5.9100  -26.1600    8.3980 C.2   115  VAL115      0.2287
     95  O         -6.1990  -25.0770    7.8940 O.2   115  VAL115     -0.2864
     96  CB        -8.2350  -26.8660    9.0400 C.3   115  VAL115      0.0276
     97  CG1       -8.3300  -27.7360    7.7830 C.3   115  VAL115      0.0022
     98  CG2       -9.1230  -27.4200   10.1450 C.3   115  VAL115      0.0022
     99  N         -4.5820  -29.6690    3.4760 N.3   119  ILE119     -0.1245
    100  CA        -5.5870  -30.6620    3.8730 C.3   119  ILE119      0.1561
    101  C         -6.9160  -30.4100    3.1530 C.2   119  ILE119      0.2260
    102  O         -7.5540  -31.3470    2.6620 O.2   119  ILE119     -0.2867
    103  CB        -5.7950  -30.6870    5.4150 C.3   119  ILE119      0.0252
    104  CG1       -4.5670  -31.2830    6.1070 C.3   119  ILE119      0.0019
    105  CG2       -7.0560  -31.4740    5.7980 C.3   119  ILE119      0.0019
    106  CD1       -4.6000  -31.1990    7.6200 C.3   119  ILE119      0.0001
@<TRIPOS>BOND
     1   102   101    2
     2   101   100    1
     3    99   100    1
     4   100   103    1
     5   103   105    1
     6   103   104    1
     7   104   106    1
     8    97    96    1
     9    95    94    2
    10    39    41    1
    11    39    40    1
    12    39    36    1
    13    94    93    1
    14    37    36    1
    15    37    38    2
    16    35    36    1
    17    96    93    1
    18    96    98    1
    19    93    92    1
    20    54    55    1
    21    54    51    1
    22    55    56    1
    23    57    56    1
    24    92    85   am
    25    52    51    1
    26    52    53    2
    27    51    50    1
    28    73    71    1
    29    50    44   am
    30    42    43    1
    31    85    86    2
    32    85    84    1
    33    72    71    1
    34    71    70    1
    35    44    43    1
    36    44    45    2
    37    43    46    1
    38    46    47    1
    39    84    87    1
    40    84    83    1
    41    87    88    1
    42    48    47    1
    43    66    67    1
    44    47    49    1
    45    70    67    1
    46    91    89   am
    47    67    68    1
    48    88    89    1
    49    64    65    1
    50    64    63    1
    51    83    76   am
    52    89    90    2
    53    77    76    2
    54    62    59    1
    55    62    63    1
    56    58    59    1
    57    60    59    1
    58    60    61    2
    59    34    32   am
    60    76    75    1
    61    68    69    2
    62    82    80   am
    63    78    75    1
    64    78    79    1
    65    33    32    2
    66    32    31    1
    67    80    81    2
    68    80    79    1
    69    75    74    1
    70    31    30    1
    71    16    14    1
    72    15    14    1
    73    14    13    1
    74    30    27    1
    75    13    10    1
    76    27    26    1
    77    27    28    1
    78    29    28    2
    79    12    11    2
    80    10    11    1
    81    10     9    1
    82     8     7    1
    83     7     6    1
    84    11    17   am
    85    17    18    1
    86    18    19    1
    87    18    21    1
    88     2     1    1
    89     2     5    1
    90     2     3    1
    91     6     5    1
    92    22    21    1
    93    22    23    1
    94     4     3    2
    95    20    19    2
    96    24    23    2
    97    23    25   am
