@<TRIPOS>MOLECULE
tmp/4dosA00.pdb
 128 120 0 0 0
SMALL
GASTEIGER

@<TRIPOS>ATOM
      1  N        -26.3210  -21.8800   17.4120 N.3    58  PHE58      -0.1241
      2  CA       -26.9280  -21.8020   18.7430 C.3    58  PHE58       0.1605
      3  C        -26.3200  -20.6420   19.5370 C.2    58  PHE58       0.2264
      4  O        -27.0370  -19.8610   20.1720 O.2    58  PHE58      -0.2867
      5  CB       -26.7350  -23.1080   19.5190 C.3    58  PHE58       0.0534
      6  CG       -27.7900  -24.1470   19.2510 C.ar   58  PHE58      -0.0203
      7  CD1      -29.0860  -23.9870   19.7420 C.ar   58  PHE58      -0.0042
      8  CD2      -27.4860  -25.2990   18.5270 C.ar   58  PHE58      -0.0042
      9  CE1      -30.0690  -24.9620   19.5080 C.ar   58  PHE58      -0.0003
     10  CE2      -28.4610  -26.2800   18.2860 C.ar   58  PHE58      -0.0003
     11  CZ       -29.7530  -26.1090   18.7760 C.ar   58  PHE58      -0.0000
     12  N        -27.5350  -17.1870   18.2290 N.3    61  VAL61      -0.1231
     13  CA       -28.9030  -16.8960   18.6890 C.3    61  VAL61       0.1692
     14  C        -28.8680  -16.4220   20.1520 C.2    61  VAL61       0.2591
     15  O        -29.5170  -15.4340   20.5250 O.2    61  VAL61      -0.2718
     16  CB       -29.8360  -18.1360   18.5110 C.3    61  VAL61       0.0266
     17  CG1      -31.1790  -17.9380   19.2150 C.3    61  VAL61       0.0020
     18  CG2      -30.0570  -18.4390   17.0330 C.3    61  VAL61       0.0020
     19  N        -28.0840  -17.1060   20.9750 N.am   62  GLU62      -0.1979
     20  CA       -27.9650  -16.7000   22.3740 C.3    62  GLU62       0.1602
     21  C        -27.3000  -15.3310   22.5520 C.2    62  GLU62       0.2287
     22  O        -27.7010  -14.5610   23.4410 O.2    62  GLU62      -0.2864
     23  CB       -27.3130  -17.8010   23.2210 C.3    62  GLU62       0.0415
     24  CG       -28.1790  -19.0730   23.3250 C.3    62  GLU62       0.1163
     25  CD       -29.5930  -18.8200   23.8890 C.2    62  GLU62       0.3649
     26  OE1      -29.7110  -18.1020   24.9180 O.co2  62  GLU62      -0.2457
     27  OE2      -30.5880  -19.3440   23.3090 O.co2  62  GLU62      -0.2457
     28  N        -30.2070  -12.7010   21.4170 N.3    65  ARG65      -0.1245
     29  CA       -31.3280  -12.5690   22.3260 C.3    65  ARG65       0.1563
     30  C        -30.9470  -11.9580   23.6740 C.2    65  ARG65       0.2260
     31  O        -31.8060  -11.4330   24.3600 O.2    65  ARG65      -0.2867
     32  CB       -32.0590  -13.9050   22.4960 C.3    65  ARG65       0.0307
     33  CG       -31.3090  -14.9160   23.3000 C.3    65  ARG65       0.0489
     34  CD       -32.1030  -16.1830   23.4030 C.3    65  ARG65       0.2205
     35  NE       -33.2340  -16.0330   24.3080 N.pl3  65  ARG65      -0.0865
     36  CZ       -33.3020  -16.5880   25.5090 C.cat  65  ARG65       0.5346
     37  NH1      -32.3000  -17.3330   25.9560 N.pl3  65  ARG65       0.1354
     38  NH2      -34.3710  -16.3970   26.2640 N.pl3  65  ARG65       0.1354
     39  N        -31.9860   -5.7310   20.9450 N.3    70  PHE70      -0.1241
     40  CA       -32.6460   -6.8520   20.2900 C.3    70  PHE70       0.1605
     41  C        -33.6250   -7.5360   21.2460 C.2    70  PHE70       0.2264
     42  O        -34.7240   -7.9230   20.8530 O.2    70  PHE70      -0.2867
     43  CB       -31.6070   -7.8560   19.7890 C.3    70  PHE70       0.0534
     44  CG       -32.1770   -8.9350   18.9010 C.ar   70  PHE70      -0.0203
     45  CD1      -32.4140   -8.6920   17.5480 C.ar   70  PHE70      -0.0042
     46  CD2      -32.4630  -10.1920   19.4110 C.ar   70  PHE70      -0.0042
     47  CE1      -32.9300   -9.6920   16.7200 C.ar   70  PHE70      -0.0003
     48  CE2      -32.9790  -11.1940   18.5950 C.ar   70  PHE70      -0.0003
     49  CZ       -33.2010  -10.9400   17.2380 C.ar   70  PHE70      -0.0000
     50  N        -40.8190  -11.3300   19.9160 N.3    75  VAL75      -0.1231
     51  CA       -40.2620  -12.5580   19.3340 C.3    75  VAL75       0.1692
     52  C        -40.4760  -12.6420   17.8140 C.2    75  VAL75       0.2592
     53  O        -39.5730  -13.0450   17.0770 O.2    75  VAL75      -0.2718
     54  CB       -40.7870  -13.8200   20.0750 C.3    75  VAL75       0.0266
     55  CG1      -40.4270  -15.1030   19.3320 C.3    75  VAL75       0.0020
     56  CG2      -40.2200  -13.8590   21.4920 C.3    75  VAL75       0.0020
     57  N        -41.6490  -12.2240   17.3430 N.am   76  ASP76      -0.1974
     58  CA       -41.9270  -12.2490   15.9060 C.3    76  ASP76       0.1709
     59  C        -40.9690  -11.3600   15.1120 C.2    76  ASP76       0.2293
     60  O        -40.5730  -11.7150   14.0050 O.2    76  ASP76      -0.2864
     61  CB       -43.3850  -11.8860   15.6260 C.3    76  ASP76       0.1436
     62  CG       -44.3590  -12.7930   16.3810 C.2    76  ASP76       0.3671
     63  OD1      -44.4300  -13.9930   16.0520 O.co2  76  ASP76      -0.2456
     64  OD2      -45.0230  -12.3060   17.3280 O.co2  76  ASP76      -0.2456
     65  N        -37.8880  -10.4630   16.2910 N.3    78  GLN78      -0.1231
     66  CA       -36.6140  -11.1660   16.4720 C.3    78  GLN78       0.1698
     67  C        -36.4320  -12.2880   15.4550 C.2    78  GLN78       0.2592
     68  O        -35.3510  -12.4410   14.8850 O.2    78  GLN78      -0.2718
     69  CB       -36.4930  -11.7350   17.8880 C.3    78  GLN78       0.0381
     70  CG       -36.4190  -10.6880   18.9990 C.3    78  GLN78       0.0905
     71  CD       -36.3050  -11.3190   20.3830 C.2    78  GLN78       0.2608
     72  OE1      -36.6160  -12.4910   20.5650 O.2    78  GLN78      -0.2717
     73  NE2      -35.8710  -10.5370   21.3600 N.am   78  GLN78      -0.0878
     74  N        -37.4950  -13.0650   15.2310 N.am   79  MET79      -0.1979
     75  CA       -37.4600  -14.1800   14.2810 C.3    79  MET79       0.1605
     76  C        -37.2090  -13.6830   12.8630 C.2    79  MET79       0.2287
     77  O        -36.3550  -14.2310   12.1630 O.2    79  MET79      -0.2864
     78  CB       -38.7640  -14.9940   14.3280 C.3    79  MET79       0.0413
     79  CG       -38.9390  -15.8290   15.5880 C.3    79  MET79       0.0598
     80  SD       -40.5770  -16.5870   15.6950 S.3    79  MET79      -0.1393
     81  CE       -40.4790  -17.7670   14.3400 C.3    79  MET79       0.0692
     82  N        -33.4980  -12.5240   12.5270 N.3    82  LEU82      -0.1231
     83  CA       -32.5940  -13.6830   12.4780 C.3    82  LEU82       0.1693
     84  C        -32.7820  -14.5840   11.2560 C.2    82  LEU82       0.2591
     85  O        -31.7990  -15.1120   10.7210 O.2    82  LEU82      -0.2718
     86  CB       -32.6640  -14.5010   13.7800 C.3    82  LEU82       0.0284
     87  CG       -31.8790  -13.8790   14.9340 C.3    82  LEU82       0.0019
     88  CD1      -32.2590  -14.5330   16.2710 C.3    82  LEU82       0.0001
     89  CD2      -30.3480  -13.9410   14.6810 C.3    82  LEU82       0.0001
     90  N        -34.0300  -14.7450   10.8050 N.am   83  GLN83      -0.1979
     91  CA       -34.3160  -15.5070    9.5760 C.3    83  GLN83       0.1601
     92  C        -33.5620  -14.8790    8.4090 C.2    83  GLN83       0.2287
     93  O        -33.0240  -15.5840    7.5610 O.2    83  GLN83      -0.2864
     94  CB       -35.8280  -15.5630    9.2730 C.3    83  GLN83       0.0394
     95  CG       -36.6100  -16.5090   10.1880 C.3    83  GLN83       0.0908
     96  CD       -38.1370  -16.2870   10.1930 C.2    83  GLN83       0.2608
     97  OE1      -38.6550  -15.2700    9.7040 O.2    83  GLN83      -0.2717
     98  NE2      -38.8550  -17.2400   10.7720 N.am   83  GLN83      -0.0878
     99  N        -29.9870  -27.7560   13.1190 N.3   235  LEU235     -0.1245
    100  CA       -30.6910  -26.4570   13.2090 C.3   235  LEU235      0.1561
    101  C        -30.4320  -25.5510   12.0000 C.2   235  LEU235      0.2260
    102  O        -31.2890  -24.7280   11.6450 O.2   235  LEU235     -0.2867
    103  CB       -30.3660  -25.7240   14.5240 C.3   235  LEU235      0.0270
    104  CG       -30.4380  -24.1890   14.6190 C.3   235  LEU235      0.0019
    105  CD1      -31.8660  -23.6850   14.8470 C.3   235  LEU235      0.0001
    106  CD2      -29.5060  -23.6550   15.7140 C.3   235  LEU235      0.0001
    107  N        -33.0270  -26.4490    9.5610 N.3   238  GLU238     -0.1231
    108  CA       -34.3020  -25.7980    9.8950 C.3   238  GLU238      0.1699
    109  C        -34.3490  -24.3400    9.4320 C.2   238  GLU238      0.2592
    110  O        -35.3610  -23.9020    8.8800 O.2   238  GLU238     -0.2718
    111  CB       -34.6310  -25.9070   11.3920 C.3   238  GLU238      0.0402
    112  CG       -36.0030  -25.3180   11.7570 C.3   238  GLU238      0.1161
    113  CD       -36.7400  -26.0960   12.8440 C.2   238  GLU238      0.3649
    114  OE1      -36.3330  -27.2440   13.1470 O.co2 238  GLU238     -0.2457
    115  OE2      -37.7450  -25.5650   13.3870 O.co2 238  GLU238     -0.2457
    116  N        -33.2610  -23.6020    9.6520 N.am  239  MET239     -0.1979
    117  CA       -33.1190  -22.2410    9.1180 C.3   239  MET239      0.1605
    118  C        -33.2130  -22.2130    7.5820 C.2   239  MET239      0.2287
    119  O        -33.8230  -21.3060    7.0170 O.2   239  MET239     -0.2864
    120  CB       -31.8020  -21.5960    9.5660 C.3   239  MET239      0.0413
    121  CG       -31.6350  -21.4200   11.0700 C.3   239  MET239      0.0598
    122  SD       -33.0000  -20.5890   11.9020 S.3   239  MET239     -0.1393
    123  CE       -32.8250  -18.8930   11.3390 C.3   239  MET239      0.0692
    124  N        -36.8150  -22.7110    6.1310 N.3   242  ALA242     -0.1245
    125  CA       -37.7170  -21.6010    6.4460 C.3   242  ALA242      0.1562
    126  C        -37.6800  -20.4890    5.3950 C.2   242  ALA242      0.2260
    127  O        -36.6910  -20.3270    4.6730 O.2   242  ALA242     -0.2867
    128  CB       -37.4010  -21.0430    7.8260 C.3   242  ALA242      0.0290
@<TRIPOS>BOND
     1   127   126    2
     2   126   125    1
     3   124   125    1
     4   125   128    1
     5   119   118    2
     6    93    92    2
     7   118   117    1
     8    92    91    1
     9   110   109    2
    10   117   120    1
    11   117   116    1
    12    94    91    1
    13    94    95    1
    14   109   116   am
    15   109   108    1
    16   107   108    1
    17   120   121    1
    18    91    90    1
    19    97    96    2
    20   108   111    1
    21    95    96    1
    22    96    98   am
    23    85    84    2
    24    90    84   am
    25   121   122    1
    26    84    83    1
    27   123   122    1
    28   111   112    1
    29   102   101    2
    30   112   113    1
    31   101   100    1
    32    77    76    2
    33    83    82    1
    34    83    86    1
    35   113   114   ar
    36   113   115   ar
    37    76    75    1
    38    99   100    1
    39   100   103    1
    40    86    87    1
    41    60    59    2
    42    75    78    1
    43    75    74    1
    44    78    79    1
    45    81    80    1
    46   103   104    1
    47   104   105    1
    48   104   106    1
    49    89    87    1
    50    68    67    2
    51    87    88    1
    52    59    58    1
    53    74    67   am
    54    67    66    1
    55    79    80    1
    56    61    58    1
    57    61    62    1
    58    58    57    1
    59    63    62   ar
    60    65    66    1
    61    62    64   ar
    62    66    69    1
    63    47    49   ar
    64    47    45   ar
    65    18    16    1
    66    53    52    2
    67    49    48   ar
    68    57    52   am
    69     1     2    1
    70    45    44   ar
    71    52    51    1
    72    69    70    1
    73    12    13    1
    74    10     8   ar
    75    10    11   ar
    76    16    13    1
    77    16    17    1
    78     8     6   ar
    79    48    46   ar
    80    13    14    1
    81     2     5    1
    82     2     3    1
    83    11     9   ar
    84    44    46   ar
    85    44    43    1
    86    70    71    1
    87     6     5    1
    88     6     7   ar
    89    55    54    1
    90    51    50    1
    91    51    54    1
    92     9     7   ar
    93     3     4    2
    94    43    40    1
    95    54    56    1
    96    14    15    2
    97    14    19   am
    98    40    39    1
    99    40    41    1
   100    71    72    2
   101    71    73   am
   102    42    41    2
   103    19    20    1
   104    28    29    1
   105    29    32    1
   106    29    30    1
   107    20    21    1
   108    20    23    1
   109    32    33    1
   110    21    22    2
   111    23    24    1
   112    33    34    1
   113    27    25   ar
   114    24    25    1
   115    34    35    1
   116    30    31    2
   117    25    26   ar
   118    35    36    2
   119    36    37    1
   120    36    38    1
