@<TRIPOS>MOLECULE
tmp/4dosA04.pdb
 98 93 0 0 0
SMALL
GASTEIGER

@<TRIPOS>ATOM
      1  N         -6.4250    6.4220   22.1240 N.3     3  ALA3       -0.1245
      2  CA        -7.5880    5.8900   21.4190 C.3     3  ALA3        0.1562
      3  C         -8.8690    6.3970   22.0650 C.2     3  ALA3        0.2260
      4  O         -8.8880    6.7260   23.2570 O.2     3  ALA3       -0.2867
      5  CB        -7.5610    4.3610   21.4190 C.3     3  ALA3        0.0290
      6  N        -13.1420    5.5080   22.3310 N.3     5  ILE5       -0.1245
      7  CA       -14.2130    4.5680   22.0010 C.3     5  ILE5        0.1561
      8  C        -15.5690    5.1370   22.3710 C.2     5  ILE5        0.2260
      9  O        -15.8330    5.3560   23.5450 O.2     5  ILE5       -0.2867
     10  CB       -14.0420    3.1980   22.6780 C.3     5  ILE5        0.0252
     11  CG1      -12.6010    2.6980   22.4880 C.3     5  ILE5        0.0019
     12  CG2      -15.0870    2.2010   22.1320 C.3     5  ILE5        0.0019
     13  CD1      -12.4130    1.2760   22.8160 C.3     5  ILE5        0.0001
     14  N        -18.9430    0.5970   23.5230 N.3    10  LEU10      -0.1245
     15  CA       -18.7190   -0.0690   24.7760 C.3    10  LEU10       0.1561
     16  C        -19.9110   -0.9320   25.1820 C.2    10  LEU10       0.2260
     17  O        -19.7630   -2.0190   25.6120 O.2    10  LEU10      -0.2867
     18  CB       -18.4400    0.9490   25.8750 C.3    10  LEU10       0.0270
     19  CG       -17.2740    1.8900   25.7950 C.3    10  LEU10       0.0019
     20  CD1      -17.1380    2.8020   26.9900 C.3    10  LEU10       0.0001
     21  CD2      -16.0090    1.1170   25.5590 C.3    10  LEU10       0.0001
     22  N        -19.8730   -4.0130   22.9410 N.3    13  LEU13      -0.1231
     23  CA       -18.8600   -4.9270   23.3980 C.3    13  LEU13       0.1693
     24  C        -19.2940   -5.7710   24.5990 C.2    13  LEU13       0.2591
     25  O        -18.9480   -6.8890   24.6940 O.2    13  LEU13      -0.2718
     26  CB       -17.5530   -4.2390   23.6700 C.3    13  LEU13       0.0284
     27  CG       -16.6400   -3.8480   22.5280 C.3    13  LEU13       0.0019
     28  CD1      -16.1740   -5.0070   21.6870 C.3    13  LEU13       0.0001
     29  CD2      -17.4560   -3.0200   21.6390 C.3    13  LEU13       0.0001
     30  N        -20.0620   -5.1860   25.4820 N.am   14  LYS14      -0.1980
     31  CA       -20.5320   -5.8690   26.6540 C.3    14  LYS14       0.1596
     32  C        -21.4100   -7.0690   26.3380 C.2    14  LYS14       0.2287
     33  O        -21.4840   -7.9470   27.1120 O.2    14  LYS14      -0.2864
     34  CB       -21.2560   -4.9150   27.6190 C.3    14  LYS14       0.0298
     35  CG       -20.3960   -3.8860   28.3070 C.3    14  LYS14       0.0038
     36  CD       -21.2050   -2.7770   28.9540 C.3    14  LYS14       0.0206
     37  CE       -20.3380   -1.8190   29.7530 C.3    14  LYS14       0.1093
     38  NZ       -20.4780   -0.3550   29.4970 N.3    14  LYS14      -0.1314
     39  N        -10.9220   -4.2230   13.2290 N.3   148  ASP148     -0.1225
     40  CA       -10.7130   -4.5540   14.6440 C.3   148  ASP148      0.1805
     41  C        -12.0070   -4.9590   15.3870 C.2   148  ASP148      0.2598
     42  O        -13.0900   -4.9500   14.8010 O.2   148  ASP148     -0.2718
     43  CB        -9.9140   -3.4390   15.3650 C.3   148  ASP148      0.1424
     44  CG       -10.7190   -2.1530   15.6020 C.2   148  ASP148      0.3668
     45  OD1      -11.9670   -2.1690   15.5420 O.co2 148  ASP148     -0.2456
     46  OD2      -10.0810   -1.1070   15.8940 O.co2 148  ASP148     -0.2456
     47  N        -11.8850   -5.3150   16.6650 N.am  149  GLN149     -0.1965
     48  CA       -13.0260   -5.8230   17.4190 C.3   149  GLN149      0.1733
     49  C        -14.1780   -4.8230   17.5200 C.2   149  GLN149      0.2616
     50  O        -15.3280   -5.2130   17.4410 O.2   149  GLN149     -0.2715
     51  CB       -12.6230   -6.2950   18.8190 C.3   149  GLN149      0.0408
     52  CG       -13.6980   -7.1880   19.4510 C.3   149  GLN149      0.0908
     53  CD       -13.5410   -7.3880   20.9490 C.2   149  GLN149      0.2608
     54  OE1      -12.7730   -6.6910   21.6200 O.2   149  GLN149     -0.2717
     55  NE2      -14.2780   -8.3530   21.4830 N.am  149  GLN149     -0.0878
     56  N        -13.8620   -3.5450   17.6990 N.am  150  ARG150     -0.1977
     57  CA       -14.8830   -2.5100   17.8100 C.3   150  ARG150      0.1597
     58  C        -15.6850   -2.3950   16.5160 C.2   150  ARG150      0.2287
     59  O        -16.9110   -2.2660   16.5560 O.2   150  ARG150     -0.2864
     60  CB       -14.2740   -1.1610   18.2030 C.3   150  ARG150      0.0334
     61  CG       -13.9220   -1.0190   19.6950 C.3   150  ARG150      0.0492
     62  CD       -12.7990   -1.9560   20.1630 C.3   150  ARG150      0.2205
     63  NE       -11.5910   -1.8640   19.3320 N.pl3 150  ARG150     -0.0865
     64  CZ       -10.5140   -2.6460   19.4590 C.cat 150  ARG150      0.5346
     65  NH1      -10.4640   -3.5870   20.3900 N.pl3 150  ARG150      0.1354
     66  NH2       -9.4710   -2.4700   18.6540 N.pl3 150  ARG150      0.1354
     67  N        -15.7460    6.4310   15.4520 N.3   188  TYR188     -0.1241
     68  CA       -14.6510    5.5430   15.8200 C.3   188  TYR188      0.1605
     69  C        -13.5450    5.4540   14.7580 C.2   188  TYR188      0.2264
     70  O        -12.3540    5.5270   15.0930 O.2   188  TYR188     -0.2867
     71  CB       -15.1860    4.1430   16.1310 C.3   188  TYR188      0.0534
     72  CG       -14.1090    3.1580   16.4940 C.ar  188  TYR188     -0.0201
     73  CD1      -13.6050    3.1090   17.7890 C.ar  188  TYR188     -0.0009
     74  CD2      -13.5990    2.2640   15.5450 C.ar  188  TYR188     -0.0009
     75  CE1      -12.6260    2.2220   18.1350 C.ar  188  TYR188      0.0417
     76  CE2      -12.6070    1.3590   15.8850 C.ar  188  TYR188      0.0417
     77  CZ       -12.1280    1.3440   17.1910 C.ar  188  TYR188      0.1957
     78  OH       -11.1540    0.4600   17.5690 O.3   188  TYR188     -0.2866
     79  N         -9.8330    7.0900   15.3110 N.3   192  ASN192     -0.1225
     80  CA        -8.7920    6.0910   15.5620 C.3   192  ASN192      0.1785
     81  C         -7.9930    5.6260   14.3410 C.2   192  ASN192      0.2597
     82  O         -6.8900    5.0900   14.4810 O.2   192  ASN192     -0.2718
     83  CB        -9.3890    4.9050   16.3030 C.3   192  ASN192      0.1169
     84  CG        -9.9040    5.2910   17.6690 C.2   192  ASN192      0.2627
     85  OD1       -9.1210    5.5100   18.5860 O.2   192  ASN192     -0.2716
     86  ND2      -11.2220    5.4050   17.8070 N.am  192  ASN192     -0.0877
     87  N         -8.5430    5.8310   13.1500 N.am  193  TYR193     -0.1976
     88  CA        -7.8310    5.4840   11.9200 C.3   193  TYR193      0.1639
     89  C         -7.8560    6.6650   10.9450 C.2   193  TYR193      0.2290
     90  O         -8.2470    6.5080    9.7770 O.2   193  TYR193     -0.2864
     91  CB        -8.4220    4.2100   11.3050 C.3   193  TYR193      0.0560
     92  CG        -8.2720    2.9970   12.1950 C.ar  193  TYR193     -0.0198
     93  CD1       -7.1240    2.2020   12.1440 C.ar  193  TYR193     -0.0009
     94  CD2       -9.2770    2.6490   13.1000 C.ar  193  TYR193     -0.0009
     95  CE1       -6.9840    1.0920   12.9630 C.ar  193  TYR193      0.0417
     96  CE2       -9.1490    1.5400   13.9240 C.ar  193  TYR193      0.0417
     97  CZ        -8.0070    0.7690   13.8530 C.ar  193  TYR193      0.1957
     98  OH        -7.8940   -0.3200   14.6740 O.3   193  TYR193     -0.2866
@<TRIPOS>BOND
     1    90    89    2
     2    89    88    1
     3    91    88    1
     4    91    92    1
     5    88    87    1
     6    93    92   ar
     7    93    95   ar
     8    92    94   ar
     9    95    97   ar
    10    94    96   ar
    11    87    81   am
    12    39    40    1
    13    97    96   ar
    14    97    98    1
    15    81    82    2
    16    81    80    1
    17    40    43    1
    18    40    41    1
    19    69    70    2
    20    69    68    1
    21    42    41    2
    22    79    80    1
    23    43    44    1
    24    41    47   am
    25    67    68    1
    26    45    44   ar
    27    74    76   ar
    28    74    72   ar
    29    80    83    1
    30    44    46   ar
    31    68    71    1
    32    76    77   ar
    33    71    72    1
    34    83    84    1
    35    72    73   ar
    36    58    59    2
    37    58    57    1
    38    47    48    1
    39    77    78    1
    40    77    75   ar
    41    48    49    1
    42    48    51    1
    43    50    49    2
    44    49    56   am
    45    84    86   am
    46    84    85    2
    47    56    57    1
    48    73    75   ar
    49    57    60    1
    50    60    61    1
    51    66    64    1
    52    51    52    1
    53    63    64    2
    54    63    62    1
    55    52    53    1
    56    64    65    1
    57    61    62    1
    58    53    55   am
    59    53    54    2
    60     5     2    1
    61     2     3    1
    62     2     1    1
    63    29    27    1
    64    28    27    1
    65     7     6    1
    66     7     8    1
    67     7    10    1
    68     3     4    2
    69    12    10    1
    70     8     9    2
    71    11    10    1
    72    11    13    1
    73    27    26    1
    74    22    23    1
    75    23    26    1
    76    23    24    1
    77    14    15    1
    78    24    25    2
    79    24    30   am
    80    15    16    1
    81    15    18    1
    82    16    17    2
    83    30    31    1
    84    21    19    1
    85    19    18    1
    86    19    20    1
    87    32    31    1
    88    32    33    2
    89    31    34    1
    90    34    35    1
    91    35    36    1
    92    36    37    1
    93    38    37    1
