@<TRIPOS>MOLECULE
tmp/4dowB00.pdb
 205 203 0 0 0
SMALL
GASTEIGER

@<TRIPOS>ATOM
      1  N          8.5250    7.8670   15.9420 N.3    42  ILE42      -0.1231
      2  CA         8.4990    7.2980   14.6050 C.3    42  ILE42       0.1692
      3  C          9.3140    8.2230   13.6870 C.2    42  ILE42       0.2592
      4  O          9.0700    9.4070   13.6560 O.2    42  ILE42      -0.2718
      5  CB         7.0400    7.1940   14.1130 C.3    42  ILE42       0.0266
      6  CG1        6.2960    6.1120   14.9010 C.3    42  ILE42       0.0019
      7  CG2        6.9670    6.9130   12.5950 C.3    42  ILE42       0.0020
      8  CD1        4.7890    6.3610   14.9760 C.3    42  ILE42       0.0001
      9  N         10.2830    7.6660   12.9720 N.am   43  GLN43      -0.1966
     10  CA        11.1890    8.4690   12.1970 C.3    43  GLN43       0.1733
     11  C         10.3940    9.2180   11.1500 C.2    43  GLN43       0.2617
     12  O          9.6600    8.6150   10.3650 O.2    43  GLN43      -0.2715
     13  CB        12.2620    7.6040   11.5190 C.3    43  GLN43       0.0408
     14  CG        13.3300    8.4410   10.8090 C.3    43  GLN43       0.0908
     15  CD        13.9840    9.4620   11.7410 C.2    43  GLN43       0.2608
     16  OE1       14.6330    9.1070   12.7270 O.2    43  GLN43      -0.2717
     17  NE2       13.8060   10.7330   11.4290 N.am   43  GLN43      -0.0878
     18  N         10.5320   10.5400   11.1810 N.am   44  GLY44      -0.1940
     19  CA         9.8670   11.4510   10.2640 C.3    44  GLY44       0.2014
     20  C         10.8350   12.0770    9.2750 C.2    44  GLY44       0.2639
     21  O         11.8780   11.4970    8.9560 O.2    44  GLY44      -0.2714
     22  N         10.4920   13.2660    8.7940 N.am   45  GLU45      -0.1963
     23  CA        11.3820   14.0160    7.9020 C.3    45  GLU45       0.1733
     24  C         12.7990   14.1110    8.4940 C.2    45  GLU45       0.2616
     25  O         12.9640   14.3660    9.6900 O.2    45  GLU45      -0.2715
     26  CB        10.8020   15.4070    7.6250 C.3    45  GLU45       0.0429
     27  CG        10.2530   15.5840    6.2140 C.3    45  GLU45       0.1163
     28  CD        11.2380   16.2880    5.2940 C.2    45  GLU45       0.3649
     29  OE1       11.2280   17.5400    5.2650 O.co2  45  GLU45      -0.2457
     30  OE2       12.0230   15.5950    4.6060 O.co2  45  GLU45      -0.2457
     31  N         13.8080   13.9100    7.6440 N.am   46  ASP46      -0.1971
     32  CA        15.2020   13.7030    8.0690 C.3    46  ASP46       0.1709
     33  C         15.8000   14.7680    8.9970 C.2    46  ASP46       0.2293
     34  O         16.5540   14.4380    9.9210 O.2    46  ASP46      -0.2864
     35  CB        16.0890   13.5810    6.8280 C.3    46  ASP46       0.1436
     36  CG        16.1590   12.2220    6.2240 C.2    46  ASP46       0.3671
     37  OD1       15.6240   11.2750    6.7590 O.co2  46  ASP46      -0.2456
     38  OD2       16.8710   12.1390    5.1430 O.co2  46  ASP46      -0.2456
     39  N          7.8810   11.7410   14.8180 N.3    51  TYR51      -0.1241
     40  CA         6.4660   11.7360   15.1130 C.3    51  TYR51       0.1605
     41  C          6.2820   11.0090   16.4290 C.2    51  TYR51       0.2264
     42  O          7.1000   10.1600   16.7990 O.2    51  TYR51      -0.2867
     43  CB         5.7190   10.9950   14.0120 C.3    51  TYR51       0.0534
     44  CG         5.7520   11.7150   12.6930 C.ar   51  TYR51      -0.0201
     45  CD1        5.5710   13.1090   12.6300 C.ar   51  TYR51      -0.0009
     46  CD2        5.9530   11.0260   11.5130 C.ar   51  TYR51      -0.0009
     47  CE1        5.5950   13.7930   11.3980 C.ar   51  TYR51       0.0417
     48  CE2        5.9700   11.7040   10.2790 C.ar   51  TYR51       0.0417
     49  CZ         5.7940   13.0660   10.2320 C.ar   51  TYR51       0.1957
     50  OH         5.8270   13.7120    8.9990 O.3    51  TYR51      -0.2866
     51  N          4.6330   -8.0250    6.2790 N.3    68  LYS68      -0.1245
     52  CA         5.2770   -6.9360    6.9720 C.3    68  LYS68       0.1561
     53  C          4.7360   -6.8880    8.3800 C.2    68  LYS68       0.2260
     54  O          3.5920   -7.2570    8.6160 O.2    68  LYS68      -0.2867
     55  CB         4.9590   -5.6000    6.2720 C.3    68  LYS68       0.0271
     56  CG         5.9060   -5.2270    5.1470 C.3    68  LYS68       0.0035
     57  CD         6.8930   -4.1700    5.6320 C.3    68  LYS68       0.0206
     58  CE         7.9710   -3.8660    4.6000 C.3    68  LYS68       0.1093
     59  NZ         9.3790   -4.0920    5.0900 N.3    68  LYS68      -0.1314
     60  N         -2.2480    9.1330   16.2780 N.3    75  TRP75      -0.1227
     61  CA        -1.2220   10.1660   16.1350 C.3    75  TRP75       0.1737
     62  C         -1.3280   11.2630   17.1640 C.2    75  TRP75       0.2595
     63  O         -2.4150   11.6220   17.5940 O.2    75  TRP75      -0.2718
     64  CB        -1.3430   10.8740   14.7770 C.3    75  TRP75       0.0564
     65  CG        -0.9710   10.0360   13.6240 C.ar   75  TRP75       0.0003
     66  CD1       -1.8080    9.5730   12.6600 C.ar   75  TRP75       0.0946
     67  CD2        0.3310    9.5440   13.3030 C.ar   75  TRP75       0.0152
     68  NE1       -1.1050    8.8280   11.7390 N.ar   75  TRP75      -0.2442
     69  CE2        0.2110    8.8050   12.1080 C.ar   75  TRP75       0.0810
     70  CE3        1.5900    9.6850   13.8850 C.ar   75  TRP75       0.0012
     71  CZ2        1.3010    8.1950   11.5000 C.ar   75  TRP75       0.0191
     72  CZ3        2.6620    9.0780   13.2880 C.ar   75  TRP75       0.0001
     73  CH2        2.5210    8.3450   12.1030 C.ar   75  TRP75       0.0015
     74  N         -0.1900   11.8090   17.5410 N.am   76  PHE76      -0.1962
     75  CA        -0.2060   13.0500   18.2530 C.3    76  PHE76       0.1771
     76  C          0.4100   13.9960   17.2550 C.2    76  PHE76       0.2619
     77  O          0.9190   13.5640   16.2240 O.2    76  PHE76      -0.2715
     78  CB         0.6730   12.9660   19.4890 C.3    76  PHE76       0.0574
     79  CG         0.0700   12.1490   20.5760 C.ar   76  PHE76      -0.0200
     80  CD1        0.0460   10.7750   20.4710 C.ar   76  PHE76      -0.0042
     81  CD2       -0.5210   12.7510   21.6560 C.ar   76  PHE76      -0.0042
     82  CE1       -0.5340   10.0020   21.4690 C.ar   76  PHE76      -0.0003
     83  CE2       -1.0930   12.0100   22.6580 C.ar   76  PHE76      -0.0003
     84  CZ        -1.1030   10.6300   22.5700 C.ar   76  PHE76      -0.0000
     85  N          0.4070   15.2730   17.5920 N.am   77  VAL77      -0.1977
     86  CA         1.0840   16.2780   16.7880 C.3    77  VAL77       0.1596
     87  C          1.8070   17.1940   17.7190 C.2    77  VAL77       0.2287
     88  O          1.2900   17.5580   18.7980 O.2    77  VAL77      -0.2864
     89  CB         0.1100   17.1410   15.9870 C.3    77  VAL77       0.0276
     90  CG1       -0.5660   16.3310   14.9190 C.3    77  VAL77       0.0022
     91  CG2       -0.9130   17.7920   16.9170 C.3    77  VAL77       0.0022
     92  N          3.7030   21.2530   14.2380 N.3    81  GLU81      -0.1245
     93  CA         2.9170   20.5430   13.2370 C.3    81  GLU81       0.1567
     94  C          1.5870   21.2750   13.0230 C.2    81  GLU81       0.2260
     95  O          0.9120   21.0900   12.0060 O.2    81  GLU81      -0.2867
     96  CB         2.7060   19.0640   13.6530 C.3    81  GLU81       0.0388
     97  CG         2.0030   18.1830   12.6100 C.3    81  GLU81       0.1160
     98  CD         2.3260   16.6770   12.7320 C.2    81  GLU81       0.3649
     99  OE1        2.8150   16.2160   13.8000 O.co2  81  GLU81      -0.2457
    100  OE2        2.0780   15.9460   11.7460 O.co2  81  GLU81      -0.2457
    101  N         -4.0760   14.0530   18.3220 N.3   102  TYR102     -0.1241
    102  CA        -4.5140   14.5190   17.0170 C.3   102  TYR102      0.1605
    103  C         -5.8440   13.8880   16.7040 C.2   102  TYR102      0.2264
    104  O         -5.9170   12.7240   16.3090 O.2   102  TYR102     -0.2867
    105  CB        -3.5030   14.0990   15.9610 C.3   102  TYR102      0.0534
    106  CG        -3.8580   14.6450   14.6020 C.ar  102  TYR102     -0.0201
    107  CD1       -3.6920   15.9930   14.3350 C.ar  102  TYR102     -0.0009
    108  CD2       -4.4030   13.8330   13.6100 C.ar  102  TYR102     -0.0009
    109  CE1       -4.0240   16.5270   13.1120 C.ar  102  TYR102      0.0417
    110  CE2       -4.7490   14.3660   12.3670 C.ar  102  TYR102      0.0417
    111  CZ        -4.5460   15.7200   12.1350 C.ar  102  TYR102      0.1957
    112  OH        -4.8590   16.2900   10.9170 O.3   102  TYR102     -0.2866
    113  N         -9.5070   11.8130   11.3390 N.3   105  SER105     -0.1202
    114  CA        -9.3750   10.5330   10.6270 C.3   105  SER105      0.2020
    115  C         -8.6330   10.7030    9.3040 C.2   105  SER105      0.2619
    116  O         -8.5410    9.7670    8.5130 O.2   105  SER105     -0.2717
    117  CB       -10.7600    9.9480   10.3260 C.3   105  SER105      0.2103
    118  OG       -11.5720    9.8930   11.4840 O.3   105  SER105     -0.2182
    119  N         -8.1660   11.9120    9.0270 N.am  106  ASP106     -0.1959
    120  CA        -7.6920   12.2080    7.6780 C.3   106  ASP106      0.1840
    121  C         -6.2980   11.6500    7.3870 C.2   106  ASP106      0.2622
    122  O         -6.0480   11.1610    6.2760 O.2   106  ASP106     -0.2715
    123  CB        -7.7920   13.7000    7.3520 C.3   106  ASP106      0.1450
    124  CG        -6.8720   14.5370    8.1930 C.2   106  ASP106      0.3671
    125  OD1       -6.5000   14.0670    9.2980 O.co2 106  ASP106     -0.2456
    126  OD2       -6.5370   15.6680    7.7560 O.co2 106  ASP106     -0.2456
    127  N         -5.3880   11.6940    8.3610 N.am  107  TRP107     -0.1960
    128  CA        -4.1240   10.9800    8.1740 C.3   107  TRP107      0.1771
    129  C         -4.3000    9.4990    8.4520 C.2   107  TRP107      0.2619
    130  O         -4.8360    9.1020    9.4920 O.2   107  TRP107     -0.2715
    131  CB        -2.9770   11.5420    9.0150 C.3   107  TRP107      0.0590
    132  CG        -2.6290   12.9550    8.6700 C.ar  107  TRP107      0.0006
    133  CD1       -2.9980   14.0740    9.3520 C.ar  107  TRP107      0.0946
    134  CD2       -1.8580   13.4070    7.5430 C.ar  107  TRP107      0.0152
    135  NE1       -2.5000   15.1940    8.7300 N.ar  107  TRP107     -0.2442
    136  CE2       -1.8020   14.8130    7.6140 C.ar  107  TRP107      0.0810
    137  CE3       -1.2040   12.7590    6.4910 C.ar  107  TRP107      0.0012
    138  CZ2       -1.1170   15.5800    6.6750 C.ar  107  TRP107      0.0191
    139  CZ3       -0.5320   13.5230    5.5560 C.ar  107  TRP107      0.0001
    140  CH2       -0.4940   14.9170    5.6510 C.ar  107  TRP107      0.0015
    141  N         -3.8390    8.6780    7.5170 N.am  108  ASP108     -0.1971
    142  CA        -3.8370    7.2390    7.7240 C.3   108  ASP108      0.1709
    143  C         -2.9540    6.8270    8.9290 C.2   108  ASP108      0.2293
    144  O         -1.8840    7.3790    9.1690 O.2   108  ASP108     -0.2864
    145  CB        -3.4090    6.4930    6.4710 C.3   108  ASP108      0.1436
    146  CG        -3.4810    4.9640    6.6540 C.2   108  ASP108      0.3671
    147  OD1       -4.5510    4.4510    7.0590 O.co2 108  ASP108     -0.2456
    148  OD2       -2.4620    4.2910    6.4270 O.co2 108  ASP108     -0.2456
    149  N         -1.7220    3.6510    9.7670 N.3   110  LYS110     -0.1231
    150  CA        -0.8930    2.4410    9.6260 C.3   110  LYS110      0.1693
    151  C          0.5760    2.7490    9.3490 C.2   110  LYS110      0.2592
    152  O          0.9070    3.5140    8.4370 O.2   110  LYS110     -0.2718
    153  CB        -1.3920    1.5620    8.4870 C.3   110  LYS110      0.0285
    154  CG        -0.6710    0.2060    8.4290 C.3   110  LYS110      0.0035
    155  CD        -0.5920   -0.3230    7.0180 C.3   110  LYS110      0.0206
    156  CE        -0.1740   -1.8200    6.9950 C.3   110  LYS110      0.1093
    157  NZ         1.2880   -2.0010    7.2170 N.3   110  LYS110     -0.1314
    158  N          1.4540    2.1610   10.1470 N.am  111  ILE111     -0.1966
    159  CA         2.8800    2.3020    9.9540 C.3   111  ILE111      0.1727
    160  C          3.5440    0.9510    9.8770 C.2   111  ILE111      0.2616
    161  O          3.0250   -0.0600   10.3810 O.2   111  ILE111     -0.2715
    162  CB         3.5230    3.0760   11.1100 C.3   111  ILE111      0.0290
    163  CG1        3.5520    2.2110   12.3810 C.3   111  ILE111      0.0022
    164  CG2        2.8330    4.4140   11.3100 C.3   111  ILE111      0.0023
    165  CD1        4.2430    2.8870   13.5280 C.3   111  ILE111      0.0001
    166  N          4.7140    0.9360    9.2460 N.am  112  ASN112     -0.1972
    167  CA         5.5850   -0.2150    9.3240 C.3   112  ASN112      0.1688
    168  C          6.4490   -0.0970   10.5800 C.2   112  ASN112      0.2292
    169  O          6.9970    0.9690   10.8540 O.2   112  ASN112     -0.2864
    170  CB         6.4030   -0.3010    8.0420 C.3   112  ASN112      0.1181
    171  CG         5.5210   -0.3460    6.7860 C.2   112  ASN112      0.2629
    172  OD1        4.2780   -0.4230    6.8740 O.2   112  ASN112     -0.2716
    173  ND2        6.1640   -0.3100    5.6040 N.am  112  ASN112     -0.0877
    174  N          9.2470   -0.9200   11.3580 N.3   114  GLU114     -0.1231
    175  CA        10.6350   -0.5770   11.1120 C.3   114  GLU114      0.1699
    176  C         10.8590    0.9360   11.0830 C.2   114  GLU114      0.2593
    177  O         11.9960    1.3920   11.1240 O.2   114  GLU114     -0.2718
    178  CB        11.0980   -1.2090    9.7980 C.3   114  GLU114      0.0402
    179  CG        11.7920   -2.5270    9.9850 C.3   114  GLU114      0.1161
    180  CD        11.9100   -3.3170    8.6880 C.2   114  GLU114      0.3649
    181  OE1       11.4830   -2.8110    7.6210 O.co2 114  GLU114     -0.2457
    182  OE2       12.4240   -4.4590    8.7420 O.co2 114  GLU114     -0.2457
    183  N          9.7740    1.7110   11.0310 N.am  115  THR115     -0.1939
    184  CA         9.8820    3.1560   11.1790 C.3   115  THR115      0.2028
    185  C          9.9170    3.6120   12.6380 C.2   115  THR115      0.2642
    186  O         10.0420    4.8040   12.9140 O.2   115  THR115     -0.2714
    187  CB         8.7480    3.8900   10.4350 C.3   115  THR115      0.1808
    188  OG1        7.5100    3.7100   11.1330 O.3   115  THR115     -0.2208
    189  CG2        8.6270    3.3650    8.9920 C.3   115  THR115      0.0379
    190  N          9.8110    2.6670   13.5690 N.am  116  ILE116     -0.1963
    191  CA         9.8530    3.0070   14.9880 C.3   116  ILE116      0.1727
    192  C         11.2800    3.2470   15.4590 C.2   116  ILE116      0.2616
    193  O         12.1710    2.4470   15.2240 O.2   116  ILE116     -0.2715
    194  CB         9.2020    1.9080   15.8540 C.3   116  ILE116      0.0290
    195  CG1        7.6950    1.8670   15.5670 C.3   116  ILE116      0.0022
    196  CG2        9.4480    2.1880   17.3360 C.3   116  ILE116      0.0023
    197  CD1        6.9900    0.6080   15.9860 C.3   116  ILE116      0.0001
    198  N         11.5050    4.3720   16.1030 N.am  117  ILE117     -0.1977
    199  CA        12.8040    4.6330   16.6840 C.3   117  ILE117      0.1596
    200  C         12.8960    3.8880   18.0160 C.2   117  ILE117      0.2287
    201  O         13.8920    3.2370   18.3170 O.2   117  ILE117     -0.2864
    202  CB        12.9820    6.1470   16.8710 C.3   117  ILE117      0.0276
    203  CG1       12.9200    6.8230   15.4920 C.3   117  ILE117      0.0022
    204  CG2       14.2860    6.4620   17.6060 C.3   117  ILE117      0.0022
    205  CD1       13.0680    8.3010   15.5200 C.3   117  ILE117      0.0001
@<TRIPOS>BOND
     1    58    59    1
     2    58    57    1
     3    30    28   ar
     4    38    36   ar
     5    56    57    1
     6    56    55    1
     7    29    28   ar
     8    28    27    1
     9   139   140   ar
    10   139   137   ar
    11   173   171   am
    12   140   138   ar
    13    27    26    1
    14    36    37   ar
    15    36    35    1
    16    55    52    1
    17   122   121    2
    18    51    52    1
    19   148   146   ar
    20   145   146    1
    21   145   142    1
    22   137   134   ar
    23   146   147   ar
    24   138   136   ar
    25   171   172    2
    26   171   170    1
    27    35    32    1
    28    52    53    1
    29   156   155    1
    30   156   157    1
    31   155   154    1
    32   123   120    1
    33   123   124    1
    34   121   120    1
    35   121   127   am
    36   141   142    1
    37   141   129   am
    38   134   136   ar
    39   134   132   ar
    40   136   135   ar
    41   181   180   ar
    42    26    23    1
    43    31    32    1
    44    31    24   am
    45   120   119    1
    46   142   143    1
    47   126   124   ar
    48    23    24    1
    49    23    22    1
    50   170   167    1
    51    32    33    1
    52   128   127    1
    53   128   129    1
    54   128   131    1
    55   124   125   ar
    56    53    54    2
    57   154   153    1
    58   152   151    2
    59   129   130    2
    60   153   150    1
    61    24    25    2
    62   116   115    2
    63   132   131    1
    64   132   133   ar
    65   180   182   ar
    66   180   179    1
    67   135   133   ar
    68    22    20   am
    69   143   144    2
    70    21    20    2
    71   189   187    1
    72    33    34    2
    73    50    49    1
    74   119   115   am
    75   166   167    1
    76   166   160   am
    77    20    19    1
    78   115   114    1
    79   167   168    1
    80   151   150    1
    81   151   158   am
    82   150   149    1
    83   178   179    1
    84   178   175    1
    85   160   159    1
    86   160   161    2
    87   159   158    1
    88   159   162    1
    89    49    48   ar
    90    49    47   ar
    91    19    18    1
    92    48    46   ar
    93   117   114    1
    94   117   118    1
    95    12    11    2
    96   187   188    1
    97   187   184    1
    98   168   169    2
    99   114   113    1
   100    14    13    1
   101    14    15    1
   102   112   111    1
   103   183   176   am
   104   183   184    1
   105   176   175    1
   106   176   177    2
   107   162   164    1
   108   162   163    1
   109   175   174    1
   110    11    18   am
   111    11    10    1
   112   184   185    1
   113    47    45   ar
   114    17    15   am
   115    71    73   ar
   116    71    69   ar
   117    46    44   ar
   118    13    10    1
   119    68    69   ar
   120    68    66   ar
   121    15    16    2
   122   100    98   ar
   123    95    94    2
   124    73    72   ar
   125    69    67   ar
   126   111   110   ar
   127   111   109   ar
   128    10     9    1
   129   110   108   ar
   130   163   165    1
   131     7     5    1
   132    97    98    1
   133    97    96    1
   134    45    44   ar
   135   185   186    2
   136   185   190   am
   137    66    65   ar
   138    44    43    1
   139    98    99   ar
   140     9     3   am
   141    94    93    1
   142   109   107   ar
   143    93    96    1
   144    93    92    1
   145    72    70   ar
   146    67    65   ar
   147    67    70   ar
   148   190   191    1
   149   108   106   ar
   150    65    64    1
   151     4     3    2
   152     3     2    1
   153    43    40    1
   154     5     2    1
   155     5     6    1
   156   107   106   ar
   157   106   105    1
   158     2     1    1
   159    64    61    1
   160    39    40    1
   161     6     8    1
   162    90    89    1
   163   191   192    1
   164   191   194    1
   165    40    41    1
   166   193   192    2
   167   192   198   am
   168   203   205    1
   169   203   202    1
   170   195   194    1
   171   195   197    1
   172   194   196    1
   173   105   102    1
   174    89    86    1
   175    89    91    1
   176   198   199    1
   177    61    60    1
   178    61    62    1
   179    77    76    2
   180   104   103    2
   181    41    42    2
   182   199   202    1
   183   199   200    1
   184   103   102    1
   185    86    85    1
   186    86    87    1
   187   202   204    1
   188   102   101    1
   189    62    74   am
   190    62    63    2
   191    76    85   am
   192    76    75    1
   193    74    75    1
   194    87    88    2
   195   200   201    2
   196    75    78    1
   197    78    79    1
   198    80    79   ar
   199    80    82   ar
   200    79    81   ar
   201    82    84   ar
   202    81    83   ar
   203    84    83   ar
