@<TRIPOS>MOLECULE
tmp/4dp3A00.pdb
 183 177 0 0 0
SMALL
GASTEIGER

@<TRIPOS>ATOM
      1  N         34.6010   -0.6550   56.2680 N.3    14  ILE14      -0.1231
      2  CA        33.8900    0.2820   55.4230 C.3    14  ILE14       0.1692
      3  C         33.9460    1.5970   56.1850 C.2    14  ILE14       0.2592
      4  O         33.6470    1.6520   57.3790 O.2    14  ILE14      -0.2718
      5  CB        32.4240   -0.1690   55.1540 C.3    14  ILE14       0.0266
      6  CG1       31.7390    0.8450   54.2420 C.3    14  ILE14       0.0019
      7  CG2       31.6510   -0.3260   56.4580 C.3    14  ILE14       0.0020
      8  CD1       30.4810    0.3140   53.5530 C.3    14  ILE14       0.0001
      9  N         34.3820    2.6460   55.5000 N.am   15  CYS15      -0.1956
     10  CA        34.5070    3.9560   56.1170 C.3    15  CYS15       0.1843
     11  C         34.1900    5.0460   55.1030 C.2    15  CYS15       0.2625
     12  O         33.9350    4.7670   53.9310 O.2    15  CYS15      -0.2714
     13  CB        35.9350    4.1520   56.6430 C.3    15  CYS15       0.0997
     14  SG        37.2470    4.0670   55.3520 S.3    15  CYS15      -0.0797
     15  N         34.2120    6.2860   55.5780 N.am   16  ALA16      -0.1977
     16  CA        33.9700    7.4640   54.7540 C.3    16  ALA16       0.1597
     17  C         34.9830    8.5030   55.2370 C.2    16  ALA16       0.2287
     18  O         34.9850    8.8580   56.4140 O.2    16  ALA16      -0.2864
     19  CB        32.5420    7.9770   54.9600 C.3    16  ALA16       0.0319
     20  N         30.2980   12.7230   63.4340 N.3    46  LEU46      -0.1245
     21  CA        30.8130   12.8370   62.0740 C.3    46  LEU46       0.1561
     22  C         31.2470   14.2730   61.7660 C.2    46  LEU46       0.2260
     23  O         30.6430   15.2340   62.2470 O.2    46  LEU46      -0.2867
     24  CB        29.7520   12.3650   61.0780 C.3    46  LEU46       0.0270
     25  CG        29.4180   10.8730   61.1750 C.3    46  LEU46       0.0019
     26  CD1       28.1960   10.5510   60.3110 C.3    46  LEU46       0.0001
     27  CD2       30.6460   10.0460   60.7490 C.3    46  LEU46       0.0001
     28  N         30.8740   15.9300   59.1650 N.3    48  TRP48      -0.1241
     29  CA        29.8600   16.5920   58.3630 C.3    48  TRP48       0.1605
     30  C         28.4380   16.3430   58.8690 C.2    48  TRP48       0.2264
     31  O         28.1800   15.3770   59.6030 O.2    48  TRP48      -0.2867
     32  CB        30.0050   16.1170   56.9100 C.3    48  TRP48       0.0550
     33  CG        30.0280   14.6030   56.7830 C.ar   48  TRP48       0.0003
     34  CD1       28.9490   13.7590   56.7830 C.ar   48  TRP48       0.0946
     35  CD2       31.1890   13.7640   56.7170 C.ar   48  TRP48       0.0152
     36  NE1       29.3670   12.4500   56.7230 N.ar   48  TRP48      -0.2442
     37  CE2       30.7350   12.4230   56.6810 C.ar   48  TRP48       0.0810
     38  CE3       32.5690   14.0140   56.6810 C.ar   48  TRP48       0.0012
     39  CZ2       31.6140   11.3340   56.6190 C.ar   48  TRP48       0.0191
     40  CZ3       33.4470   12.9260   56.6190 C.ar   48  TRP48       0.0001
     41  CH2       32.9610   11.6040   56.5880 C.ar   48  TRP48       0.0015
     42  N         26.1960    8.7050   50.6710 N.3    54  ASP54      -0.1225
     43  CA        27.1060    7.7740   51.3370 C.3    54  ASP54       0.1805
     44  C         26.3120    6.8780   52.2890 C.2    54  ASP54       0.2597
     45  O         26.5760    5.6840   52.4030 O.2    54  ASP54      -0.2718
     46  CB        28.1830    8.5200   52.1280 C.3    54  ASP54       0.1424
     47  CG        29.0120    7.5820   53.0040 C.2    54  ASP54       0.3668
     48  OD1       29.7290    6.7160   52.4540 O.co2  54  ASP54      -0.2456
     49  OD2       28.9370    7.7040   54.2470 O.co2  54  ASP54      -0.2456
     50  N         25.3450    7.4750   52.9730 N.am   55  MET55      -0.1979
     51  CA        24.4790    6.7660   53.9080 C.3    55  MET55       0.1605
     52  C         23.8200    5.6220   53.1280 C.2    55  MET55       0.2287
     53  O         23.8720    4.4540   53.5220 O.2    55  MET55      -0.2864
     54  CB        23.4290    7.7530   54.4380 C.3    55  MET55       0.0413
     55  CG        22.6830    7.3810   55.7220 C.3    55  MET55       0.0598
     56  SD        23.4610    6.1540   56.7680 S.3    55  MET55      -0.1393
     57  CE        24.7920    7.1300   57.5180 C.3    55  MET55       0.0692
     58  N         24.7160    4.2790   50.3080 N.3    57  TYR57      -0.1227
     59  CA        25.7350    3.3250   49.8870 C.3    57  TYR57       0.1736
     60  C         26.1440    2.4410   51.0620 C.2    57  TYR57       0.2595
     61  O         26.1670    1.2140   50.9540 O.2    57  TYR57      -0.2718
     62  CB        26.9630    4.0670   49.3520 C.3    57  TYR57       0.0548
     63  CG        28.1100    3.1570   48.9690 C.ar   57  TYR57      -0.0200
     64  CD1       28.0810    2.4280   47.7790 C.ar   57  TYR57      -0.0009
     65  CD2       29.2270    3.0250   49.7980 C.ar   57  TYR57      -0.0009
     66  CE1       29.1460    1.5910   47.4160 C.ar   57  TYR57       0.0417
     67  CE2       30.2960    2.1920   49.4480 C.ar   57  TYR57       0.0417
     68  CZ        30.2480    1.4810   48.2530 C.ar   57  TYR57       0.1957
     69  OH        31.3020    0.6740   47.8840 O.3    57  TYR57      -0.2866
     70  N         26.4580    3.0740   52.1860 N.am   58  PHE58      -0.1962
     71  CA        26.8700    2.3450   53.3750 C.3    58  PHE58       0.1771
     72  C         25.8150    1.3140   53.7820 C.2    58  PHE58       0.2619
     73  O         26.1440    0.1970   54.1850 O.2    58  PHE58      -0.2715
     74  CB        27.1210    3.3240   54.5270 C.3    58  PHE58       0.0574
     75  CG        27.1830    2.6670   55.8690 C.ar   58  PHE58      -0.0200
     76  CD1       28.3250    1.9780   56.2810 C.ar   58  PHE58      -0.0042
     77  CD2       26.0720    2.6970   56.7100 C.ar   58  PHE58      -0.0042
     78  CE1       28.3550    1.3250   57.5090 C.ar   58  PHE58      -0.0003
     79  CE2       26.0920    2.0500   57.9360 C.ar   58  PHE58      -0.0003
     80  CZ        27.2360    1.3610   58.3390 C.ar   58  PHE58      -0.0000
     81  N         24.5500    1.7000   53.6630 N.am   59  ARG59      -0.1977
     82  CA        23.4330    0.8330   54.0250 C.3    59  ARG59       0.1597
     83  C         23.2380   -0.3000   53.0440 C.2    59  ARG59       0.2287
     84  O         22.9370   -1.4250   53.4320 O.2    59  ARG59      -0.2864
     85  CB        22.1440    1.6450   54.1010 C.3    59  ARG59       0.0334
     86  CG        21.8090    2.0860   55.4840 C.3    59  ARG59       0.0492
     87  CD        20.8760    3.2720   55.4850 C.3    59  ARG59       0.2205
     88  NE        19.7970    3.0350   56.4330 N.pl3  59  ARG59      -0.0865
     89  CZ        18.7240    2.2960   56.1630 C.cat  59  ARG59       0.5346
     90  NH1       18.5880    1.7380   54.9670 N.pl3  59  ARG59       0.1354
     91  NH2       17.7970    2.0930   57.0940 N.pl3  59  ARG59       0.1354
     92  N         31.6200    4.9450   68.5240 N.3    98  ASN98      -0.1240
     93  CA        30.9050    4.9110   67.2630 C.3    98  ASN98       0.1653
     94  C         29.4450    4.5900   67.5460 C.2    98  ASN98       0.2266
     95  O         28.5530    5.2630   67.0370 O.2    98  ASN98      -0.2867
     96  CB        31.5210    3.8660   66.3260 C.3    98  ASN98       0.1155
     97  CG        30.7980    3.7780   64.9880 C.2    98  ASN98       0.2627
     98  OD1       30.1280    4.7280   64.5580 O.2    98  ASN98      -0.2716
     99  ND2       30.9450    2.6410   64.3130 N.am   98  ASN98      -0.0877
    100  N         27.6190    7.5920   68.8100 N.3   101  SER101     -0.1202
    101  CA        27.5030    8.7350   67.9080 C.3   101  SER101      0.2020
    102  C         26.2960    8.6160   66.9730 C.2   101  SER101      0.2619
    103  O         25.8910    9.5940   66.3470 O.2   101  SER101     -0.2717
    104  CB        28.7700    8.8790   67.0720 C.3   101  SER101      0.2103
    105  OG        28.8540    7.8400   66.1190 O.3   101  SER101     -0.2182
    106  N         25.7290    7.4190   66.8780 N.am  102  ILE102     -0.1966
    107  CA        24.5780    7.1840   66.0150 C.3   102  ILE102      0.1712
    108  C         23.2810    7.5600   66.7190 C.2   102  ILE102      0.2458
    109  O         23.0780    7.2210   67.8830 O.2   102  ILE102     -0.2730
    110  CB        24.4890    5.6980   65.6070 C.3   102  ILE102      0.0289
    111  CG1       25.8080    5.2590   64.9640 C.3   102  ILE102      0.0022
    112  CG2       23.3090    5.4800   64.6600 C.3   102  ILE102      0.0023
    113  CD1       25.8500    3.7760   64.5760 C.3   102  ILE102      0.0001
    114  N         22.3880    8.2750   66.0210 N.am  103  PRO103     -0.2727
    115  CA        21.0980    8.6980   66.5780 C.3   103  PRO103      0.1402
    116  C         20.2540    7.4960   66.9840 C.2   103  PRO103      0.2269
    117  O         20.1850    6.5090   66.2570 O.2   103  PRO103     -0.2865
    118  CB        20.4690    9.4840   65.4270 C.3   103  PRO103      0.0296
    119  CG        21.6650   10.1070   64.7650 C.3   103  PRO103      0.0237
    120  CD        22.6360    8.9310   64.7240 C.3   103  PRO103      0.0939
    121  N         18.1010    5.1510   64.7410 N.3   106  PHE106     -0.1241
    122  CA        18.7340    4.2750   63.7600 C.3   106  PHE106      0.1605
    123  C         19.2890    3.0040   64.3970 C.2   106  PHE106      0.2264
    124  O         19.8040    2.1300   63.6940 O.2   106  PHE106     -0.2867
    125  CB        19.8900    4.9910   63.0510 C.3   106  PHE106      0.0534
    126  CG        19.4660    6.1410   62.1910 C.ar  106  PHE106     -0.0203
    127  CD1       18.5110    5.9690   61.1950 C.ar  106  PHE106     -0.0042
    128  CD2       20.0450    7.3930   62.3570 C.ar  106  PHE106     -0.0042
    129  CE1       18.1380    7.0290   60.3740 C.ar  106  PHE106     -0.0003
    130  CE2       19.6810    8.4630   61.5410 C.ar  106  PHE106     -0.0003
    131  CZ        18.7250    8.2800   60.5470 C.ar  106  PHE106     -0.0000
    132  N         21.1490   -0.8920   64.0580 N.3   109  LEU109     -0.1231
    133  CA        21.1490   -0.7310   62.6050 C.3   109  LEU109      0.1693
    134  C         20.2720   -1.8010   61.9690 C.2   109  LEU109      0.2592
    135  O         20.4920   -2.9950   62.1540 O.2   109  LEU109     -0.2718
    136  CB        22.5790   -0.8000   62.0560 C.3   109  LEU109      0.0284
    137  CG        23.5510    0.2210   62.6720 C.3   109  LEU109      0.0019
    138  CD1       24.9250    0.0950   62.0180 C.3   109  LEU109      0.0001
    139  CD2       22.9940    1.6300   62.5060 C.3   109  LEU109      0.0001
    140  N         19.2730   -1.3560   61.2180 N.am  110  SER110     -0.1952
    141  CA        18.3160   -2.2440   60.5810 C.3   110  SER110      0.1924
    142  C         18.8590   -3.3920   59.7400 C.2   110  SER110      0.2314
    143  O         19.8530   -3.2560   59.0170 O.2   110  SER110     -0.2863
    144  CB        17.3580   -1.4180   59.7260 C.3   110  SER110      0.2116
    145  OG        18.0590   -0.6980   58.7180 O.3   110  SER110     -0.2180
    146  N         20.6160   -5.7960   60.2160 N.3   112  ARG112     -0.1245
    147  CA        21.9920   -6.2160   60.4340 C.3   112  ARG112      0.1563
    148  C         22.1570   -6.6760   61.8840 C.2   112  ARG112      0.2260
    149  O         21.4770   -6.1850   62.7900 O.2   112  ARG112     -0.2867
    150  CB        22.9520   -5.0560   60.1370 C.3   112  ARG112      0.0307
    151  CG        23.1450   -4.7520   58.6540 C.3   112  ARG112      0.0489
    152  CD        23.5630   -3.2990   58.4320 C.3   112  ARG112      0.2205
    153  NE        22.4380   -2.3850   58.6460 N.pl3 112  ARG112     -0.0865
    154  CZ        22.4840   -1.0650   58.4650 C.cat 112  ARG112      0.5346
    155  NH1       23.6080   -0.4770   58.0680 N.pl3 112  ARG112      0.1354
    156  NH2       21.3940   -0.3310   58.6630 N.pl3 112  ARG112      0.1354
    157  N         32.5830   -1.1730   61.1690 N.3   154  LEU154     -0.1245
    158  CA        32.1570    0.2210   60.9130 C.3   154  LEU154      0.1561
    159  C         33.0420    1.1680   61.6320 C.2   154  LEU154      0.2260
    160  O         32.9760    2.3730   61.4750 O.2   154  LEU154     -0.2867
    161  CB        30.7040    0.4090   61.3530 C.3   154  LEU154      0.0270
    162  CG        29.7810   -0.7830   61.0630 C.3   154  LEU154      0.0019
    163  CD1       28.3280   -0.4090   61.3880 C.3   154  LEU154      0.0001
    164  CD2       29.9040   -1.2040   59.5930 C.3   154  LEU154      0.0001
    165  N         39.2590    0.6610   63.6890 N.3   160  TYR160     -0.1241
    166  CA        39.9000    0.4460   62.3970 C.3   160  TYR160      0.1605
    167  C         41.3670    0.0780   62.6050 C.2   160  TYR160      0.2264
    168  O         41.8510   -0.9250   62.0790 O.2   160  TYR160     -0.2867
    169  CB        39.8160    1.6970   61.5180 C.3   160  TYR160      0.0534
    170  CG        38.4410    2.0000   60.9800 C.ar  160  TYR160     -0.0201
    171  CD1       37.6640    1.0090   60.3770 C.ar  160  TYR160     -0.0009
    172  CD2       37.9300    3.2940   61.0320 C.ar  160  TYR160     -0.0009
    173  CE1       36.4100    1.3080   59.8370 C.ar  160  TYR160      0.0417
    174  CE2       36.6870    3.6000   60.4980 C.ar  160  TYR160      0.0417
    175  CZ        35.9350    2.6100   59.9030 C.ar  160  TYR160      0.1957
    176  OH        34.7090    2.9450   59.3770 O.3   160  TYR160     -0.2866
    177  N         35.0420    5.4900   51.1390 N.3   175  THR175     -0.1218
    178  CA        34.3650    6.6010   50.4810 C.3   175  THR175      0.1862
    179  C         35.2720    7.8230   50.5410 C.2   175  THR175      0.2287
    180  O         35.8110    8.1580   51.6010 O.2   175  THR175     -0.2866
    181  CB        33.0430    6.9940   51.1800 C.3   175  THR175      0.1770
    182  OG1       32.1120    5.9040   51.1220 O.3   175  THR175     -0.2211
    183  CG2       32.4370    8.2140   50.4900 C.3   175  THR175      0.0375
@<TRIPOS>BOND
     1    66    64   ar
     2    66    68   ar
     3    64    63   ar
     4    69    68    1
     5    68    67   ar
     6    63    62    1
     7    63    65   ar
     8    62    59    1
     9    67    65   ar
    10    59    58    1
    11    59    60    1
    12   178   179    1
    13   178   177    1
    14   178   181    1
    15   183   181    1
    16   179   180    2
    17    42    43    1
    18    61    60    2
    19    60    70   am
    20   182   181    1
    21    43    46    1
    22    43    44    1
    23    46    47    1
    24    70    71    1
    25    44    45    2
    26    44    50   am
    27    48    47   ar
    28    50    51    1
    29    47    49   ar
    30    83    84    2
    31    83    82    1
    32    52    53    2
    33    52    51    1
    34    71    72    1
    35    71    74    1
    36     8     6    1
    37    81    72   am
    38    81    82    1
    39    72    73    2
    40    51    54    1
    41    12    11    2
    42    82    85    1
    43    85    86    1
    44     6     5    1
    45    54    55    1
    46    74    75    1
    47    16    19    1
    48    16    17    1
    49    16    15    1
    50    90    89    1
    51    11    15   am
    52    11    10    1
    53     5     2    1
    54     5     7    1
    55    17    18    2
    56    14    13    1
    57     2     3    1
    58     2     1    1
    59    86    87    1
    60    87    88    1
    61     9    10    1
    62     9     3   am
    63    55    56    1
    64    75    76   ar
    65    75    77   ar
    66    10    13    1
    67    89    88    2
    68    89    91    1
    69     3     4    2
    70    76    78   ar
    71    41    39   ar
    72    41    40   ar
    73    39    37   ar
    74    40    38   ar
    75    38    35   ar
    76    37    35   ar
    77    37    36   ar
    78    77    79   ar
    79    35    33   ar
    80    36    34   ar
    81    56    57    1
    82    33    34   ar
    83    33    32    1
    84    32    29    1
    85    78    80   ar
    86    79    80   ar
    87   155   154    1
    88    29    30    1
    89    29    28    1
    90   152   153    1
    91   152   151    1
    92   154   153    2
    93   154   156    1
    94   151   150    1
    95   145   144    1
    96    30    31    2
    97   143   142    2
    98   176   175    1
    99   164   162    1
   100   144   141    1
   101   142   141    1
   102   173   175   ar
   103   173   171   ar
   104   175   174   ar
   105   150   147    1
   106   146   147    1
   107    26    25    1
   108   129   131   ar
   109   129   127   ar
   110   171   170   ar
   111   147   148    1
   112   174   172   ar
   113   131   130   ar
   114   141   140    1
   115    27    25    1
   116   158   157    1
   117   158   161    1
   118   158   159    1
   119   170   172   ar
   120   170   169    1
   121   162   161    1
   122   162   163    1
   123    24    25    1
   124    24    21    1
   125   127   126   ar
   126   140   134   am
   127   160   159    2
   128   169   166    1
   129   130   128   ar
   130    22    21    1
   131    22    23    2
   132   148   149    2
   133   134   135    2
   134   134   133    1
   135   138   137    1
   136   136   133    1
   137   136   137    1
   138    21    20    1
   139   168   167    2
   140   126   128   ar
   141   126   125    1
   142   166   167    1
   143   166   165    1
   144   139   137    1
   145   133   132    1
   146   125   122    1
   147   124   123    2
   148   122   123    1
   149   122   121    1
   150    99    97   am
   151    98    97    2
   152   113   111    1
   153   112   110    1
   154   120   119    1
   155   120   114    1
   156   119   118    1
   157   111   110    1
   158    97    96    1
   159   118   115    1
   160   110   107    1
   161   107   108    1
   162   107   106    1
   163   114   115    1
   164   114   108   am
   165   105   104    1
   166   117   116    2
   167    96    93    1
   168   103   102    2
   169   115   116    1
   170   108   109    2
   171   106   102   am
   172   102   101    1
   173    95    94    2
   174   104   101    1
   175    93    94    1
   176    93    92    1
   177   101   100    1
