@<TRIPOS>MOLECULE
tmp/4dpdA00.pdb
 199 192 0 0 0
SMALL
GASTEIGER

@<TRIPOS>ATOM
      1  N         33.9460   -0.7780   56.4370 N.3    14  ILE14      -0.1231
      2  CA        33.3430    0.2700   55.6510 C.3    14  ILE14       0.1692
      3  C         33.5140    1.5610   56.4390 C.2    14  ILE14       0.2592
      4  O         33.3380    1.5730   57.6570 O.2    14  ILE14      -0.2718
      5  CB        31.8700   -0.0350   55.3210 C.3    14  ILE14       0.0266
      6  CG1       31.3270    0.9650   54.3110 C.3    14  ILE14       0.0019
      7  CG2       30.9930   -0.0530   56.5660 C.3    14  ILE14       0.0020
      8  CD1       29.9800    0.5590   53.7490 C.3    14  ILE14       0.0001
      9  N         33.9040    2.6230   55.7420 N.am   15  CYS15      -0.1956
     10  CA        34.1330    3.9250   56.3370 C.3    15  CYS15       0.1843
     11  C         33.8830    5.0420   55.3120 C.2    15  CYS15       0.2625
     12  O         33.6960    4.7790   54.1160 O.2    15  CYS15      -0.2714
     13  CB        35.5630    4.0240   56.8340 C.3    15  CYS15       0.0997
     14  SG        36.8080    4.0650   55.5180 S.3    15  CYS15      -0.0797
     15  N         33.8820    6.2790   55.8080 N.am   16  ALA16      -0.1977
     16  CA        33.7610    7.4650   54.9850 C.3    16  ALA16       0.1597
     17  C         34.7690    8.5120   55.4750 C.2    16  ALA16       0.2287
     18  O         34.8260    8.8060   56.6650 O.2    16  ALA16      -0.2864
     19  CB        32.3380    8.0140   55.0580 C.3    16  ALA16       0.0319
     20  N         29.9720   12.9560   62.8620 N.3    38  LEU38      -0.1245
     21  CA        30.6150   13.0250   61.5500 C.3    38  LEU38       0.1561
     22  C         31.0240   14.4550   61.2630 C.2    38  LEU38       0.2260
     23  O         30.2880   15.3820   61.6070 O.2    38  LEU38      -0.2867
     24  CB        29.6710   12.5250   60.4690 C.3    38  LEU38       0.0270
     25  CG        29.2050   11.0930   60.7080 C.3    38  LEU38       0.0019
     26  CD1       28.1610   10.7060   59.6580 C.3    38  LEU38       0.0001
     27  CD2       30.4080   10.1460   60.7090 C.3    38  LEU38       0.0001
     28  N         31.0250   16.1760   58.6590 N.3    40  TRP40      -0.1241
     29  CA        30.1060   16.8430   57.7380 C.3    40  TRP40       0.1605
     30  C         28.6890   16.7240   58.1710 C.2    40  TRP40       0.2264
     31  O         27.7870   17.1500   57.4470 O.2    40  TRP40      -0.2867
     32  CB        30.2470   16.2790   56.3340 C.3    40  TRP40       0.0550
     33  CG        30.1630   14.7770   56.2810 C.ar   40  TRP40       0.0003
     34  CD1       29.0350   14.0000   56.1260 C.ar   40  TRP40       0.0946
     35  CD2       31.2610   13.8330   56.4040 C.ar   40  TRP40       0.0152
     36  NE1       29.3490   12.6790   56.1310 N.ar   40  TRP40      -0.2442
     37  CE2       30.6670   12.5080   56.3040 C.ar   40  TRP40       0.0810
     38  CE3       32.6140   13.9490   56.5840 C.ar   40  TRP40       0.0012
     39  CZ2       31.4190   11.3610   56.3900 C.ar   40  TRP40       0.0191
     40  CZ3       33.3700   12.7890   56.6560 C.ar   40  TRP40       0.0001
     41  CH2       32.7820   11.5220   56.5610 C.ar   40  TRP40       0.0015
     42  N         23.3580   12.2340   52.4240 N.3    44  SER44      -0.1217
     43  CA        22.2930   11.2840   52.1180 C.3    44  SER44       0.1889
     44  C         22.8060   10.1050   51.3000 C.2    44  SER44       0.2288
     45  O         22.4370    8.9580   51.5540 O.2    44  SER44      -0.2866
     46  CB        21.1490   11.9450   51.3460 C.3    44  SER44       0.2089
     47  OG        20.6270   13.0550   52.0460 O.3    44  SER44      -0.2183
     48  N         25.8850    8.9630   50.8060 N.3    46  ASP46      -0.1225
     49  CA        26.7880    8.1230   51.5770 C.3    46  ASP46       0.1805
     50  C         26.0450    7.1860   52.5560 C.2    46  ASP46       0.2598
     51  O         26.3810    6.0110   52.6640 O.2    46  ASP46      -0.2718
     52  CB        27.7800    8.9970   52.3260 C.3    46  ASP46       0.1424
     53  CG        28.8620    8.1860   53.0240 C.2    46  ASP46       0.3668
     54  OD1       29.3550    7.1850   52.4310 O.co2  46  ASP46      -0.2456
     55  OD2       29.2080    8.5750   54.1680 O.co2  46  ASP46      -0.2456
     56  N         25.0420    7.7230   53.2550 N.am   47  MET47      -0.1965
     57  CA        24.1790    6.9580   54.1730 C.3    47  MET47       0.1736
     58  C         23.5020    5.8420   53.4160 C.2    47  MET47       0.2616
     59  O         23.4120    4.7340   53.8910 O.2    47  MET47      -0.2715
     60  CB        23.0770    7.8310   54.7970 C.3    47  MET47       0.0427
     61  CG        23.5110    8.8380   55.8580 C.3    47  MET47       0.0599
     62  SD        22.3710   10.2570   56.0760 S.3    47  MET47      -0.1393
     63  CE        23.1430   11.0840   57.4700 C.3    47  MET47       0.0692
     64  N         23.0110    6.1550   52.2310 N.am   48  LYS48      -0.1963
     65  CA        22.3020    5.1760   51.4130 C.3    48  LYS48       0.1728
     66  C         23.2400    4.0510   50.9820 C.2    48  LYS48       0.2616
     67  O         22.8810    2.8800   51.0510 O.2    48  LYS48      -0.2715
     68  CB        21.7160    5.8660   50.1930 C.3    48  LYS48       0.0311
     69  CG        20.8060    4.9990   49.3650 C.3    48  LYS48       0.0038
     70  CD        20.3620    5.7130   48.1020 C.3    48  LYS48       0.0206
     71  CE        19.5910    4.7570   47.2240 C.3    48  LYS48       0.1093
     72  NZ        19.0500    5.4380   46.0270 N.3    48  LYS48      -0.1314
     73  N         24.4410    4.4210   50.5390 N.am   49  TYR49      -0.1960
     74  CA        25.4700    3.4620   50.2180 C.3    49  TYR49       0.1771
     75  C         25.7830    2.6050   51.4380 C.2    49  TYR49       0.2620
     76  O         25.8950    1.3850   51.3370 O.2    49  TYR49      -0.2715
     77  CB        26.7360    4.1840   49.7420 C.3    49  TYR49       0.0574
     78  CG        27.8700    3.2740   49.3080 C.ar   49  TYR49      -0.0198
     79  CD1       27.7810    2.5510   48.1250 C.ar   49  TYR49      -0.0009
     80  CD2       29.0180    3.1370   50.0770 C.ar   49  TYR49      -0.0009
     81  CE1       28.8050    1.7250   47.7120 C.ar   49  TYR49       0.0417
     82  CE2       30.0530    2.3060   49.6810 C.ar   49  TYR49       0.0417
     83  CZ        29.9380    1.6090   48.4800 C.ar   49  TYR49       0.1957
     84  OH        30.9290    0.7890   48.0300 O.3    49  TYR49      -0.2866
     85  N         25.9260    3.2440   52.5940 N.am   50  PHE50      -0.1960
     86  CA        26.2490    2.5120   53.7930 C.3    50  PHE50       0.1771
     87  C         25.1960    1.4350   54.1180 C.2    50  PHE50       0.2619
     88  O         25.5480    0.2860   54.4430 O.2    50  PHE50      -0.2715
     89  CB        26.3940    3.4710   54.9630 C.3    50  PHE50       0.0574
     90  CG        26.6280    2.7800   56.2660 C.ar   50  PHE50      -0.0200
     91  CD1       27.9040    2.3760   56.6250 C.ar   50  PHE50      -0.0042
     92  CD2       25.5600    2.5070   57.1290 C.ar   50  PHE50      -0.0042
     93  CE1       28.1280    1.7280   57.8310 C.ar   50  PHE50      -0.0003
     94  CE2       25.7740    1.8640   58.3280 C.ar   50  PHE50      -0.0003
     95  CZ        27.0610    1.4710   58.6800 C.ar   50  PHE50      -0.0000
     96  N         23.9200    1.8270   54.0400 N.am   51  CYS51      -0.1968
     97  CA        22.7890    0.9510   54.3160 C.3    51  CYS51       0.1712
     98  C         22.7270   -0.1780   53.2930 C.2    51  CYS51       0.2296
     99  O         22.5790   -1.3370   53.6510 O.2    51  CYS51      -0.2864
    100  CB        21.4710    1.7490   54.2840 C.3    51  CYS51       0.0983
    101  SG        20.0470    0.9160   55.0600 S.3    51  CYS51      -0.0798
    102  N         30.8440   -2.3170   66.0210 N.3    83  MET83      -0.1245
    103  CA        31.2300   -0.9410   66.2490 C.3    83  MET83       0.1570
    104  C         31.7990   -0.7130   67.6470 C.2    83  MET83       0.2261
    105  O         31.4610   -1.4200   68.5940 O.2    83  MET83      -0.2867
    106  CB        30.0210   -0.0340   66.0310 C.3    83  MET83       0.0387
    107  CG        28.9850   -0.0510   67.1340 C.3    83  MET83       0.0595
    108  SD        27.3890    0.5210   66.5290 S.3    83  MET83      -0.1393
    109  CE        26.8180   -1.0000   65.7840 C.3    83  MET83       0.0692
    110  N         30.9720    4.9660   68.9290 N.3    87  SER87      -0.1217
    111  CA        30.2440    5.0560   67.6810 C.3    87  SER87       0.1889
    112  C         28.8110    4.6090   67.8910 C.2    87  SER87       0.2288
    113  O         27.8880    5.1910   67.3170 O.2    87  SER87      -0.2866
    114  CB        30.9330    4.2630   66.5850 C.3    87  SER87       0.2089
    115  OG        32.2480    4.7550   66.4020 O.3    87  SER87      -0.2183
    116  N         26.8190    7.5410   69.1800 N.3    90  SER90      -0.1202
    117  CA        26.5260    8.6210   68.2410 C.3    90  SER90       0.2020
    118  C         25.3180    8.3500   67.3340 C.2    90  SER90       0.2619
    119  O         24.8520    9.2440   66.6390 O.2    90  SER90      -0.2717
    120  CB        27.7540    8.9220   67.3910 C.3    90  SER90       0.2103
    121  OG        28.0780    7.8280   66.5510 O.3    90  SER90      -0.2182
    122  N         24.8090    7.1270   67.3220 N.am   91  ILE91      -0.1966
    123  CA        23.6620    6.8250   66.4760 C.3    91  ILE91       0.1712
    124  C         22.4290    7.3810   67.1480 C.2    91  ILE91       0.2458
    125  O         22.2180    7.1340   68.3220 O.2    91  ILE91      -0.2730
    126  CB        23.4530    5.3210   66.2740 C.3    91  ILE91       0.0289
    127  CG1       24.6760    4.6880   65.6060 C.3    91  ILE91       0.0022
    128  CG2       22.1970    5.0690   65.4490 C.3    91  ILE91       0.0023
    129  CD1       24.5680    3.1780   65.4710 C.3    91  ILE91       0.0001
    130  N         21.6030    8.1300   66.4110 N.am   92  PRO92      -0.2727
    131  CA        20.3430    8.6050   66.9790 C.3    92  PRO92       0.1402
    132  C         19.4540    7.4710   67.4560 C.2    92  PRO92       0.2269
    133  O         19.4120    6.4080   66.8420 O.2    92  PRO92      -0.2865
    134  CB        19.6820    9.3360   65.8130 C.3    92  PRO92       0.0296
    135  CG        20.8110    9.7390   64.9200 C.3    92  PRO92       0.0237
    136  CD        21.8350    8.6550   65.0550 C.3    92  PRO92       0.0939
    137  N         17.3220    4.9930   65.3600 N.3    95  PHE95      -0.1241
    138  CA        18.0290    4.1650   64.3940 C.3    95  PHE95       0.1605
    139  C         18.8060    3.0340   65.0640 C.2    95  PHE95       0.2264
    140  O         19.4560    2.2640   64.3760 O.2    95  PHE95      -0.2867
    141  CB        18.9660    5.0380   63.5460 C.3    95  PHE95       0.0534
    142  CG        18.2390    6.0340   62.6790 C.ar   95  PHE95      -0.0203
    143  CD1       17.5270    5.6130   61.5600 C.ar   95  PHE95      -0.0042
    144  CD2       18.2510    7.3860   62.9840 C.ar   95  PHE95      -0.0042
    145  CE1       16.8470    6.5230   60.7630 C.ar   95  PHE95      -0.0003
    146  CE2       17.5760    8.3050   62.1910 C.ar   95  PHE95      -0.0003
    147  CZ        16.8710    7.8730   61.0790 C.ar   95  PHE95      -0.0000
    148  N         20.9290   -0.8040   64.4870 N.3    98  LEU98      -0.1231
    149  CA        20.8550   -0.6470   63.0210 C.3    98  LEU98       0.1693
    150  C         19.9870   -1.7580   62.4380 C.2    98  LEU98       0.2592
    151  O         20.1960   -2.9340   62.7260 O.2    98  LEU98      -0.2718
    152  CB        22.2460   -0.6410   62.3780 C.3    98  LEU98       0.0284
    153  CG        23.1720    0.4970   62.8400 C.3    98  LEU98       0.0019
    154  CD1       24.5870    0.2890   62.3180 C.3    98  LEU98       0.0001
    155  CD2       22.6440    1.8690   62.4350 C.3    98  LEU98       0.0001
    156  N         18.9910   -1.3710   61.6510 N.am   99  SER99      -0.1952
    157  CA        17.9670   -2.2830   61.2100 C.3    99  SER99       0.1924
    158  C         18.4930   -3.3430   60.2520 C.2    99  SER99       0.2314
    159  O         19.4340   -3.1080   59.5140 O.2    99  SER99      -0.2863
    160  CB        16.8320   -1.4990   60.5540 C.3    99  SER99       0.2116
    161  OG        17.3300   -0.7500   59.4660 O.3    99  SER99      -0.2180
    162  N         20.3440   -5.7710   60.5590 N.3   101  ARG101     -0.1245
    163  CA        21.6970   -6.2230   60.8000 C.3   101  ARG101      0.1563
    164  C         21.8390   -6.6920   62.2570 C.2   101  ARG101      0.2260
    165  O         21.1780   -6.1670   63.1490 O.2   101  ARG101     -0.2867
    166  CB        22.6730   -5.0830   60.5310 C.3   101  ARG101      0.0307
    167  CG        22.9300   -4.8090   59.0590 C.3   101  ARG101      0.0489
    168  CD        23.2410   -3.3400   58.8280 C.3   101  ARG101      0.2205
    169  NE        22.0490   -2.5080   59.0580 N.pl3 101  ARG101     -0.0865
    170  CZ        21.9400   -1.2170   58.7510 C.cat 101  ARG101      0.5346
    171  NH1       22.9480   -0.5580   58.1830 N.pl3 101  ARG101      0.1354
    172  NH2       20.8000   -0.5820   59.0150 N.pl3 101  ARG101      0.1354
    173  N         32.2930   -1.2990   61.2800 N.3   143  ILE143     -0.1245
    174  CA        31.7950    0.0240   60.8990 C.3   143  ILE143      0.1561
    175  C         32.3550    1.0980   61.7850 C.2   143  ILE143      0.2260
    176  O         31.8480    2.2040   61.8450 O.2   143  ILE143     -0.2867
    177  CB        30.2640    0.0870   60.9080 C.3   143  ILE143      0.0252
    178  CG1       29.7090    0.0270   62.3390 C.3   143  ILE143      0.0019
    179  CG2       29.6980   -1.0240   60.0310 C.3   143  ILE143      0.0019
    180  CD1       28.2260    0.3050   62.3960 C.3   143  ILE143      0.0001
    181  N         38.7000    0.8050   63.8940 N.3   149  TYR149     -0.1241
    182  CA        39.3350    0.5910   62.6010 C.3   149  TYR149      0.1605
    183  C         40.8190    0.2500   62.7730 C.2   149  TYR149      0.2264
    184  O         41.3100   -0.6630   62.1270 O.2   149  TYR149     -0.2867
    185  CB        39.2240    1.8030   61.6820 C.3   149  TYR149      0.0534
    186  CG        37.8540    2.1130   61.1360 C.ar  149  TYR149     -0.0201
    187  CD1       37.0940    1.1510   60.4790 C.ar  149  TYR149     -0.0009
    188  CD2       37.3500    3.4060   61.2130 C.ar  149  TYR149     -0.0009
    189  CE1       35.8470    1.4640   59.9460 C.ar  149  TYR149      0.0417
    190  CE2       36.1150    3.7240   60.6850 C.ar  149  TYR149      0.0417
    191  CZ        35.3670    2.7560   60.0430 C.ar  149  TYR149      0.1957
    192  OH        34.1160    3.1210   59.5490 O.3   149  TYR149     -0.2866
    193  N         34.6760    5.5690   51.3680 N.3   164  THR164     -0.1218
    194  CA        34.0610    6.7130   50.7140 C.3   164  THR164      0.1862
    195  C         34.9790    7.9290   50.8000 C.2   164  THR164      0.2287
    196  O         35.4260    8.2970   51.8900 O.2   164  THR164     -0.2866
    197  CB        32.7070    7.0810   51.3480 C.3   164  THR164      0.1770
    198  OG1       31.8020    5.9740   51.2270 O.3   164  THR164     -0.2211
    199  CG2       32.1130    8.3020   50.6600 C.3   164  THR164      0.0375
@<TRIPOS>BOND
     1    72    71    1
     2    71    70    1
     3    81    79   ar
     4    81    83   ar
     5    84    83    1
     6    70    69    1
     7    79    78   ar
     8    83    82   ar
     9    78    77    1
    10    78    80   ar
    11    69    68    1
    12    82    80   ar
    13    77    74    1
    14    68    65    1
    15    74    73    1
    16    74    75    1
    17    73    66   am
    18   199   197    1
    19   194   195    1
    20   194   197    1
    21   194   193    1
    22   195   196    2
    23    48    49    1
    24    66    67    2
    25    66    65    1
    26   198   197    1
    27    44    45    2
    28    44    43    1
    29    76    75    2
    30    46    47    1
    31    46    43    1
    32    65    64    1
    33    75    85   am
    34    49    52    1
    35    49    50    1
    36    43    42    1
    37    64    58   am
    38    52    53    1
    39    54    53   ar
    40    50    51    2
    41    50    56   am
    42    85    86    1
    43    53    55   ar
    44    56    57    1
    45    98    99    2
    46    98    97    1
    47    58    59    2
    48    58    57    1
    49     8     6    1
    50    86    87    1
    51    86    89    1
    52    96    87   am
    53    96    97    1
    54    12    11    2
    55    87    88    2
    56    57    60    1
    57   100    97    1
    58   100   101    1
    59     6     5    1
    60    60    61    1
    61    89    90    1
    62    16    19    1
    63    16    17    1
    64    16    15    1
    65    11    15   am
    66    11    10    1
    67     5     2    1
    68     5     7    1
    69    17    18    2
    70    14    13    1
    71     2     1    1
    72     2     3    1
    73     9    10    1
    74     9     3   am
    75    61    62    1
    76    62    63    1
    77    34    36   ar
    78    34    33   ar
    79    36    37   ar
    80    90    91   ar
    81    90    92   ar
    82    33    32    1
    83    33    35   ar
    84    37    39   ar
    85    37    35   ar
    86    32    29    1
    87    10    13    1
    88    39    41   ar
    89    35    38   ar
    90     3     4    2
    91    41    40   ar
    92    38    40   ar
    93    91    93   ar
    94    92    94   ar
    95    31    30    2
    96    29    30    1
    97    29    28    1
    98    93    95   ar
    99   171   170    1
   100    94    95   ar
   101   170   172    1
   102   170   169    2
   103   168   169    1
   104   168   167    1
   105   167   166    1
   106   161   160    1
   107   159   158    2
   108   192   191    1
   109    26    25    1
   110   189   191   ar
   111   189   187   ar
   112   179   177    1
   113   191   190   ar
   114   158   157    1
   115    24    25    1
   116    24    21    1
   117   187   186   ar
   118   166   163    1
   119   160   157    1
   120   162   163    1
   121   190   188   ar
   122    25    27    1
   123   145   147   ar
   124   145   143   ar
   125   163   164    1
   126   174   177    1
   127   174   173    1
   128   174   175    1
   129   177   178    1
   130   147   146   ar
   131   186   188   ar
   132   186   185    1
   133   157   156    1
   134    22    21    1
   135    22    23    2
   136    21    20    1
   137   143   142   ar
   138   156   150   am
   139   185   182    1
   140   175   176    2
   141   184   183    2
   142   146   144   ar
   143   164   165    2
   144   154   153    1
   145   178   180    1
   146   152   153    1
   147   152   149    1
   148   155   153    1
   149   150   151    2
   150   150   149    1
   151   182   183    1
   152   182   181    1
   153   142   144   ar
   154   142   141    1
   155   149   148    1
   156   141   138    1
   157   140   139    2
   158   138   139    1
   159   138   137    1
   160   135   136    1
   161   135   134    1
   162   136   130    1
   163   128   126    1
   164   129   127    1
   165   127   126    1
   166   109   108    1
   167   134   131    1
   168   102   103    1
   169   106   103    1
   170   106   107    1
   171   103   104    1
   172   126   123    1
   173   115   114    1
   174   130   131    1
   175   130   124   am
   176   123   124    1
   177   123   122    1
   178   108   107    1
   179   121   120    1
   180   114   111    1
   181   119   118    2
   182   133   132    2
   183   131   132    1
   184   124   125    2
   185   113   112    2
   186   122   118   am
   187   118   117    1
   188   120   117    1
   189   104   105    2
   190   111   112    1
   191   111   110    1
   192   117   116    1
