@<TRIPOS>MOLECULE
tmp/4dpgB01.pdb
 170 158 0 0 0
SMALL
GASTEIGER

@<TRIPOS>ATOM
      1  N         10.0110   45.8040   48.7300 N.3   209  VAL209     -0.1245
      2  CA         9.2680   46.8100   49.4920 C.3   209  VAL209      0.1561
      3  C          9.5540   48.2140   48.9530 C.2   209  VAL209      0.2260
      4  O         10.6720   48.7310   49.1030 O.2   209  VAL209     -0.2867
      5  CB         9.6030   46.7590   50.9940 C.3   209  VAL209      0.0252
      6  CG1        8.5310   46.0150   51.7470 C.3   209  VAL209      0.0019
      7  CG2       10.9690   46.1120   51.2130 C.3   209  VAL209      0.0019
      8  N         10.8440   53.1970   41.4730 N.3   253  ARG253     -0.1245
      9  CA        10.4500   53.5010   42.8390 C.3   253  ARG253      0.1563
     10  C         10.0290   54.9580   42.9560 C.2   253  ARG253      0.2260
     11  O         10.8030   55.8550   42.6110 O.2   253  ARG253     -0.2867
     12  CB        11.6100   53.2370   43.8030 C.3   253  ARG253      0.0307
     13  CG        11.8410   51.7630   44.1500 C.3   253  ARG253      0.0489
     14  CD        12.8950   51.6900   45.2280 C.3   253  ARG253      0.2205
     15  NE        12.9300   50.4090   45.9320 N.pl3 253  ARG253     -0.0865
     16  CZ        13.2210   50.2760   47.2270 C.cat 253  ARG253      0.5346
     17  NH1       13.4930   51.3480   47.9660 N.pl3 253  ARG253      0.1354
     18  NH2       13.2360   49.0710   47.7890 N.pl3 253  ARG253      0.1354
     19  N         10.0790   57.2790   45.1480 N.3   255  GLU255     -0.1231
     20  CA        10.7020   57.8080   46.3550 C.3   255  GLU255      0.1699
     21  C         11.3360   59.1670   46.0550 C.2   255  GLU255      0.2592
     22  O         10.9090   59.8830   45.1380 O.2   255  GLU255     -0.2718
     23  CB        11.7790   56.8410   46.8650 C.3   255  GLU255      0.0402
     24  CG        11.3210   55.3920   47.0400 C.3   255  GLU255      0.1161
     25  CD        12.4790   54.4350   47.3330 C.2   255  GLU255      0.3649
     26  OE1       13.6330   54.7540   46.9800 O.co2 255  GLU255     -0.2457
     27  OE2       12.2350   53.3570   47.9160 O.co2 255  GLU255     -0.2457
     28  N         12.3580   59.5190   46.8310 N.am  256  GLY256     -0.1957
     29  CA        13.0790   60.7540   46.5980 C.3   256  GLY256      0.1869
     30  C         14.4450   60.5180   45.9780 C.2   256  GLY256      0.2309
     31  O         14.8460   59.3680   45.7440 O.2   256  GLY256     -0.2863
     32  N         22.3560   57.7870   46.3850 N.3   260  THR260     -0.1203
     33  CA        22.2260   56.3710   46.0490 C.3   260  THR260      0.1994
     34  C         20.8250   56.0640   45.5240 C.2   260  THR260      0.2618
     35  O         20.4600   54.8870   45.4310 O.2   260  THR260     -0.2717
     36  CB        22.6000   55.4350   47.2530 C.3   260  THR260      0.1784
     37  OG1       22.2190   56.0450   48.5000 O.3   260  THR260     -0.2211
     38  CG2       24.1120   55.1490   47.2780 C.3   260  THR260      0.0376
     39  N         20.0630   57.1130   45.1670 N.am  261  HIS261     -0.1961
     40  CA        18.6420   56.9480   44.8140 C.3   261  HIS261      0.1787
     41  C         18.1050   57.7490   43.6160 C.2   261  HIS261      0.2620
     42  O         18.0460   58.9940   43.6360 O.2   261  HIS261     -0.2715
     43  CB        17.7400   57.1930   46.0500 C.3   261  HIS261      0.0785
     44  CG        17.9070   56.1690   47.1350 C.ar  261  HIS261      0.0821
     45  ND1       18.0210   56.5110   48.4650 N.ar  261  HIS261     -0.2267
     46  CD2       17.9910   54.8200   47.0820 C.ar  261  HIS261      0.1154
     47  CE1       18.1700   55.4110   49.1850 C.ar  261  HIS261      0.1986
     48  NE2       18.1600   54.3740   48.3710 N.ar  261  HIS261     -0.2212
     49  N         17.7060   57.0050   42.5810 N.am  262  ASN262     -0.1972
     50  CA        17.0250   57.5650   41.4090 C.3   262  ASN262      0.1688
     51  C         15.6940   56.8160   41.2410 C.2   262  ASN262      0.2292
     52  O         15.6080   55.6290   41.5760 O.2   262  ASN262     -0.2864
     53  CB        17.9140   57.4050   40.1500 C.3   262  ASN262      0.1181
     54  CG        17.7230   58.5280   39.1310 C.2   262  ASN262      0.2629
     55  OD1       18.0860   59.6910   39.3720 O.2   262  ASN262     -0.2716
     56  ND2       17.1820   58.1780   37.9780 N.am  262  ASN262     -0.0877
     57  N         16.1240   52.7350   38.0620 N.3   265  PHE265     -0.1241
     58  CA        17.4770   52.1860   38.2130 C.3   265  PHE265      0.1605
     59  C         17.5710   50.8000   37.5670 C.2   265  PHE265      0.2264
     60  O         16.5560   50.1480   37.3230 O.2   265  PHE265     -0.2867
     61  CB        17.8630   52.1090   39.6990 C.3   265  PHE265      0.0534
     62  CG        16.8340   51.4030   40.5640 C.ar  265  PHE265     -0.0203
     63  CD1       15.6860   52.0650   40.9910 C.ar  265  PHE265     -0.0042
     64  CD2       17.0110   50.0820   40.9510 C.ar  265  PHE265     -0.0042
     65  CE1       14.7290   51.4120   41.7810 C.ar  265  PHE265     -0.0003
     66  CE2       16.0530   49.4300   41.7480 C.ar  265  PHE265     -0.0003
     67  CZ        14.9200   50.1010   42.1610 C.ar  265  PHE265     -0.0000
     68  N         18.6710   46.8400   37.5900 N.3   267  THR267     -0.1218
     69  CA        19.0780   45.6880   38.3940 C.3   267  THR267      0.1862
     70  C         19.2220   44.4550   37.5420 C.2   267  THR267      0.2287
     71  O         18.6750   44.3770   36.4400 O.2   267  THR267     -0.2866
     72  CB        18.1650   45.4080   39.6370 C.3   267  THR267      0.1770
     73  OG1       16.9580   44.7300   39.2570 O.3   267  THR267     -0.2211
     74  CG2       17.8210   46.7080   40.3500 C.3   267  THR267      0.0375
     75  N         16.4470   47.0480   60.9670 N.3   375  ASP375     -0.1225
     76  CA        17.1520   47.6040   59.8180 C.3   375  ASP375      0.1805
     77  C         18.0310   48.8150   60.1820 C.2   375  ASP375      0.2597
     78  O         19.1810   48.8870   59.7590 O.2   375  ASP375     -0.2718
     79  CB        16.1810   47.9680   58.6840 C.3   375  ASP375      0.1424
     80  CG        16.8970   48.2340   57.3740 C.2   375  ASP375      0.3668
     81  OD1       17.2810   49.3970   57.1460 O.co2 375  ASP375     -0.2456
     82  OD2       17.0800   47.2810   56.5840 O.co2 375  ASP375     -0.2456
     83  N         17.4990   49.7450   60.9710 N.am  376  LYS376     -0.1979
     84  CA        18.2200   50.9650   61.3530 C.3   376  LYS376      0.1596
     85  C         19.4190   50.6360   62.2350 C.2   376  LYS376      0.2287
     86  O         20.4820   51.2560   62.1340 O.2   376  LYS376     -0.2864
     87  CB        17.2820   51.9370   62.0960 C.3   376  LYS376      0.0298
     88  CG        16.1380   52.4820   61.2610 C.3   376  LYS376      0.0038
     89  CD        16.6510   53.3190   60.1060 C.3   376  LYS376      0.0206
     90  CE        15.5200   53.7500   59.1650 C.3   376  LYS376      0.1093
     91  NZ        16.0280   54.2220   57.8360 N.3   376  LYS376     -0.1314
     92  N         22.0510   49.0370   60.0120 N.3   379  GLY379     -0.1225
     93  CA        22.6570   50.1140   59.2440 C.3   379  GLY379      0.1811
     94  C         23.6780   50.8830   60.0550 C.2   379  GLY379      0.2280
     95  O         24.7600   51.1990   59.5600 O.2   379  GLY379     -0.2866
     96  N         26.5680   47.7020   58.9680 N.3   383  GLU383     -0.1245
     97  CA        26.8010   48.0960   57.5710 C.3   383  GLU383      0.1567
     98  C         28.0270   48.9810   57.4110 C.2   383  GLU383      0.2260
     99  O         28.7520   48.8770   56.4060 O.2   383  GLU383     -0.2867
    100  CB        25.5500   48.7400   56.9540 C.3   383  GLU383      0.0388
    101  CG        24.3580   47.7690   56.8560 C.3   383  GLU383      0.1160
    102  CD        23.1160   48.3980   56.2480 C.2   383  GLU383      0.3649
    103  OE1       23.2040   49.5290   55.7070 O.co2 383  GLU383     -0.2457
    104  OE2       22.0440   47.7500   56.3030 O.co2 383  GLU383     -0.2457
    105  N         22.8780   39.6150   52.0710 N.3   417  GLU417     -0.1245
    106  CA        23.0950   40.8370   51.3250 C.3   417  GLU417      0.1567
    107  C         24.5990   41.0070   51.1570 C.2   417  GLU417      0.2260
    108  O         25.3510   40.7200   52.0880 O.2   417  GLU417     -0.2867
    109  CB        22.4790   42.0250   52.0580 C.3   417  GLU417      0.0388
    110  CG        20.9590   42.1540   51.9090 C.3   417  GLU417      0.1160
    111  CD        20.3890   43.2730   52.7940 C.2   417  GLU417      0.3649
    112  OE1       20.7430   43.2950   53.9990 O.co2 417  GLU417     -0.2457
    113  OE2       19.6300   44.1560   52.2960 O.co2 417  GLU417     -0.2457
    114  N         27.5860   50.1410   51.5840 N.3   423  LYS423     -0.1231
    115  CA        26.3290   50.1050   50.8170 C.3   423  LYS423      0.1693
    116  C         26.0060   48.7070   50.2550 C.2   423  LYS423      0.2592
    117  O         26.9080   47.9270   49.9230 O.2   423  LYS423     -0.2718
    118  CB        26.3440   51.1430   49.6880 C.3   423  LYS423      0.0285
    119  CG        26.7080   52.5630   50.1170 C.3   423  LYS423      0.0035
    120  CD        25.5960   53.2370   50.8420 C.3   423  LYS423      0.0206
    121  CE        26.0580   54.5260   51.4730 C.3   423  LYS423      0.1093
    122  NZ        25.0360   55.0150   52.4450 N.3   423  LYS423     -0.1314
    123  N         24.7120   48.3950   50.1800 N.am  424  GLU424     -0.1966
    124  CA        24.2440   47.1170   49.6360 C.3   424  GLU424      0.1733
    125  C         24.3090   47.0740   48.1160 C.2   424  GLU424      0.2616
    126  O         23.8080   47.9730   47.4360 O.2   424  GLU424     -0.2715
    127  CB        22.7840   46.8410   50.0290 C.3   424  GLU424      0.0429
    128  CG        22.2500   45.5250   49.4570 C.3   424  GLU424      0.1163
    129  CD        20.7200   45.3980   49.4970 C.2   424  GLU424      0.3649
    130  OE1       20.0650   45.8900   50.4550 O.co2 424  GLU424     -0.2457
    131  OE2       20.1690   44.7900   48.5510 O.co2 424  GLU424     -0.2457
    132  N         24.9170   46.0210   47.5850 N.am  425  ILE425     -0.1977
    133  CA        24.9500   45.8160   46.1410 C.3   425  ILE425      0.1596
    134  C         24.1980   44.5510   45.6830 C.2   425  ILE425      0.2287
    135  O         23.7270   44.4790   44.5390 O.2   425  ILE425     -0.2864
    136  CB        26.4030   45.8470   45.5770 C.3   425  ILE425      0.0276
    137  CG1       27.1850   44.6060   45.9800 C.3   425  ILE425      0.0022
    138  CG2       27.1380   47.1110   46.0530 C.3   425  ILE425      0.0022
    139  CD1       28.4900   44.4730   45.2120 C.3   425  ILE425      0.0001
    140  N         22.2540   45.5920   42.2780 N.3   480  GLY480     -0.1225
    141  CA        22.0630   46.9780   41.8870 C.3   480  GLY480      0.1811
    142  C         23.2040   47.4280   40.9910 C.2   480  GLY480      0.2280
    143  O         24.2790   47.8260   41.4710 O.2   480  GLY480     -0.2866
    144  N         23.7570   50.0560   39.0750 N.3   482  ASP482     -0.1225
    145  CA        24.2190   51.4280   39.2500 C.3   482  ASP482      0.1805
    146  C         25.2280   51.5570   40.3940 C.2   482  ASP482      0.2597
    147  O         26.2560   52.2330   40.2500 O.2   482  ASP482     -0.2718
    148  CB        23.0310   52.4040   39.4260 C.3   482  ASP482      0.1424
    149  CG        21.7710   51.9480   38.6910 C.2   482  ASP482      0.3668
    150  OD1       21.5460   52.3800   37.5380 O.co2 482  ASP482     -0.2456
    151  OD2       20.9970   51.1620   39.2820 O.co2 482  ASP482     -0.2456
    152  N         24.9600   50.8870   41.5150 N.am  483  ARG483     -0.1979
    153  CA        25.8800   50.9310   42.6650 C.3   483  ARG483      0.1597
    154  C         27.2470   50.2980   42.3650 C.2   483  ARG483      0.2287
    155  O         28.3080   50.8870   42.6600 O.2   483  ARG483     -0.2864
    156  CB        25.2460   50.2580   43.8850 C.3   483  ARG483      0.0334
    157  CG        23.8940   50.8410   44.2690 C.3   483  ARG483      0.0492
    158  CD        23.8410   51.1130   45.7600 C.3   483  ARG483      0.2205
    159  NE        22.5310   51.6250   46.1520 N.pl3 483  ARG483     -0.0865
    160  CZ        22.0430   51.5550   47.3840 C.cat 483  ARG483      0.5346
    161  NH1       22.7560   50.9800   48.3440 N.pl3 483  ARG483      0.1354
    162  NH2       20.8410   52.0490   47.6460 N.pl3 483  ARG483      0.1354
    163  N         25.2140   58.5580   42.5450 N.3   494  ILE494     -0.1245
    164  CA        24.5680   57.7810   41.4960 C.3   494  ILE494      0.1561
    165  C         24.3310   58.5780   40.2000 C.2   494  ILE494      0.2260
    166  O         24.2620   57.9880   39.1070 O.2   494  ILE494     -0.2867
    167  CB        23.2540   57.1200   42.0070 C.3   494  ILE494      0.0252
    168  CG1       22.9410   55.8450   41.2210 C.3   494  ILE494      0.0019
    169  CG2       22.0810   58.1000   41.9650 C.3   494  ILE494      0.0019
    170  CD1       21.6150   55.2300   41.6200 C.3   494  ILE494      0.0001
@<TRIPOS>BOND
     1    71    70    2
     2    60    59    2
     3   150   149   ar
     4    70    69    1
     5    59    58    1
     6    68    69    1
     7    56    54   am
     8    57    58    1
     9    58    61    1
    10    69    72    1
    11   149   151   ar
    12   149   148    1
    13   144   145    1
    14   166   165    2
    15    54    55    2
    16    54    53    1
    17   145   148    1
    18   145   146    1
    19    73    72    1
    20    72    74    1
    21    61    62    1
    22    53    50    1
    23   165   164    1
    24   147   146    2
    25   146   152   am
    26    62    64   ar
    27    62    63   ar
    28    64    66   ar
    29    63    65   ar
    30   142   143    2
    31   142   141    1
    32   168   170    1
    33   168   167    1
    34    51    50    1
    35    51    52    2
    36    50    49    1
    37     8     9    1
    38   164   167    1
    39   164   163    1
    40   152   153    1
    41    66    67   ar
    42    65    67   ar
    43   141   140    1
    44   169   167    1
    45   154   155    2
    46   154   153    1
    47    49    41   am
    48    11    10    2
    49   153   156    1
    50     9    10    1
    51     9    12    1
    52    41    42    2
    53    41    40    1
    54    12    13    1
    55   156   157    1
    56    13    14    1
    57   157   158    1
    58   135   134    2
    59    40    39    1
    60    40    43    1
    61    22    21    2
    62    19    20    1
    63    39    34   am
    64   139   137    1
    65    14    15    1
    66    35    34    2
    67    34    33    1
    68   136   137    1
    69   136   138    1
    70   136   133    1
    71   134   133    1
    72    31    30    2
    73   158   159    1
    74    15    16    2
    75    30    29    1
    76    33    32    1
    77    33    36    1
    78    43    44    1
    79    21    20    1
    80    21    28   am
    81   133   132    1
    82   159   160    2
    83    20    23    1
    84    29    28    1
    85    23    24    1
    86    26    25   ar
    87    24    25    1
    88    46    44   ar
    89    46    48   ar
    90    44    45   ar
    91    16    18    1
    92    16    17    1
    93    36    38    1
    94    36    37    1
    95    25    27   ar
    96   160   162    1
    97   160   161    1
    98   126   125    2
    99   132   125   am
   100   125   124    1
   101    48    47   ar
   102    45    47   ar
   103   131   129   ar
   104     1     2    1
   105     3     4    2
   106     3     2    1
   107   128   129    1
   108   128   127    1
   109     2     5    1
   110   129   130   ar
   111   124   127    1
   112   124   123    1
   113   118   119    1
   114   118   115    1
   115   117   116    2
   116   119   120    1
   117   123   116   am
   118   116   115    1
   119   115   114    1
   120   120   121    1
   121     5     7    1
   122     5     6    1
   123   107   106    1
   124   107   108    2
   125   106   109    1
   126   106   105    1
   127   121   122    1
   128   110   109    1
   129   110   111    1
   130   113   111   ar
   131   111   112   ar
   132   103   102   ar
   133   102   104   ar
   134   102   101    1
   135    99    98    2
   136    82    80   ar
   137   101   100    1
   138   100    97    1
   139    81    80   ar
   140    80    79    1
   141    98    97    1
   142    97    96    1
   143    91    90    1
   144    79    76    1
   145    90    89    1
   146    93    92    1
   147    93    94    1
   148    95    94    2
   149    78    77    2
   150    76    77    1
   151    76    75    1
   152    89    88    1
   153    77    83   am
   154    83    84    1
   155    88    87    1
   156    84    87    1
   157    84    85    1
   158    86    85    2
