@<TRIPOS>MOLECULE
tmp/4dpgB00.pdb
 112 106 0 0 0
SMALL
GASTEIGER

@<TRIPOS>ATOM
      1  N          7.7240   41.7960   44.7060 N.3   207  GLY207     -0.1210
      2  CA         9.1360   41.4690   44.5570 C.3   207  GLY207      0.1956
      3  C         10.0670   42.2150   45.5020 C.2   207  GLY207      0.2611
      4  O         11.1860   41.7680   45.7690 O.2   207  GLY207     -0.2717
      5  N          9.6090   43.3630   45.9970 N.am  208  ALA208     -0.1979
      6  CA        10.3430   44.1280   47.0020 C.3   208  ALA208      0.1597
      7  C          9.4160   45.0200   47.8330 C.2   208  ALA208      0.2287
      8  O          8.1910   44.9960   47.6680 O.2   208  ALA208     -0.2864
      9  CB        11.4420   44.9610   46.3500 C.3   208  ALA208      0.0319
     10  N          8.5830   47.0600   40.5900 N.3   228  ILE228     -0.1231
     11  CA         9.6610   47.3090   41.5440 C.3   228  ILE228      0.1692
     12  C         10.7080   46.1820   41.5040 C.2   228  ILE228      0.2591
     13  O         11.8370   46.3660   41.9530 O.2   228  ILE228     -0.2718
     14  CB         9.1070   47.5240   42.9660 C.3   228  ILE228      0.0266
     15  CG1        8.3120   46.3140   43.4300 C.3   228  ILE228      0.0019
     16  CG2        8.1550   48.7000   42.9910 C.3   228  ILE228      0.0020
     17  CD1        7.5700   46.5650   44.7400 C.3   228  ILE228      0.0001
     18  N         10.3190   45.0330   40.9460 N.am  229  ALA229     -0.1980
     19  CA        11.1950   43.8690   40.8220 C.3   229  ALA229      0.1597
     20  C         10.5030   42.7710   40.0280 C.2   229  ALA229      0.2287
     21  O          9.3190   42.5090   40.2250 O.2   229  ALA229     -0.2864
     22  CB        11.5790   43.3330   42.2060 C.3   229  ALA229      0.0319
     23  N         10.8640   39.6580   40.2840 N.3   231  GLU231     -0.1245
     24  CA        11.0500   38.4350   41.0790 C.3   231  GLU231      0.1567
     25  C          9.9920   37.3350   40.8900 C.2   231  GLU231      0.2260
     26  O         10.3080   36.1600   40.5490 O.2   231  GLU231     -0.2867
     27  CB        11.1720   38.8130   42.5700 C.3   231  GLU231      0.0388
     28  CG        11.0770   37.6540   43.5700 C.3   231  GLU231      0.1160
     29  CD        11.9060   37.8930   44.8340 C.2   231  GLU231      0.3649
     30  OE1       12.6650   38.8970   44.8640 O.co2 231  GLU231     -0.2457
     31  OE2       11.7970   37.0750   45.7870 O.co2 231  GLU231     -0.2457
     32  N         18.5090   40.4090   37.9870 N.3   269  GLU269     -0.1245
     33  CA        18.0150   39.3400   38.8380 C.3   269  GLU269      0.1567
     34  C         18.2090   37.9980   38.1380 C.2   269  GLU269      0.2260
     35  O         17.9940   37.8700   36.9260 O.2   269  GLU269     -0.2867
     36  CB        16.5410   39.5640   39.2520 C.3   269  GLU269      0.0388
     37  CG        16.3220   40.8400   40.0730 C.3   269  GLU269      0.1160
     38  CD        15.1720   40.7520   41.0830 C.2   269  GLU269      0.3649
     39  OE1       14.6290   39.6480   41.2950 O.co2 269  GLU269     -0.2457
     40  OE2       14.8220   41.7990   41.6740 O.co2 269  GLU269     -0.2457
     41  N         17.4930   33.6200   38.8350 N.3   271  TYR271     -0.1241
     42  CA        16.9290   32.5280   39.6330 C.3   271  TYR271      0.1605
     43  C         17.4820   31.2010   39.1070 C.2   271  TYR271      0.2264
     44  O         17.6000   30.9570   37.8800 O.2   271  TYR271     -0.2867
     45  CB        15.3810   32.5980   39.6750 C.3   271  TYR271      0.0534
     46  CG        14.9480   33.8400   40.4310 C.ar  271  TYR271     -0.0201
     47  CD1       15.0990   35.1060   39.8600 C.ar  271  TYR271     -0.0009
     48  CD2       14.4560   33.7620   41.7350 C.ar  271  TYR271     -0.0009
     49  CE1       14.7670   36.2530   40.5480 C.ar  271  TYR271      0.0417
     50  CE2       14.1190   34.9210   42.4490 C.ar  271  TYR271      0.0417
     51  CZ        14.2800   36.1690   41.8320 C.ar  271  TYR271      0.1957
     52  OH        13.9500   37.3350   42.4880 O.3   271  TYR271     -0.2866
     53  N         24.7120   48.3950   50.1800 N.3   424  GLU424     -0.1245
     54  CA        24.2440   47.1170   49.6360 C.3   424  GLU424      0.1567
     55  C         24.3090   47.0740   48.1160 C.2   424  GLU424      0.2260
     56  O         23.8080   47.9730   47.4360 O.2   424  GLU424     -0.2867
     57  CB        22.7840   46.8410   50.0290 C.3   424  GLU424      0.0388
     58  CG        22.2500   45.5250   49.4570 C.3   424  GLU424      0.1160
     59  CD        20.7200   45.3980   49.4970 C.2   424  GLU424      0.3649
     60  OE1       20.0650   45.8900   50.4550 O.co2 424  GLU424     -0.2457
     61  OE2       20.1690   44.7900   48.5510 O.co2 424  GLU424     -0.2457
     62  N         21.3490   41.2500   46.9720 N.3   427  ASN427     -0.1240
     63  CA        20.3930   40.6780   47.9040 C.3   427  ASN427      0.1653
     64  C         19.9480   39.3200   47.3630 C.2   427  ASN427      0.2266
     65  O         19.5450   39.1900   46.2060 O.2   427  ASN427     -0.2867
     66  CB        19.1980   41.5900   48.0930 C.3   427  ASN427      0.1155
     67  CG        18.2230   41.0560   49.1120 C.2   427  ASN427      0.2627
     68  OD1       18.6250   40.4840   50.1180 O.2   427  ASN427     -0.2716
     69  ND2       16.9240   41.2290   48.8460 N.am  427  ASN427     -0.0877
     70  N         18.4820   35.0540   48.3340 N.3   429  TYR429     -0.1241
     71  CA        17.9860   34.0560   49.2750 C.3   429  TYR429      0.1605
     72  C         17.5870   32.7340   48.6270 C.2   429  TYR429      0.2264
     73  O         17.2840   32.6650   47.4270 O.2   429  TYR429     -0.2867
     74  CB        16.8680   34.6180   50.1980 C.3   429  TYR429      0.0534
     75  CG        15.8230   35.5600   49.5690 C.ar  429  TYR429     -0.0201
     76  CD1       15.8450   36.9390   49.8070 C.ar  429  TYR429     -0.0009
     77  CD2       14.8070   35.0680   48.7650 C.ar  429  TYR429     -0.0009
     78  CE1       14.8710   37.8000   49.2460 C.ar  429  TYR429      0.0417
     79  CE2       13.8390   35.9100   48.1970 C.ar  429  TYR429      0.0417
     80  CZ        13.8630   37.2720   48.4470 C.ar  429  TYR429      0.1957
     81  OH        12.8920   38.0990   47.8950 O.3   429  TYR429     -0.2866
     82  N         14.8060   30.5680   47.9240 N.3   431  GLU431     -0.1245
     83  CA        13.4420   31.0410   47.6870 C.3   431  GLU431      0.1567
     84  C         12.3930   30.2380   48.4690 C.2   431  GLU431      0.2260
     85  O         12.5160   29.0030   48.6270 O.2   431  GLU431     -0.2867
     86  CB        13.1090   30.9970   46.1820 C.3   431  GLU431      0.0388
     87  CG        14.0680   31.7910   45.3450 C.3   431  GLU431      0.1160
     88  CD        13.9090   33.3090   45.5590 C.2   431  GLU431      0.3649
     89  OE1       12.7620   33.7810   45.8540 O.co2 431  GLU431     -0.2457
     90  OE2       14.9360   34.0360   45.4310 O.co2 431  GLU431     -0.2457
     91  N         17.4840   32.6090   44.5410 N.3   476  GLY476     -0.1210
     92  CA        17.4020   33.8130   43.7380 C.3   476  GLY476      0.1956
     93  C         18.2900   34.9500   44.2320 C.2   476  GLY476      0.2612
     94  O         18.7220   34.9950   45.4040 O.2   476  GLY476     -0.2717
     95  N         18.5350   35.8990   43.3320 N.am  477  TRP477     -0.1962
     96  CA        19.6040   36.8850   43.5110 C.3   477  TRP477      0.1771
     97  C         19.3320   38.1600   42.7330 C.2   477  TRP477      0.2620
     98  O         18.8760   38.1220   41.5900 O.2   477  TRP477     -0.2715
     99  CB        20.8870   36.2450   43.0050 C.3   477  TRP477      0.0590
    100  CG        22.1690   36.9800   43.1640 C.ar  477  TRP477      0.0006
    101  CD1       23.0340   36.8940   44.2180 C.ar  477  TRP477      0.0946
    102  CD2       22.8070   37.8170   42.1920 C.ar  477  TRP477      0.0152
    103  NE1       24.1500   37.6650   43.9870 N.ar  477  TRP477     -0.2442
    104  CE2       24.0370   38.2400   42.7470 C.ar  477  TRP477      0.0810
    105  CE3       22.4420   38.2900   40.9220 C.ar  477  TRP477      0.0012
    106  CZ2       24.9060   39.0930   42.0720 C.ar  477  TRP477      0.0191
    107  CZ3       23.3080   39.1320   40.2470 C.ar  477  TRP477      0.0001
    108  CH2       24.5310   39.5210   40.8220 C.ar  477  TRP477      0.0015
    109  N         19.6160   39.2810   43.3720 N.am  478  GLY478     -0.1954
    110  CA        19.4790   40.5820   42.7530 C.3   478  GLY478      0.1869
    111  C         20.6680   41.4980   43.0150 C.2   478  GLY478      0.2309
    112  O         21.2340   41.4850   44.1080 O.2   478  GLY478     -0.2863
@<TRIPOS>BOND
     1    35    34    2
     2    44    43    2
     3    32    33    1
     4    34    33    1
     5    41    42    1
     6    33    36    1
     7    43    42    1
     8    36    37    1
     9    42    45    1
    10    45    46    1
    11    47    46   ar
    12    47    49   ar
    13    20    21    2
    14    20    19    1
    15    37    38    1
    16   107   108   ar
    17   107   105   ar
    18    23    24    1
    19    46    48   ar
    20    49    51   ar
    21    26    25    2
    22    10    11    1
    23    19    18    1
    24    19    22    1
    25   108   106   ar
    26    25    24    1
    27   105   102   ar
    28    18    12   am
    29    24    27    1
    30    38    39   ar
    31    38    40   ar
    32    12    11    1
    33    12    13    2
    34    11    14    1
    35    98    97    2
    36    48    50   ar
    37    51    50   ar
    38    51    52    1
    39   106   104   ar
    40   102   104   ar
    41   102   100   ar
    42    27    28    1
    43    97   109   am
    44    97    96    1
    45   104   103   ar
    46   110   111    1
    47   110   109    1
    48    14    16    1
    49    14    15    1
    50    99   100    1
    51    99    96    1
    52   111   112    2
    53   100   101   ar
    54    95    96    1
    55    95    93   am
    56    15    17    1
    57    28    29    1
    58    92    93    1
    59    92    91    1
    60   103   101   ar
    61    93    94    2
    62     2     1    1
    63     2     3    1
    64    29    30   ar
    65    29    31   ar
    66    87    88    1
    67    87    86    1
    68    90    88   ar
    69     3     4    2
    70     3     5   am
    71    88    89   ar
    72     5     6    1
    73    86    83    1
    74    65    64    2
    75     9     6    1
    76    62    63    1
    77     6     7    1
    78    64    63    1
    79    73    72    2
    80    56    55    2
    81     8     7    2
    82    83    82    1
    83    83    84    1
    84    81    80    1
    85    63    66    1
    86    66    67    1
    87    55    54    1
    88    79    80   ar
    89    79    77   ar
    90    70    71    1
    91    80    78   ar
    92    84    85    2
    93    61    59   ar
    94    72    71    1
    95    77    75   ar
    96    69    67   am
    97    67    68    2
    98    78    76   ar
    99    71    74    1
   100    58    59    1
   101    58    57    1
   102    59    60   ar
   103    75    76   ar
   104    75    74    1
   105    54    57    1
   106    54    53    1
