@<TRIPOS>MOLECULE
tmp/4dpgA01.pdb
 135 125 0 0 0
SMALL
GASTEIGER

@<TRIPOS>ATOM
      1  N          5.9330   58.3990   16.9390 N.3   205  VAL205     -0.1245
      2  CA         4.5510   58.8590   16.9070 C.3   205  VAL205      0.1561
      3  C          3.6840   57.8700   17.7060 C.2   205  VAL205      0.2260
      4  O          3.4550   56.7330   17.2600 O.2   205  VAL205     -0.2867
      5  CB         4.0360   58.9990   15.4580 C.3   205  VAL205      0.0252
      6  CG1        2.5870   59.4700   15.4150 C.3   205  VAL205      0.0019
      7  CG2        4.8990   60.0340   14.7310 C.3   205  VAL205      0.0019
      8  N          3.2160   52.1130   24.9730 N.3   249  ARG249     -0.1245
      9  CA         2.1540   52.7710   24.2120 C.3   249  ARG249      0.1563
     10  C          0.7860   52.5430   24.8470 C.2   249  ARG249      0.2260
     11  O          0.3660   51.3990   25.0650 O.2   249  ARG249     -0.2867
     12  CB         2.1460   52.3260   22.7430 C.3   249  ARG249      0.0307
     13  CG         3.2680   52.9270   21.9120 C.3   249  ARG249      0.0489
     14  CD         3.1640   52.5580   20.4310 C.3   249  ARG249      0.2205
     15  NE         4.3360   53.0340   19.6910 N.pl3 249  ARG249     -0.0865
     16  CZ         4.2890   53.5900   18.4830 C.cat 249  ARG249      0.5346
     17  NH1        3.1210   53.7430   17.8670 N.pl3 249  ARG249      0.1354
     18  NH2        5.4100   53.9930   17.8920 N.pl3 249  ARG249      0.1354
     19  N         -2.5890   52.2130   24.1510 N.3   251  GLU251     -0.1245
     20  CA        -3.1850   51.8820   22.8530 C.3   251  GLU251      0.1567
     21  C         -4.0370   50.6310   22.9410 C.2   251  GLU251      0.2260
     22  O         -4.4230   50.1890   24.0360 O.2   251  GLU251     -0.2867
     23  CB        -2.0810   51.5850   21.8240 C.3   251  GLU251      0.0388
     24  CG        -1.8100   52.6370   20.7740 C.3   251  GLU251      0.1160
     25  CD        -0.6750   52.2080   19.8380 C.2   251  GLU251      0.3649
     26  OE1       -0.4420   50.9800   19.6660 O.co2 251  GLU251     -0.2457
     27  OE2        0.0030   53.0980   19.2850 O.co2 251  GLU251     -0.2457
     28  N         -1.3700   41.9730   17.3540 N.3   256  THR256     -0.1203
     29  CA        -0.0010   42.4270   17.1910 C.3   256  THR256      0.1994
     30  C          0.4330   43.6080   18.0490 C.2   256  THR256      0.2618
     31  O          1.4400   44.2240   17.7820 O.2   256  THR256     -0.2717
     32  CB         0.4070   42.6080   15.7130 C.3   256  THR256      0.1784
     33  OG1        1.8060   42.9000   15.6420 O.3   256  THR256     -0.2211
     34  CG2       -0.3760   43.7200   15.0460 C.3   256  THR256      0.0376
     35  N         -0.3400   43.9400   19.0620 N.am  257  HIS257     -0.1961
     36  CA         0.0230   45.0470   19.9050 C.3   257  HIS257      0.1787
     37  C          0.0210   44.7480   21.3600 C.2   257  HIS257      0.2620
     38  O         -0.9670   44.2490   21.9100 O.2   257  HIS257     -0.2715
     39  CB        -0.8850   46.2360   19.6430 C.3   257  HIS257      0.0785
     40  CG        -0.7690   46.7830   18.2520 C.ar  257  HIS257      0.0821
     41  ND1       -1.7650   46.7090   17.3690 N.ar  257  HIS257     -0.2267
     42  CD2        0.2860   47.4030   17.6050 C.ar  257  HIS257      0.1154
     43  CE1       -1.3720   47.2560   16.2160 C.ar  257  HIS257      0.1986
     44  NE2       -0.1130   47.6750   16.3630 N.ar  257  HIS257     -0.2212
     45  N          1.1130   45.1060   22.0160 N.am  258  ASN258     -0.1972
     46  CA         1.1870   45.0670   23.4640 C.3   258  ASN258      0.1688
     47  C          1.5930   46.4600   23.9790 C.2   258  ASN258      0.2292
     48  O          2.3540   47.1770   23.3090 O.2   258  ASN258     -0.2864
     49  CB         2.1570   43.9790   23.9030 C.3   258  ASN258      0.1181
     50  CG         1.7790   43.3800   25.2300 C.2   258  ASN258      0.2629
     51  OD1        0.6740   42.8440   25.3880 O.2   258  ASN258     -0.2716
     52  ND2        2.6830   43.4810   26.2050 N.am  258  ASN258     -0.0877
     53  N          6.6370   46.8210   24.7880 N.3   261  PHE261     -0.1241
     54  CA         7.3000   45.9710   23.7850 C.3   261  PHE261      0.1605
     55  C          8.7880   46.3210   23.6720 C.2   261  PHE261      0.2264
     56  O          9.2280   47.3370   24.1840 O.2   261  PHE261     -0.2867
     57  CB         6.6100   46.1420   22.4380 C.3   261  PHE261      0.0534
     58  CG         6.5960   47.5710   21.9690 C.ar  261  PHE261     -0.0203
     59  CD1        5.6410   48.4640   22.4450 C.ar  261  PHE261     -0.0042
     60  CD2        7.5570   48.0370   21.0840 C.ar  261  PHE261     -0.0042
     61  CE1        5.6400   49.7780   22.0360 C.ar  261  PHE261     -0.0003
     62  CE2        7.5530   49.3520   20.6660 C.ar  261  PHE261     -0.0003
     63  CZ         6.6040   50.2250   21.1460 C.ar  261  PHE261     -0.0000
     64  N         12.3270   47.2850   21.6900 N.3   263  THR263     -0.1218
     65  CA        13.0510   47.6940   20.4880 C.3   263  THR263      0.1862
     66  C         14.5510   47.7390   20.6850 C.2   263  THR263      0.2287
     67  O         15.0450   47.8390   21.8100 O.2   263  THR263     -0.2866
     68  CB        12.5240   49.0230   19.8360 C.3   263  THR263      0.1770
     69  OG1       12.9830   50.1660   20.5610 O.3   263  THR263     -0.2211
     70  CG2       11.0090   49.0360   19.7770 C.3   263  THR263      0.0375
     71  N          0.1750   57.3500    4.3240 N.3   371  ASP371     -0.1239
     72  CA         0.4580   56.1250    5.0650 C.3   371  ASP371      0.1674
     73  C         -0.5580   55.0400    4.7480 C.2   371  ASP371      0.2266
     74  O         -0.1930   53.8780    4.5550 O.2   371  ASP371     -0.2867
     75  CB         0.4940   56.3960    6.5850 C.3   371  ASP371      0.1410
     76  CG         0.8980   55.1630    7.3960 C.2   371  ASP371      0.3668
     77  OD1        2.1180   54.8730    7.5020 O.co2 371  ASP371     -0.2456
     78  OD2       -0.0080   54.4800    7.9270 O.co2 371  ASP371     -0.2456
     79  N          6.3240   45.9210    9.1280 N.3   420  GLU420     -0.1231
     80  CA         7.5600   46.6750    9.3960 C.3   420  GLU420      0.1699
     81  C          8.3370   46.0940   10.5730 C.2   420  GLU420      0.2592
     82  O          7.7950   45.9220   11.6700 O.2   420  GLU420     -0.2718
     83  CB         7.2560   48.1450    9.7050 C.3   420  GLU420      0.0402
     84  CG         8.4980   49.0010    9.9510 C.3   420  GLU420      0.1161
     85  CD         8.1890   50.3160   10.6880 C.2   420  GLU420      0.3649
     86  OE1        7.1090   50.9110   10.4460 O.co2 420  GLU420     -0.2457
     87  OE2        9.0330   50.7500   11.5130 O.co2 420  GLU420     -0.2457
     88  N          9.6130   45.8090   10.3490 N.am  421  ILE421     -0.1980
     89  CA        10.4760   45.3710   11.4340 C.3   421  ILE421      0.1595
     90  C         11.5920   46.3930   11.7300 C.2   421  ILE421      0.2287
     91  O         12.0660   46.5140   12.8730 O.2   421  ILE421     -0.2864
     92  CB        11.0520   43.9760   11.1510 C.3   421  ILE421      0.0276
     93  CG1       11.7840   43.9810    9.8200 C.3   421  ILE421      0.0022
     94  CG2        9.9320   42.9430   11.1210 C.3   421  ILE421      0.0022
     95  CD1       12.8430   42.9390    9.7560 C.3   421  ILE421      0.0001
     96  N         -1.1270   61.6870   18.3590 N.3   451  GLU451     -0.1245
     97  CA         0.1630   61.0250   18.4880 C.3   451  GLU451      0.1567
     98  C          1.2970   61.9570   18.0480 C.2   451  GLU451      0.2260
     99  O          2.4770   61.6390   18.2350 O.2   451  GLU451     -0.2867
    100  CB         0.1830   59.7390   17.6450 C.3   451  GLU451      0.0388
    101  CG        -0.9550   58.7420   17.9140 C.3   451  GLU451      0.1160
    102  CD        -0.8780   57.5160   17.0010 C.2   451  GLU451      0.3649
    103  OE1       -0.3930   56.4630   17.4720 O.co2 451  GLU451     -0.2457
    104  OE2       -1.3010   57.6030   15.8210 O.co2 451  GLU451     -0.2457
    105  N         11.8640   46.3810   15.8230 N.3   476  GLY476     -0.1225
    106  CA        10.8830   45.7780   16.7190 C.3   476  GLY476      0.1811
    107  C         11.2220   44.3220   16.9590 C.2   476  GLY476      0.2280
    108  O         10.8690   43.4460   16.1490 O.2   476  GLY476     -0.2866
    109  N         10.1550   42.1580   18.9880 N.3   478  ASP478     -0.1225
    110  CA         9.0060   41.2660   19.1270 C.3   478  ASP478      0.1805
    111  C          8.5130   40.7110   17.7840 C.2   478  ASP478      0.2597
    112  O          8.1500   39.5340   17.6910 O.2   478  ASP478     -0.2718
    113  CB         7.8830   41.9710   19.8840 C.3   478  ASP478      0.1424
    114  CG         8.3850   42.6540   21.1510 C.2   478  ASP478      0.3668
    115  OD1        8.5900   41.9430   22.1780 O.co2 478  ASP478     -0.2456
    116  OD2        8.5850   43.9000   21.1160 O.co2 478  ASP478     -0.2456
    117  N          8.5260   41.5480   16.7460 N.am  479  ARG479     -0.1979
    118  CA         8.1130   41.1190   15.4070 C.3   479  ARG479      0.1597
    119  C          9.1030   40.1540   14.7710 C.2   479  ARG479      0.2287
    120  O          8.7160   39.1390   14.1860 O.2   479  ARG479     -0.2864
    121  CB         7.8810   42.3180   14.4890 C.3   479  ARG479      0.0334
    122  CG         6.8630   43.2950   15.0410 C.3   479  ARG479      0.0492
    123  CD         5.8870   43.7240   13.9630 C.3   479  ARG479      0.2205
    124  NE         5.0790   44.8620   14.3920 N.pl3 479  ARG479     -0.0865
    125  CZ         4.5370   45.7370   13.5550 C.cat 479  ARG479      0.5346
    126  NH1        4.7200   45.5990   12.2480 N.pl3 479  ARG479      0.1354
    127  NH2        3.8240   46.7490   14.0220 N.pl3 479  ARG479      0.1354
    128  N          1.4560   38.1690   18.8120 N.3   490  ILE490     -0.1245
    129  CA         2.5400   38.7260   19.6080 C.3   490  ILE490      0.1561
    130  C          2.5760   38.1070   21.0220 C.2   490  ILE490      0.2260
    131  O          3.6200   38.1080   21.6800 O.2   490  ILE490     -0.2867
    132  CB         2.4290   40.2630   19.6860 C.3   490  ILE490      0.0252
    133  CG1        3.7760   40.9000   20.0460 C.3   490  ILE490      0.0019
    134  CG2        1.3270   40.6900   20.6630 C.3   490  ILE490      0.0019
    135  CD1        3.6680   42.3920   20.3540 C.3   490  ILE490      0.0001
@<TRIPOS>BOND
     1    71    72    1
     2    74    73    2
     3    73    72    1
     4    72    75    1
     5    75    76    1
     6    76    77   ar
     7    76    78   ar
     8    79    80    1
     9    80    83    1
    10    80    81    1
    11    83    84    1
    12    95    93    1
    13    93    92    1
    14    84    85    1
    15    88    81   am
    16    88    89    1
    17    86    85   ar
    18    81    82    2
    19    85    87   ar
    20    94    92    1
    21    92    89    1
    22    89    90    1
    23    90    91    2
    24   126   125    1
    25   125   127    1
    26   125   124    2
    27   123   124    1
    28   123   122    1
    29   120   119    2
    30   121   122    1
    31   121   118    1
    32     7     5    1
    33   119   118    1
    34    34    32    1
    35   118   117    1
    36     6     5    1
    37     5     2    1
    38    33    32    1
    39    32    29    1
    40   104   102   ar
    41   105   106    1
    42   108   107    2
    43    43    44   ar
    44    43    41   ar
    45    44    42   ar
    46   106   107    1
    47   117   111   am
    48     2     1    1
    49     2     3    1
    50   102   103   ar
    51   102   101    1
    52    29    28    1
    53    29    30    1
    54     4     3    2
    55    41    40   ar
    56    42    40   ar
    57   100   101    1
    58   100    97    1
    59   112   111    2
    60    31    30    2
    61   111   110    1
    62    17    16    1
    63    18    16    1
    64    98    99    2
    65    98    97    1
    66    30    35   am
    67    40    39    1
    68    96    97    1
    69    16    15    2
    70   128   129    1
    71   109   110    1
    72    35    36    1
    73   110   113    1
    74    27    25   ar
    75   129   132    1
    76   129   130    1
    77    39    36    1
    78    26    25   ar
    79   132   133    1
    80   132   134    1
    81    15    14    1
    82    70    68    1
    83    68    65    1
    84    68    69    1
    85    25    24    1
    86   113   114    1
    87    36    37    1
    88   133   135    1
    89    14    13    1
    90    65    66    1
    91    65    64    1
    92    62    60   ar
    93    62    63   ar
    94    66    67    2
    95    24    23    1
    96   130   131    2
    97    60    58   ar
    98   116   114   ar
    99    63    61   ar
   100   114   115   ar
   101    37    38    2
   102    37    45   am
   103    23    20    1
   104    13    12    1
   105    58    57    1
   106    58    59   ar
   107    45    46    1
   108    61    59   ar
   109    57    54    1
   110    12     9    1
   111    20    21    1
   112    20    19    1
   113    21    22    2
   114    48    47    2
   115    46    49    1
   116    46    47    1
   117    55    54    1
   118    55    56    2
   119    54    53    1
   120    49    50    1
   121     9    10    1
   122     9     8    1
   123    10    11    2
   124    50    51    2
   125    50    52   am
