@<TRIPOS>MOLECULE
tmp/4dphB00.pdb
 171 166 0 0 0
SMALL
GASTEIGER

@<TRIPOS>ATOM
      1  N         24.2910  -28.9910   13.4660 N.3    10  ILE10      -0.1231
      2  CA        25.0050  -27.8320   12.9280 C.3    10  ILE10       0.1692
      3  C         24.9970  -27.8320   11.4020 C.2    10  ILE10       0.2592
      4  O         25.4430  -28.7970   10.7890 O.2    10  ILE10      -0.2718
      5  CB        26.4540  -27.7210   13.4500 C.3    10  ILE10       0.0266
      6  CG1       27.0680  -26.4010   12.9900 C.3    10  ILE10       0.0019
      7  CG2       27.2960  -28.8870   12.9710 C.3    10  ILE10       0.0020
      8  CD1       28.5080  -26.1940   13.4150 C.3    10  ILE10       0.0001
      9  N         24.4950  -26.7570   10.7950 N.am   11  CYS11      -0.1956
     10  CA        24.4570  -26.6600    9.3360 C.3    11  CYS11       0.1843
     11  C         24.8780  -25.3230    8.7180 C.2    11  CYS11       0.2625
     12  O         25.2050  -24.3440    9.4070 O.2    11  CYS11      -0.2714
     13  CB        23.0740  -27.0410    8.8160 C.3    11  CYS11       0.0997
     14  SG        21.7510  -26.0100    9.4330 S.3    11  CYS11      -0.0797
     15  N         24.8730  -25.3350    7.3860 N.am   12  ALA12      -0.1977
     16  CA        25.1070  -24.1920    6.5120 C.3    12  ALA12       0.1597
     17  C         24.0870  -24.3140    5.3890 C.2    12  ALA12       0.2287
     18  O         23.9440  -25.3680    4.7810 O.2    12  ALA12      -0.2864
     19  CB        26.5070  -24.2230    5.9540 C.3    12  ALA12       0.0319
     20  N         28.2040  -32.9740   -3.4650 N.3    36  VAL36      -0.1231
     21  CA        29.1830  -32.0200   -2.9230 C.3    36  VAL36       0.1692
     22  C         28.4360  -30.8370   -2.2610 C.2    36  VAL36       0.2591
     23  O         27.1960  -30.8460   -2.1800 O.2    36  VAL36      -0.2718
     24  CB        30.2070  -31.5100   -4.0180 C.3    36  VAL36       0.0266
     25  CG1       31.5200  -31.0430   -3.3750 C.3    36  VAL36       0.0020
     26  CG2       30.5040  -32.5930   -5.0650 C.3    36  VAL36       0.0020
     27  N         29.1970  -29.8510   -1.7710 N.am   37  LEU37      -0.1980
     28  CA        28.6490  -28.5800   -1.2780 C.3    37  LEU37       0.1596
     29  C         28.2470  -27.6670   -2.4500 C.2    37  LEU37       0.2287
     30  O         28.9650  -27.6240   -3.4580 O.2    37  LEU37      -0.2864
     31  CB        29.6780  -27.8710   -0.3880 C.3    37  LEU37       0.0297
     32  CG        29.9450  -28.4420    1.0110 C.3    37  LEU37       0.0022
     33  CD1       30.9660  -27.5920    1.7750 C.3    37  LEU37       0.0001
     34  CD2       28.6420  -28.5680    1.8050 C.3    37  LEU37       0.0001
     35  N         28.4010  -24.4500   -2.8750 N.3    39  TRP39      -0.1227
     36  CA        29.3680  -23.3750   -3.1050 C.3    39  TRP39       0.1737
     37  C         30.7700  -23.9520   -3.2390 C.2    39  TRP39       0.2595
     38  O         30.9730  -25.1180   -2.9310 O.2    39  TRP39      -0.2718
     39  CB        29.3130  -22.3630   -1.9490 C.3    39  TRP39       0.0564
     40  CG        29.2650  -22.9990   -0.5810 C.ar   39  TRP39       0.0003
     41  CD1       30.3320  -23.3460    0.2060 C.ar   39  TRP39       0.0946
     42  CD2       28.0910  -23.3620    0.1530 C.ar   39  TRP39       0.0152
     43  NE1       29.8920  -23.9000    1.3810 N.ar   39  TRP39      -0.2442
     44  CE2       28.5200  -23.9280    1.3730 C.ar   39  TRP39       0.0810
     45  CE3       26.7180  -23.2670   -0.1030 C.ar   39  TRP39       0.0012
     46  CZ2       27.6230  -24.3980    2.3390 C.ar   39  TRP39       0.0191
     47  CZ3       25.8270  -23.7380    0.8580 C.ar   39  TRP39       0.0001
     48  CH2       26.2880  -24.2930    2.0660 C.ar   39  TRP39       0.0015
     49  N         31.7270  -23.1480   -3.6960 N.am   40  LYS40      -0.1980
     50  CA        33.1180  -23.5980   -3.8340 C.3    40  LYS40       0.1596
     51  C         33.8010  -23.7900   -2.4650 C.2    40  LYS40       0.2287
     52  O         33.5620  -24.8010   -1.7940 O.2    40  LYS40      -0.2864
     53  CB        33.9090  -22.6250   -4.7180 C.3    40  LYS40       0.0298
     54  CG        33.9720  -23.0010   -6.2040 C.3    40  LYS40       0.0038
     55  CD        35.3810  -23.4240   -6.5980 C.3    40  LYS40       0.0206
     56  CE        35.6590  -23.0630   -8.0570 C.3    40  LYS40       0.1093
     57  NZ        35.1060  -24.0820   -9.0000 N.3    40  LYS40      -0.1314
     58  N         32.9640  -20.2200    7.1520 N.3    45  ASP45      -0.1225
     59  CA        32.0670  -21.2460    7.6460 C.3    45  ASP45       0.1805
     60  C         32.8300  -22.4940    8.0950 C.2    45  ASP45       0.2597
     61  O         32.4050  -23.1680    9.0320 O.2    45  ASP45      -0.2718
     62  CB        31.0500  -21.6280    6.5810 C.3    45  ASP45       0.1424
     63  CG        30.1120  -22.7230    7.0440 C.2    45  ASP45       0.3668
     64  OD1       29.4040  -22.5460    8.0640 O.co2  45  ASP45      -0.2456
     65  OD2       30.0810  -23.7590    6.3740 O.co2  45  ASP45      -0.2456
     66  N         33.9450  -22.7960    7.4240 N.am   46  MET46      -0.1979
     67  CA        34.7300  -23.9860    7.7580 C.3    46  MET46       0.1605
     68  C         35.4610  -23.7470    9.0560 C.2    46  MET46       0.2287
     69  O         35.6000  -24.6500    9.8630 O.2    46  MET46      -0.2864
     70  CB        35.7020  -24.3810    6.6360 C.3    46  MET46       0.0413
     71  CG        35.0070  -24.6110    5.2850 C.3    46  MET46       0.0598
     72  SD        34.2670  -26.2590    5.0790 S.3    46  MET46      -0.1393
     73  CE        35.2900  -26.8950    3.7140 C.3    46  MET46       0.0692
     74  N         34.2740  -21.7330   11.4520 N.3    48  TYR48      -0.1227
     75  CA        33.2640  -21.7430   12.5250 C.3    48  TYR48       0.1736
     76  C         32.9890  -23.1780   12.9350 C.2    48  TYR48       0.2595
     77  O         33.0420  -23.5320   14.1120 O.2    48  TYR48      -0.2718
     78  CB        31.9560  -21.0970   12.0490 C.3    48  TYR48       0.0548
     79  CG        30.8200  -20.9730   13.0630 C.ar   48  TYR48      -0.0200
     80  CD1       30.8700  -20.0410   14.1020 C.ar   48  TYR48      -0.0009
     81  CD2       29.6720  -21.7400   12.9350 C.ar   48  TYR48      -0.0009
     82  CE1       29.8150  -19.8980   15.0020 C.ar   48  TYR48       0.0417
     83  CE2       28.6070  -21.6080   13.8190 C.ar   48  TYR48       0.0417
     84  CZ        28.6780  -20.6840   14.8470 C.ar   48  TYR48       0.1957
     85  OH        27.6040  -20.5660   15.7250 O.3    48  TYR48      -0.2866
     86  N         32.6730  -23.9720   11.9250 N.am   49  PHE49      -0.1976
     87  CA        32.3570  -25.3720   12.0550 C.3    49  PHE49       0.1639
     88  C         33.4250  -26.1340   12.8610 C.2    49  PHE49       0.2290
     89  O         33.1070  -26.7760   13.8670 O.2    49  PHE49      -0.2864
     90  CB        32.1780  -25.9300   10.6460 C.3    49  PHE49       0.0560
     91  CG        32.1050  -27.4050   10.5760 C.ar   49  PHE49      -0.0200
     92  CD1       31.0200  -28.0810   11.1090 C.ar   49  PHE49      -0.0042
     93  CD2       33.1100  -28.1180    9.9350 C.ar   49  PHE49      -0.0042
     94  CE1       30.9430  -29.4650   11.0350 C.ar   49  PHE49      -0.0003
     95  CE2       33.0520  -29.4970    9.8480 C.ar   49  PHE49      -0.0003
     96  CZ        31.9670  -30.1810   10.4040 C.ar   49  PHE49      -0.0000
     97  N         27.2170  -38.1060    3.2500 N.3    84  ASN84      -0.1240
     98  CA        27.9550  -37.0470    3.9060 C.3    84  ASN84       0.1653
     99  C         29.4290  -37.4150    4.0240 C.2    84  ASN84       0.2266
    100  O         30.2860  -36.6900    3.5230 O.2    84  ASN84      -0.2867
    101  CB        27.3390  -36.7570    5.2780 C.3    84  ASN84       0.1155
    102  CG        27.7550  -35.4030    5.8530 C.2    84  ASN84       0.2627
    103  OD1       28.6440  -34.7200    5.3320 O.2    84  ASN84      -0.2716
    104  ND2       27.1060  -35.0140    6.9430 N.am   84  ASN84      -0.0877
    105  N         31.9810  -37.7470    0.9360 N.3    87  SER87      -0.1202
    106  CA        32.1880  -36.4800    0.2170 C.3    87  SER87       0.2020
    107  C         33.2700  -35.6080    0.8610 C.2    87  SER87       0.2619
    108  O         33.8410  -34.7280    0.2160 O.2    87  SER87      -0.2717
    109  CB        30.8790  -35.6960    0.1230 C.3    87  SER87       0.2103
    110  OG        30.4520  -35.2830    1.4050 O.3    87  SER87      -0.2182
    111  N         33.5360  -35.8500    2.1390 N.am   88  ILE88      -0.1966
    112  CA        34.6090  -35.1590    2.8320 C.3    88  ILE88       0.1712
    113  C         35.9210  -35.6670    2.2550 C.2    88  ILE88       0.2458
    114  O         36.0940  -36.8740    2.0830 O.2    88  ILE88      -0.2730
    115  CB        34.5570  -35.3900    4.3660 C.3    88  ILE88       0.0289
    116  CG1       33.1710  -35.0250    4.9170 C.3    88  ILE88       0.0022
    117  CG2       35.6620  -34.5970    5.0740 C.3    88  ILE88       0.0023
    118  CD1       32.8310  -35.6180    6.2790 C.3    88  ILE88       0.0001
    119  N         36.8290  -34.7450    1.9040 N.am   89  PRO89      -0.2727
    120  CA        38.1700  -35.1300    1.4760 C.3    89  PRO89       0.1402
    121  C         38.9350  -35.9030    2.5620 C.2    89  PRO89       0.2269
    122  O         39.0020  -35.4710    3.7190 O.2    89  PRO89      -0.2865
    123  CB        38.8390  -33.7870    1.1730 C.3    89  PRO89       0.0296
    124  CG        37.7020  -32.8810    0.8170 C.3    89  PRO89       0.0237
    125  CD        36.5710  -33.3090    1.6920 C.3    89  PRO89       0.0939
    126  N         41.1050  -34.8630    5.4730 N.3    92  PHE92      -0.1241
    127  CA        40.3990  -34.3450    6.6540 C.3    92  PHE92       0.1605
    128  C         39.8260  -35.4790    7.5150 C.2    92  PHE92       0.2264
    129  O         39.5390  -35.2770    8.7010 O.2    92  PHE92      -0.2867
    130  CB        39.2780  -33.3680    6.2560 C.3    92  PHE92       0.0534
    131  CG        39.7360  -32.2220    5.3840 C.ar   92  PHE92      -0.0203
    132  CD1       40.7960  -31.3990    5.7770 C.ar   92  PHE92      -0.0042
    133  CD2       39.0900  -31.9540    4.1780 C.ar   92  PHE92      -0.0042
    134  CE1       41.2140  -30.3460    4.9670 C.ar   92  PHE92      -0.0003
    135  CE2       39.4970  -30.9000    3.3660 C.ar   92  PHE92      -0.0003
    136  CZ        40.5580  -30.0960    3.7580 C.ar   92  PHE92      -0.0000
    137  N         38.1690  -36.8790   11.1840 N.3    95  LEU95      -0.1245
    138  CA        37.9830  -35.4960   11.6220 C.3    95  LEU95       0.1561
    139  C         38.7720  -35.1740   12.8920 C.2    95  LEU95       0.2260
    140  O         38.3380  -35.4820   14.0080 O.2    95  LEU95      -0.2867
    141  CB        36.4880  -35.1700   11.7860 C.3    95  LEU95       0.0270
    142  CG        35.6790  -35.0330   10.4830 C.3    95  LEU95       0.0019
    143  CD1       34.2720  -35.6080   10.6060 C.3    95  LEU95       0.0001
    144  CD2       35.6410  -33.5890    9.9880 C.3    95  LEU95       0.0001
    145  N         26.4270  -33.3150   12.1230 N.3   140  LEU140     -0.1245
    146  CA        26.9550  -32.6880   10.9110 C.3   140  LEU140      0.1561
    147  C         26.0520  -32.9130    9.7110 C.2   140  LEU140      0.2260
    148  O         26.3390  -32.4260    8.6140 O.2   140  LEU140     -0.2867
    149  CB        28.3410  -33.2350   10.5710 C.3   140  LEU140      0.0270
    150  CG        29.3890  -33.4580   11.6570 C.3   140  LEU140      0.0019
    151  CD1       30.7560  -33.6840   11.0140 C.3   140  LEU140      0.0001
    152  CD2       29.4420  -32.3050   12.6580 C.3   140  LEU140      0.0001
    153  N         19.5730  -35.1100    9.1270 N.3   146  TYR146     -0.1241
    154  CA        18.8930  -33.9650    9.7240 C.3   146  TYR146      0.1605
    155  C         17.4180  -34.2600    9.8160 C.2   146  TYR146      0.2264
    156  O         16.7980  -34.1090   10.8670 O.2   146  TYR146     -0.2867
    157  CB        19.0470  -32.7180    8.8490 C.3   146  TYR146      0.0534
    158  CG        20.4140  -32.0750    8.8260 C.ar  146  TYR146     -0.0201
    159  CD1       21.0600  -31.7100   10.0040 C.ar  146  TYR146     -0.0009
    160  CD2       21.0430  -31.7850    7.6080 C.ar  146  TYR146     -0.0009
    161  CE1       22.3070  -31.1100    9.9740 C.ar  146  TYR146      0.0417
    162  CE2       22.3000  -31.1770    7.5700 C.ar  146  TYR146      0.0417
    163  CZ        22.9170  -30.8420    8.7590 C.ar  146  TYR146      0.1957
    164  OH        24.1500  -30.2460    8.7360 O.3   146  TYR146     -0.2866
    165  N         24.3050  -21.6470    9.9360 N.3   161  THR161     -0.1218
    166  CA        25.0120  -20.6380    9.1450 C.3   161  THR161      0.1862
    167  C         24.1560  -20.2240    7.9680 C.2   161  THR161      0.2287
    168  O         23.7980  -21.0610    7.1510 O.2   161  THR161     -0.2866
    169  CB        26.3220  -21.1650    8.5590 C.3   161  THR161      0.1770
    170  OG1       27.1830  -21.6640    9.5950 O.3   161  THR161     -0.2211
    171  CG2       27.0260  -20.0560    7.7850 C.3   161  THR161      0.0375
@<TRIPOS>BOND
     1    57    56    1
     2    56    55    1
     3    55    54    1
     4    54    53    1
     5    26    24    1
     6    53    50    1
     7    24    25    1
     8    24    21    1
     9    50    49    1
    10    50    51    1
    11    49    37   am
    12    20    21    1
    13    30    29    2
    14    37    36    1
    15    37    38    2
    16    36    35    1
    17    36    39    1
    18    21    22    1
    19    51    52    2
    20    29    28    1
    21    22    23    2
    22    22    27   am
    23    39    40    1
    24    27    28    1
    25    28    31    1
    26    40    42   ar
    27    40    41   ar
    28    31    32    1
    29    45    42   ar
    30    45    47   ar
    31   109   106    1
    32   109   110    1
    33    42    44   ar
    34    41    43   ar
    35   108   107    2
    36   106   107    1
    37   106   105    1
    38   124   123    1
    39   124   125    1
    40    47    48   ar
    41   107   111   am
    42    32    33    1
    43    32    34    1
    44   123   120    1
    45    44    43   ar
    46    44    46   ar
    47   120   119    1
    48   120   121    1
    49   125   119    1
    50   119   113   am
    51    48    46   ar
    52   114   113    2
    53   111   112    1
    54   113   112    1
    55   121   122    2
    56   112   115    1
    57    97    98    1
    58   135   136   ar
    59   135   133   ar
    60   100    99    2
    61    73    72    1
    62   136   134   ar
    63    98    99    1
    64    98   101    1
    65   133   131   ar
    66   115   116    1
    67   115   117    1
    68    18    17    2
    69   116   118    1
    70   134   132   ar
    71    72    71    1
    72   101   102    1
    73    71    70    1
    74   103   102    2
    75   131   132   ar
    76   131   130    1
    77    17    16    1
    78   126   127    1
    79   102   104   am
    80    19    16    1
    81   130   127    1
    82    65    63   ar
    83    16    15    1
    84    62    63    1
    85    62    59    1
    86    70    67    1
    87   127   128    1
    88    63    64   ar
    89   168   167    2
    90    58    59    1
    91    15    11   am
    92    66    67    1
    93    66    60   am
    94   128   129    2
    95   162   160   ar
    96   162   163   ar
    97   160   158   ar
    98    59    60    1
    99    67    68    1
   100   171   169    1
   101   167   166    1
   102    60    61    2
   103   169   166    1
   104   169   170    1
   105   148   147    2
   106    11    10    1
   107    11    12    2
   108   164   163    1
   109   163   161   ar
   110    13    10    1
   111    13    14    1
   112   158   157    1
   113   158   159   ar
   114   157   154    1
   115    68    69    2
   116   153   154    1
   117   166   165    1
   118    10     9    1
   119   147   146    1
   120   154   155    1
   121   155   156    2
   122    95    93   ar
   123    95    96   ar
   124    93    91   ar
   125   161   159   ar
   126   144   142    1
   127    96    94   ar
   128   142   143    1
   129   142   141    1
   130   149   146    1
   131   149   150    1
   132    91    90    1
   133    91    92   ar
   134    90    87    1
   135     4     3    2
   136     9     3   am
   137   146   145    1
   138   151   150    1
   139    94    92   ar
   140   137   138    1
   141     3     2    1
   142    74    75    1
   143   138   141    1
   144   138   139    1
   145   150   152    1
   146    86    87    1
   147    86    76   am
   148    78    75    1
   149    78    79    1
   150    87    88    1
   151    75    76    1
   152    88    89    2
   153   139   140    2
   154     2     5    1
   155     2     1    1
   156    76    77    2
   157    81    79   ar
   158    81    83   ar
   159     7     5    1
   160     6     8    1
   161     6     5    1
   162    79    80   ar
   163    83    84   ar
   164    80    82   ar
   165    84    82   ar
   166    84    85    1
