@<TRIPOS>MOLECULE
tmp/4dprA00.pdb
 165 159 0 0 0
SMALL
GASTEIGER

@<TRIPOS>ATOM
      1  N          6.0210    3.7510   -3.8430 N.3   133  GLN133     -0.1245
      2  CA         6.9280    3.3380   -2.7800 C.3   133  GLN133      0.1566
      3  C          8.0800    2.5230   -3.3900 C.2   133  GLN133      0.2260
      4  O          7.8350    1.6290   -4.1440 O.2   133  GLN133     -0.2867
      5  CB         6.1740    2.5200   -1.7180 C.3   133  GLN133      0.0367
      6  CG         6.9830    2.3230   -0.4470 C.3   133  GLN133      0.0905
      7  CD         6.1960    1.6670    0.7460 C.2   133  GLN133      0.2608
      8  OE1        5.2770    0.8720    0.5730 O.2   133  GLN133     -0.2717
      9  NE2        6.5800    2.0140    1.9390 N.am  133  GLN133     -0.0878
     10  N          3.6260   -5.9500   -8.2020 N.3   263  PRO263     -0.2102
     11  CA         4.8780   -6.5850   -7.6810 C.3   263  PRO263      0.1504
     12  C          4.8770   -7.0880   -6.2370 C.2   263  PRO263      0.2576
     13  O          5.7570   -7.8900   -5.8650 O.2   263  PRO263     -0.2718
     14  CB         5.9970   -5.5310   -7.9700 C.3   263  PRO263      0.0282
     15  CG         5.3020   -4.2690   -8.3540 C.3   263  PRO263      0.0208
     16  CD         3.8590   -4.6030   -8.7560 C.3   263  PRO263      0.0893
     17  N          3.8690   -6.6920   -5.4570 N.am  264  TYR264     -0.1963
     18  CA         3.8330   -6.9700   -4.0360 C.3   264  TYR264      0.1771
     19  C          2.4720   -7.6540   -3.6320 C.2   264  TYR264      0.2620
     20  O          1.5180   -7.7530   -4.4440 O.2   264  TYR264     -0.2715
     21  CB         4.0970   -5.6600   -3.2250 C.3   264  TYR264      0.0574
     22  CG         5.4140   -4.9340   -3.5740 C.ar  264  TYR264     -0.0198
     23  CD1        6.6500   -5.3770   -3.0990 C.ar  264  TYR264     -0.0009
     24  CD2        5.4150   -3.7820   -4.3720 C.ar  264  TYR264     -0.0009
     25  CE1        7.8730   -4.6840   -3.4260 C.ar  264  TYR264      0.0417
     26  CE2        6.6370   -3.0790   -4.6980 C.ar  264  TYR264      0.0417
     27  CZ         7.8310   -3.5350   -4.2010 C.ar  264  TYR264      0.1957
     28  OH         8.9810   -2.8620   -4.5230 O.3   264  TYR264     -0.2866
     29  N          2.3960   -8.0830   -2.3850 N.am  265  GLY265     -0.1940
     30  CA         1.1600   -8.6870   -1.8740 C.3   265  GLY265      0.2014
     31  C          0.1140   -7.5760   -1.7930 C.2   265  GLY265      0.2639
     32  O         -1.0830   -7.7350   -2.1980 O.2   265  GLY265     -0.2714
     33  N          0.5910   -6.4270   -1.3320 N.am  266  GLY266     -0.1939
     34  CA        -0.3170   -5.2990   -1.0470 C.3   266  GLY266      0.2014
     35  C          0.4440   -3.9850   -1.0940 C.2   266  GLY266      0.2639
     36  O          1.6520   -3.9880   -1.0050 O.2   266  GLY266     -0.2714
     37  N         -0.2600   -2.8950   -1.3220 N.am  267  MET267     -0.1963
     38  CA         0.3350   -1.5510   -1.1540 C.3   267  MET267      0.1736
     39  C         -0.7370   -0.7320   -0.4270 C.2   267  MET267      0.2616
     40  O         -1.8800   -0.6140   -0.9230 O.2   267  MET267     -0.2715
     41  CB         0.7030   -0.8650   -2.4930 C.3   267  MET267      0.0427
     42  CG         1.1450    0.6180   -2.2440 C.3   267  MET267      0.0599
     43  SD         2.6370    0.5920   -1.2040 S.3   267  MET267     -0.1393
     44  CE         2.4110    2.1730   -0.3760 C.3   267  MET267      0.0692
     45  N         -0.3780   -0.1680    0.7400 N.am  268  GLU268     -0.1977
     46  CA        -1.3570    0.4870    1.6370 C.3   268  GLU268      0.1602
     47  C         -1.8660    1.9020    1.2130 C.2   268  GLU268      0.2287
     48  O         -2.0690    2.7800    2.0760 O.2   268  GLU268     -0.2864
     49  CB        -0.7820    0.5320    3.0780 C.3   268  GLU268      0.0415
     50  CG         0.4960    1.4750    3.2450 C.3   268  GLU268      0.1163
     51  CD         1.8490    0.7900    2.9740 C.2   268  GLU268      0.3649
     52  OE1        2.8740    1.2860    3.4920 O.co2 268  GLU268     -0.2457
     53  OE2        1.9410   -0.2290    2.2720 O.co2 268  GLU268     -0.2457
     54  N         -4.4760  -12.5470    5.8200 N.3   288  ASN288     -0.1225
     55  CA        -3.5200  -11.8000    6.6090 C.3   288  ASN288      0.1785
     56  C         -2.9130  -10.6290    5.8280 C.2   288  ASN288      0.2597
     57  O         -2.4600   -9.6280    6.4040 O.2   288  ASN288     -0.2718
     58  CB        -2.4050  -12.7150    7.1430 C.3   288  ASN288      0.1169
     59  CG        -1.4190  -13.1190    6.0680 C.2   288  ASN288      0.2627
     60  OD1       -1.7430  -13.8780    5.2210 O.2   288  ASN288     -0.2716
     61  ND2       -0.2320  -12.5190    6.0600 N.am  288  ASN288     -0.0877
     62  N         -2.9070  -10.7270    4.5190 N.am  289  VAL289     -0.1980
     63  CA        -2.3910   -9.5780    3.7240 C.3   289  VAL289      0.1595
     64  C         -3.3760   -8.4260    3.7780 C.2   289  VAL289      0.2287
     65  O         -2.9540   -7.2730    3.7570 O.2   289  VAL289     -0.2864
     66  CB        -2.1350   -9.9760    2.3090 C.3   289  VAL289      0.0276
     67  CG1       -1.6370   -8.7750    1.4720 C.3   289  VAL289      0.0022
     68  CG2       -1.1110  -11.1850    2.3010 C.3   289  VAL289      0.0022
     69  N         -2.7230   -6.8440    7.2880 N.3   292  HIS292     -0.1226
     70  CA        -1.5060   -6.0440    7.1780 C.3   292  HIS292      0.1752
     71  C         -1.8100   -4.7080    6.4790 C.2   292  HIS292      0.2595
     72  O         -1.4160   -3.6800    6.9930 O.2   292  HIS292     -0.2718
     73  CB        -0.4700   -6.8510    6.4020 C.3   292  HIS292      0.0759
     74  CG         0.8620   -6.1670    6.2220 C.ar  292  HIS292      0.0818
     75  ND1        1.9860   -6.5300    6.9430 N.ar  292  HIS292     -0.2268
     76  CD2        1.2670   -5.2030    5.3510 C.ar  292  HIS292      0.1154
     77  CE1        3.0090   -5.8030    6.5420 C.ar  292  HIS292      0.1986
     78  NE2        2.5970   -4.9820    5.5980 N.ar  292  HIS292     -0.2212
     79  N         -2.4830   -4.7140    5.3150 N.am  293  GLU293     -0.1979
     80  CA        -2.7560   -3.4630    4.6150 C.3   293  GLU293      0.1602
     81  C         -3.6060   -2.5180    5.4570 C.2   293  GLU293      0.2287
     82  O         -3.3870   -1.2910    5.4740 O.2   293  GLU293     -0.2864
     83  CB        -3.4390   -3.7480    3.2470 C.3   293  GLU293      0.0415
     84  CG        -2.5870   -4.5310    2.3470 C.3   293  GLU293      0.1163
     85  CD        -1.1270   -3.9930    2.2980 C.2   293  GLU293      0.3649
     86  OE1       -0.9160   -2.7690    2.1440 O.co2 293  GLU293     -0.2457
     87  OE2       -0.1910   -4.8080    2.4030 O.co2 293  GLU293     -0.2457
     88  N         -1.5500   -0.7150    8.3030 N.3   296  HIS296     -0.1241
     89  CA        -0.7730    0.4250    7.7640 C.3   296  HIS296      0.1621
     90  C         -1.5500    1.7390    7.8180 C.2   296  HIS296      0.2264
     91  O         -0.9320    2.8320    7.7440 O.2   296  HIS296     -0.2867
     92  CB        -0.3550    0.1950    6.2900 C.3   296  HIS296      0.0745
     93  CG         0.9560   -0.4930    6.1310 C.ar  296  HIS296      0.0817
     94  ND1        2.1000   -0.0430    6.7310 N.ar  296  HIS296     -0.2268
     95  CD2        1.3160   -1.5610    5.3760 C.ar  296  HIS296      0.1154
     96  CE1        3.1030   -0.8450    6.4040 C.ar  296  HIS296      0.1986
     97  NE2        2.6640   -1.7240    5.5350 N.ar  296  HIS296     -0.2212
     98  N          7.1270   -1.2980    8.6890 N.3   315  GLU315     -0.1245
     99  CA         6.7260   -2.7040    8.4110 C.3   315  GLU315      0.1567
    100  C          6.6550   -3.5790    9.6310 C.2   315  GLU315      0.2260
    101  O          5.7590   -4.4460    9.7470 O.2   315  GLU315     -0.2867
    102  CB         7.6380   -3.3470    7.3480 C.3   315  GLU315      0.0388
    103  CG         7.4920   -2.5790    5.9860 C.3   315  GLU315      0.1160
    104  CD         6.0970   -2.6260    5.4280 C.2   315  GLU315      0.3649
    105  OE1        5.3070   -3.4760    5.8510 O.co2 315  GLU315     -0.2457
    106  OE2        5.7610   -1.8100    4.5670 O.co2 315  GLU315     -0.2457
    107  N         -0.9620   -6.7520   12.3440 N.3   322  GLU322     -0.1245
    108  CA        -1.4570   -7.7700   11.4630 C.3   322  GLU322      0.1567
    109  C         -1.6310   -9.0820   12.2230 C.2   322  GLU322      0.2260
    110  O         -2.7050   -9.7300   12.0980 O.2   322  GLU322     -0.2867
    111  CB        -0.5160   -7.9540   10.2800 C.3   322  GLU322      0.0388
    112  CG        -0.6810   -9.2860    9.5410 C.3   322  GLU322      0.1160
    113  CD         0.5070   -9.6400    8.6650 C.2   322  GLU322      0.3649
    114  OE1        1.4300   -8.7790    8.4320 O.co2 322  GLU322     -0.2457
    115  OE2        0.5390  -10.8330    8.2220 O.co2 322  GLU322     -0.2457
    116  N         15.1630   -3.9970   -0.7540 N.3   375  TYR375     -0.1241
    117  CA        13.8750   -4.4900   -0.2270 C.3   375  TYR375      0.1605
    118  C         13.9450   -6.0350    0.0350 C.2   375  TYR375      0.2264
    119  O         14.4520   -6.7760   -0.8270 O.2   375  TYR375     -0.2867
    120  CB        12.7020   -4.0920   -1.1590 C.3   375  TYR375      0.0534
    121  CG        11.3450   -4.6530   -0.6900 C.ar  375  TYR375     -0.0201
    122  CD1       10.5620   -3.9730    0.2530 C.ar  375  TYR375     -0.0009
    123  CD2       10.8780   -5.8710   -1.1800 C.ar  375  TYR375     -0.0009
    124  CE1        9.3450   -4.4830    0.6550 C.ar  375  TYR375      0.0417
    125  CE2        9.6490   -6.3960   -0.7850 C.ar  375  TYR375      0.0417
    126  CZ         8.9050   -5.7180    0.1570 C.ar  375  TYR375      0.1957
    127  OH         7.6810   -6.2430    0.5640 O.3   375  TYR375     -0.2866
    128  N         12.2930   -9.2500    3.2970 N.3   377  SER377     -0.1217
    129  CA        11.4660   -9.5750    4.4750 C.3   377  SER377      0.1889
    130  C         12.1480   -9.1750    5.7640 C.2   377  SER377      0.2288
    131  O         11.5640   -9.2790    6.8460 O.2   377  SER377     -0.2866
    132  CB        11.1980  -11.0810    4.5280 C.3   377  SER377      0.2089
    133  OG        11.1140  -11.6120    3.2270 O.3   377  SER377     -0.2183
    134  N         10.4190   -6.5090    7.9270 N.3   380  TYR380     -0.1241
    135  CA         9.1280   -7.1120    8.3870 C.3   380  TYR380      0.1605
    136  C          9.3360   -8.0210    9.5700 C.2   380  TYR380      0.2264
    137  O          8.6640   -7.8560   10.6060 O.2   380  TYR380     -0.2867
    138  CB         8.5100   -7.9970    7.2850 C.3   380  TYR380      0.0534
    139  CG         8.0910   -7.1890    6.1020 C.ar  380  TYR380     -0.0201
    140  CD1        9.0270   -6.8340    5.0750 C.ar  380  TYR380     -0.0009
    141  CD2        6.7760   -6.8180    5.9400 C.ar  380  TYR380     -0.0009
    142  CE1        8.6480   -6.0770    3.9650 C.ar  380  TYR380      0.0417
    143  CE2        6.3620   -6.0390    4.8170 C.ar  380  TYR380      0.0417
    144  CZ         7.3120   -5.6780    3.8250 C.ar  380  TYR380      0.1957
    145  OH         6.9080   -4.9470    2.6930 O.3   380  TYR380     -0.2866
    146  N          4.1150  -11.1840   -8.8070 N.3   560  ARG560     -0.1245
    147  CA         4.4120  -10.8950   -7.3950 C.3   560  ARG560      0.1563
    148  C          5.8630  -11.3250   -7.1250 C.2   560  ARG560      0.2260
    149  O          6.2080  -12.5150   -7.2920 O.2   560  ARG560     -0.2867
    150  CB         3.4730  -11.6310   -6.4830 C.3   560  ARG560      0.0307
    151  CG         3.5150  -11.1970   -5.0900 C.3   560  ARG560      0.0489
    152  CD         2.4610  -11.9530   -4.3270 C.3   560  ARG560      0.2205
    153  NE         2.5280  -11.7420   -2.8800 N.pl3 560  ARG560     -0.0865
    154  CZ         1.7220  -12.3150   -1.9890 C.cat 560  ARG560      0.5346
    155  NH1        0.7250  -13.1140   -2.3660 N.pl3 560  ARG560      0.1354
    156  NH2        1.9040  -12.0860   -0.7020 N.pl3 560  ARG560      0.1354
    157  N          7.7830  -11.7480   -4.6010 N.3   562  LYS562     -0.1245
    158  CA         7.9020  -12.8270   -3.5880 C.3   562  LYS562      0.1561
    159  C          7.9260  -14.2250   -4.2150 C.2   562  LYS562      0.2260
    160  O          8.6100  -15.1360   -3.7380 O.2   562  LYS562     -0.2867
    161  CB         6.6800  -12.7560   -2.6330 C.3   562  LYS562      0.0271
    162  CG         6.6800  -13.7350   -1.5470 C.3   562  LYS562      0.0035
    163  CD         5.3500  -13.7710   -0.8000 C.3   562  LYS562      0.0206
    164  CE         5.6050  -14.5750    0.3910 C.3   562  LYS562      0.1093
    165  NZ         4.4200  -14.6430    1.3040 N.3   562  LYS562     -0.1314
@<TRIPOS>BOND
     1   146   147    1
     2    16    15    1
     3    16    10    1
     4    15    14    1
     5    10    11    1
     6    14    11    1
     7    11    12    1
     8   147   148    1
     9   147   150    1
    10   149   148    2
    11   150   151    1
    12    12    13    2
    13    12    17   am
    14    17    18    1
    15   151   152    1
    16    26    24   ar
    17    26    27   ar
    18   157   158    1
    19    28    27    1
    20    20    19    2
    21    24    22   ar
    22   152   153    1
    23   159   160    2
    24   159   158    1
    25    27    25   ar
    26     4     3    2
    27    18    19    1
    28    18    21    1
    29     1     2    1
    30    19    29   am
    31   158   161    1
    32    22    21    1
    33    22    23   ar
    34    25    23   ar
    35     3     2    1
    36   153   154    2
    37     2     5    1
    38   161   162    1
    39    41    42    1
    40    41    38    1
    41    29    30    1
    42   155   154    1
    43    42    43    1
    44    32    31    2
    45   154   156    1
    46    30    31    1
    47    31    33   am
    48     5     6    1
    49   162   163    1
    50    33    34    1
    51    37    38    1
    52    37    35   am
    53    43    44    1
    54   123   125   ar
    55   123   121   ar
    56   120   121    1
    57   120   117    1
    58    38    39    1
    59    35    34    1
    60    35    36    2
    61    40    39    2
    62   119   118    2
    63   163   164    1
    64   125   126   ar
    65   116   117    1
    66   121   122   ar
    67     6     7    1
    68    39    45   am
    69   117   118    1
    70   126   127    1
    71   126   124   ar
    72   122   124   ar
    73   164   165    1
    74     8     7    2
    75    45    46    1
    76     7     9   am
    77    47    46    1
    78    47    48    2
    79    67    66    1
    80    46    49    1
    81    86    85   ar
    82    53    51   ar
    83    85    84    1
    84    85    87   ar
    85    68    66    1
    86    66    63    1
    87    84    83    1
    88   145   144    1
    89    51    50    1
    90    51    52   ar
    91    49    50    1
    92   133   132    1
    93    83    80    1
    94   128   129    1
    95    63    64    1
    96    63    62    1
    97    65    64    2
    98   144   142   ar
    99   144   143   ar
   100   142   140   ar
   101   129   132    1
   102   129   130    1
   103    62    56   am
   104   106   104   ar
   105    80    79    1
   106    80    81    1
   107   143   141   ar
   108   140   139   ar
   109    60    59    2
   110    79    71   am
   111    76    78   ar
   112    76    74   ar
   113    95    97   ar
   114    95    93   ar
   115   104   105   ar
   116   104   103    1
   117    81    82    2
   118    97    96   ar
   119    78    77   ar
   120   130   131    2
   121    54    55    1
   122    56    57    2
   123    56    55    1
   124   141   139   ar
   125   103   102    1
   126    61    59   am
   127    59    58    1
   128   139   138    1
   129    93    92    1
   130    93    94   ar
   131    74    73    1
   132    74    75   ar
   133    92    89    1
   134    73    70    1
   135    96    94   ar
   136    71    72    2
   137    71    70    1
   138    77    75   ar
   139    55    58    1
   140    70    69    1
   141   138   135    1
   142   102    99    1
   143    91    90    2
   144    89    90    1
   145    89    88    1
   146   134   135    1
   147   115   113   ar
   148   135   136    1
   149    99    98    1
   150    99   100    1
   151   114   113   ar
   152   113   112    1
   153   112   111    1
   154   136   137    2
   155   100   101    2
   156   111   108    1
   157   108   109    1
   158   108   107    1
   159   110   109    2
