@<TRIPOS>MOLECULE
tmp/4dpuA00.pdb
 143 134 0 0 0
SMALL
GASTEIGER

@<TRIPOS>ATOM
      1  N         23.6070  -27.6810  -21.1960 N.3    15  ASN15      -0.1240
      2  CA        23.0070  -28.4330  -20.0980 C.3    15  ASN15       0.1653
      3  C         21.4890  -28.4080  -20.2410 C.2    15  ASN15       0.2266
      4  O         20.9230  -27.4870  -20.8450 O.2    15  ASN15      -0.2867
      5  CB        23.4370  -27.8560  -18.7410 C.3    15  ASN15       0.1155
      6  CG        22.6940  -26.5830  -18.3890 C.2    15  ASN15       0.2627
      7  OD1       21.5610  -26.6270  -17.8990 O.2    15  ASN15      -0.2716
      8  ND2       23.3330  -25.4340  -18.6160 N.am   15  ASN15      -0.0877
      9  N         17.8280  -28.7520  -18.1460 N.3    17  ALA17      -0.1245
     10  CA        17.2410  -28.6420  -16.8240 C.3    17  ALA17       0.1562
     11  C         16.3210  -29.8250  -16.5640 C.2    17  ALA17       0.2260
     12  O         15.4220  -30.1150  -17.3690 O.2    17  ALA17      -0.2867
     13  CB        16.4720  -27.3400  -16.6910 C.3    17  ALA17       0.0290
     14  N         13.0200  -27.2780  -13.5620 N.3    20  LYS20      -0.1231
     15  CA        13.0710  -26.1300  -14.4620 C.3    20  LYS20       0.1693
     16  C         13.2550  -24.7700  -13.7930 C.2    20  LYS20       0.2592
     17  O         12.6900  -24.4760  -12.7350 O.2    20  LYS20      -0.2718
     18  CB        11.8180  -26.0630  -15.3370 C.3    20  LYS20       0.0285
     19  CG        11.4930  -27.3450  -16.0920 C.3    20  LYS20       0.0035
     20  CD        12.6050  -27.7270  -17.0670 C.3    20  LYS20       0.0206
     21  CE        12.0780  -28.7020  -18.1130 C.3    20  LYS20       0.1093
     22  NZ        13.1660  -29.3340  -18.9340 N.3    20  LYS20      -0.1314
     23  N         14.0630  -23.9480  -14.4470 N.am   21  TYR21      -0.1962
     24  CA        14.0420  -22.5040  -14.2540 C.3    21  TYR21       0.1771
     25  C         12.9500  -21.9640  -15.1540 C.2    21  TYR21       0.2619
     26  O         12.9850  -22.1790  -16.3580 O.2    21  TYR21      -0.2715
     27  CB        15.4130  -21.9650  -14.6590 C.3    21  TYR21       0.0574
     28  CG        15.4840  -20.5440  -15.1840 C.ar   21  TYR21      -0.0198
     29  CD1       14.8780  -19.4860  -14.5180 C.ar   21  TYR21      -0.0009
     30  CD2       16.2280  -20.2650  -16.3260 C.ar   21  TYR21      -0.0009
     31  CE1       14.9950  -18.1770  -14.9950 C.ar   21  TYR21       0.0417
     32  CE2       16.3510  -18.9880  -16.8050 C.ar   21  TYR21       0.0417
     33  CZ        15.7490  -17.9430  -16.1430 C.ar   21  TYR21       0.1957
     34  OH        15.9040  -16.6790  -16.6720 O.3    21  TYR21      -0.2866
     35  N         11.9610  -21.2810  -14.5860 N.am   22  TRP22      -0.1974
     36  CA        10.8720  -20.7430  -15.3950 C.3    22  TRP22       0.1640
     37  C         10.2830  -19.5180  -14.7060 C.2    22  TRP22       0.2290
     38  O          9.4630  -19.6390  -13.7900 O.2    22  TRP22      -0.2864
     39  CB         9.8040  -21.8350  -15.6670 C.3    22  TRP22       0.0576
     40  CG         8.8490  -21.5110  -16.8020 C.ar   22  TRP22       0.0006
     41  CD1        7.4950  -21.3260  -16.7180 C.ar   22  TRP22       0.0946
     42  CD2        9.1940  -21.2970  -18.1810 C.ar   22  TRP22       0.0152
     43  NE1        6.9750  -21.0310  -17.9640 N.ar   22  TRP22      -0.2442
     44  CE2        7.9980  -21.0080  -18.8750 C.ar   22  TRP22       0.0810
     45  CE3       10.3940  -21.3420  -18.8970 C.ar   22  TRP22       0.0012
     46  CZ2        7.9710  -20.7530  -20.2400 C.ar   22  TRP22       0.0191
     47  CZ3       10.3620  -21.0940  -20.2630 C.ar   22  TRP22       0.0001
     48  CH2        9.1620  -20.7940  -20.9150 C.ar   22  TRP22       0.0015
     49  N         11.5520  -15.0670  -14.0020 N.3    24  LYS24      -0.1245
     50  CA        12.5910  -14.2680  -13.3320 C.3    24  LYS24       0.1561
     51  C         11.9960  -13.4050  -12.2240 C.2    24  LYS24       0.2260
     52  O         10.9310  -12.8050  -12.3880 O.2    24  LYS24      -0.2867
     53  CB        13.2900  -13.3250  -14.3260 C.3    24  LYS24       0.0271
     54  CG        14.0210  -13.9940  -15.4820 C.3    24  LYS24       0.0035
     55  CD        14.6800  -12.9550  -16.3910 C.3    24  LYS24       0.0206
     56  CE        15.5380  -13.6400  -17.4560 C.3    24  LYS24       0.1093
     57  NZ        14.7260  -14.6140  -18.3010 N.3    24  LYS24      -0.1314
     58  N         18.7820  -11.0020  -14.2140 N.3    30  ILE30      -0.1245
     59  CA        18.4750  -12.4250  -14.3850 C.3    30  ILE30       0.1561
     60  C         18.5940  -13.2000  -13.0660 C.2    30  ILE30       0.2260
     61  O         19.4890  -14.0200  -12.8750 O.2    30  ILE30      -0.2867
     62  CB        19.3000  -13.0850  -15.5160 C.3    30  ILE30       0.0252
     63  CG1       19.1160  -12.3100  -16.8230 C.3    30  ILE30       0.0019
     64  CG2       18.8670  -14.5430  -15.7200 C.3    30  ILE30       0.0019
     65  CD1       19.7350  -13.0070  -18.0600 C.3    30  ILE30       0.0001
     66  N         22.1520  -20.8800  -25.8600 N.3   110  SER110     -0.1217
     67  CA        22.5020  -19.7480  -24.9940 C.3   110  SER110      0.1889
     68  C         23.2560  -20.1550  -23.7260 C.2   110  SER110      0.2288
     69  O         24.0820  -19.3970  -23.2430 O.2   110  SER110     -0.2866
     70  CB        21.2650  -18.9230  -24.6290 C.3   110  SER110      0.2089
     71  OG        20.6150  -19.4970  -23.5190 O.3   110  SER110     -0.2183
     72  N         22.6090  -15.2370  -19.8300 N.3   142  SER142     -0.1202
     73  CA        21.4600  -16.1420  -19.9300 C.3   142  SER142      0.2020
     74  C         21.4010  -16.9880  -18.6640 C.2   142  SER142      0.2619
     75  O         22.4140  -17.5460  -18.2340 O.2   142  SER142     -0.2717
     76  CB        21.5740  -17.0520  -21.1520 C.3   142  SER142      0.2103
     77  OG        20.4900  -17.9810  -21.1760 O.3   142  SER142     -0.2182
     78  N         20.2150  -17.0790  -18.0670 N.am  143  GLY143     -0.1942
     79  CA        20.0700  -17.7550  -16.7840 C.3   143  GLY143      0.2014
     80  C         20.6290  -19.1650  -16.8040 C.2   143  GLY143      0.2639
     81  O         21.3780  -19.5660  -15.9310 O.2   143  GLY143     -0.2714
     82  N         20.2730  -19.9350  -17.8230 N.am  144  SER144     -0.1949
     83  CA        20.7300  -21.3190  -17.8790 C.3   144  SER144      0.1924
     84  C         22.2490  -21.4340  -18.0410 C.2   144  SER144      0.2314
     85  O         22.8240  -22.4720  -17.7580 O.2   144  SER144     -0.2863
     86  CB        20.0180  -22.0750  -19.0030 C.3   144  SER144      0.2116
     87  OG        20.1230  -21.3620  -20.2130 O.3   144  SER144     -0.2180
     88  N         24.6540  -22.5350  -15.1450 N.3   147  ARG147     -0.1245
     89  CA        24.8870  -23.9470  -14.8410 C.3   147  ARG147      0.1563
     90  C         25.9580  -24.5970  -15.6930 C.2   147  ARG147      0.2260
     91  O         26.6070  -25.5380  -15.2540 O.2   147  ARG147     -0.2867
     92  CB        23.5630  -24.7510  -14.9260 C.3   147  ARG147      0.0307
     93  CG        22.4840  -24.2320  -13.9460 C.3   147  ARG147      0.0489
     94  CD        21.1550  -25.0010  -14.0510 C.3   147  ARG147      0.2205
     95  NE        20.7080  -25.1330  -15.4340 N.pl3 147  ARG147     -0.0865
     96  CZ        19.5830  -24.6140  -15.9100 C.cat 147  ARG147      0.5346
     97  NH1       18.7630  -23.9350  -15.1150 N.pl3 147  ARG147      0.1354
     98  NH2       19.2720  -24.7810  -17.1850 N.pl3 147  ARG147      0.1354
     99  N         12.4180  -18.5410  -24.8370 N.3   195  ALA195     -0.1231
    100  CA        12.1960  -18.8690  -23.4320 C.3   195  ALA195      0.1694
    101  C         12.0220  -17.6000  -22.6000 C.2   195  ALA195      0.2591
    102  O         11.2000  -17.5560  -21.6830 O.2   195  ALA195     -0.2718
    103  CB        13.3410  -19.7150  -22.8910 C.3   195  ALA195      0.0304
    104  N         12.8010  -16.5670  -22.9240 N.am  196  ARG196     -0.1980
    105  CA        12.7890  -15.3160  -22.1590 C.3   196  ARG196      0.1597
    106  C         11.4290  -14.6370  -22.2170 C.2   196  ARG196      0.2287
    107  O         10.8960  -14.1970  -21.1940 O.2   196  ARG196     -0.2864
    108  CB        13.8810  -14.3610  -22.6810 C.3   196  ARG196      0.0334
    109  CG        14.0500  -13.0950  -21.8530 C.3   196  ARG196      0.0492
    110  CD        15.3780  -12.3940  -22.1780 C.3   196  ARG196      0.2205
    111  NE        16.5370  -13.2390  -21.8660 N.pl3 196  ARG196     -0.0865
    112  CZ        17.8050  -12.8440  -21.9940 C.cat 196  ARG196      0.5346
    113  NH1       18.0740  -11.6220  -22.4490 N.pl3 196  ARG196      0.1354
    114  NH2       18.8030  -13.6700  -21.6850 N.pl3 196  ARG196      0.1354
    115  N          8.5910  -17.1980  -20.6700 N.3   199  MET199     -0.1245
    116  CA         8.5920  -17.2900  -19.2110 C.3   199  MET199      0.1570
    117  C          8.1500  -15.9720  -18.5930 C.2   199  MET199      0.2261
    118  O          7.5620  -15.9500  -17.5150 O.2   199  MET199     -0.2867
    119  CB         9.9460  -17.7460  -18.6550 C.3   199  MET199      0.0387
    120  CG        11.0640  -16.7030  -18.6870 C.3   199  MET199      0.0595
    121  SD        12.4960  -17.2530  -17.7120 S.3   199  MET199     -0.1393
    122  CE        13.1830  -18.5360  -18.7630 C.3   199  MET199      0.0692
    123  N          5.7050  -27.2380  -15.4580 N.3   246  MET246     -0.1245
    124  CA         6.1900  -26.0360  -16.1470 C.3   246  MET246      0.1570
    125  C          5.3450  -25.7650  -17.3840 C.2   246  MET246      0.2261
    126  O          4.9380  -24.6380  -17.6520 O.2   246  MET246     -0.2867
    127  CB         7.6440  -26.2170  -16.5790 C.3   246  MET246      0.0387
    128  CG         8.3200  -24.9080  -16.9540 C.3   246  MET246      0.0595
    129  SD         9.5550  -25.1290  -18.2330 S.3   246  MET246     -0.1393
    130  CE         8.4680  -25.1580  -19.6620 C.3   246  MET246      0.0692
    131  N         11.6490  -28.4170  -22.9920 N.3   286  ASP286     -0.1225
    132  CA        11.9430  -27.0230  -22.6890 C.3   286  ASP286      0.1805
    133  C         11.0700  -26.0850  -23.5120 C.2   286  ASP286      0.2597
    134  O          9.8760  -26.3500  -23.7050 O.2   286  ASP286     -0.2718
    135  CB        13.4370  -26.7460  -22.8670 C.3   286  ASP286      0.1424
    136  CG        14.2790  -27.5350  -21.8710 C.2   286  ASP286      0.3668
    137  OD1       13.9060  -27.5690  -20.6820 O.co2 286  ASP286     -0.2456
    138  OD2       15.3000  -28.1270  -22.2650 O.co2 286  ASP286     -0.2456
    139  N         11.6430  -24.9820  -23.9820 N.am  287  ALA287     -0.1979
    140  CA        10.8460  -23.9930  -24.7010 C.3   287  ALA287      0.1597
    141  C         10.6980  -24.3570  -26.1740 C.2   287  ALA287      0.2287
    142  O         11.0790  -23.5930  -27.0640 O.2   287  ALA287     -0.2864
    143  CB        11.4500  -22.5860  -24.5320 C.3   287  ALA287      0.0319
@<TRIPOS>BOND
     1   142   141    2
     2   141   140    1
     3    66    67    1
     4    67    70    1
     5    67    68    1
     6    99   100    1
     7   140   143    1
     8   140   139    1
     9    70    71    1
    10   139   133   am
    11    68    69    2
    12   134   133    2
    13   133   132    1
    14   100   103    1
    15   100   101    1
    16   131   132    1
    17   104   101   am
    18   104   105    1
    19   135   132    1
    20   135   136    1
    21   108   105    1
    22   108   109    1
    23   101   102    2
    24   113   112    1
    25   138   136   ar
    26   106   105    1
    27   106   107    2
    28   110   111    1
    29   110   109    1
    30   112   111    2
    31   112   114    1
    32   136   137   ar
    33     1     2    1
    34    77    76    1
    35    76    73    1
    36    48    47   ar
    37    48    46   ar
    38     4     3    2
    39   115   116    1
    40    47    45   ar
    41     3     2    1
    42    46    44   ar
    43    87    86    1
    44     2     5    1
    45    73    72    1
    46    73    74    1
    47   130   129    1
    48   116   119    1
    49   116   117    1
    50    86    83    1
    51    22    21    1
    52    45    42   ar
    53    44    42   ar
    54    44    43   ar
    55   122   121    1
    56     5     6    1
    57   120   119    1
    58   120   121    1
    59    74    75    2
    60    74    78   am
    61     8     6   am
    62   117   118    2
    63     6     7    2
    64    57    56    1
    65   129   128    1
    66    42    40   ar
    67     9    10    1
    68    21    20    1
    69    78    79    1
    70    65    63    1
    71    84    83    1
    72    84    85    2
    73    43    41   ar
    74    83    82    1
    75    82    80   am
    76   126   125    2
    77    56    55    1
    78   125   124    1
    79    12    11    2
    80    98    96    1
    81    20    19    1
    82   128   127    1
    83    10    13    1
    84    10    11    1
    85    63    62    1
    86    32    30   ar
    87    32    33   ar
    88    80    79    1
    89    80    81    2
    90    40    41   ar
    91    40    39    1
    92    34    33    1
    93   127   124    1
    94    55    54    1
    95    26    25    2
    96    30    28   ar
    97   124   123    1
    98    33    31   ar
    99    19    18    1
   100    96    95    2
   101    96    97    1
   102    64    62    1
   103    90    91    2
   104    90    89    1
   105    39    36    1
   106    62    59    1
   107    54    53    1
   108    95    94    1
   109    36    37    1
   110    36    35    1
   111    18    15    1
   112    28    27    1
   113    28    29   ar
   114    25    35   am
   115    25    24    1
   116    88    89    1
   117    31    29   ar
   118    92    89    1
   119    92    93    1
   120    37    38    2
   121    27    24    1
   122    15    16    1
   123    15    14    1
   124    23    24    1
   125    23    16   am
   126    59    58    1
   127    59    60    1
   128    53    50    1
   129    94    93    1
   130    49    50    1
   131    16    17    2
   132    50    51    1
   133    60    61    2
   134    52    51    2
