@<TRIPOS>MOLECULE
tmp/4dpuA01.pdb
 183 167 0 0 0
SMALL
GASTEIGER

@<TRIPOS>ATOM
      1  N         29.8500  -25.1810  -27.0910 N.3    46  THR46      -0.1218
      2  CA        30.2020  -23.9740  -27.8170 C.3    46  THR46       0.1862
      3  C         31.6770  -23.7200  -27.5450 C.2    46  THR46       0.2287
      4  O         32.1460  -23.8930  -26.4150 O.2    46  THR46      -0.2866
      5  CB        29.3610  -22.7630  -27.3320 C.3    46  THR46       0.1770
      6  OG1       27.9700  -22.9650  -27.6620 O.3    46  THR46      -0.2211
      7  CG2       29.8640  -21.4590  -27.9540 C.3    46  THR46       0.0375
      8  N         34.4150  -20.6180  -27.7470 N.3    48  THR48      -0.1218
      9  CA        34.4330  -19.1740  -27.9490 C.3    48  THR48       0.1862
     10  C         35.7860  -18.5810  -27.6420 C.2    48  THR48       0.2287
     11  O         36.3320  -18.7960  -26.5620 O.2    48  THR48      -0.2866
     12  CB        33.3700  -18.4790  -27.0770 C.3    48  THR48       0.1770
     13  OG1       32.0840  -18.9400  -27.4850 O.3    48  THR48      -0.2211
     14  CG2       33.4250  -16.9500  -27.2530 C.3    48  THR48       0.0375
     15  N         31.1140   -9.7220  -32.9630 N.3    61  LEU61      -0.1245
     16  CA        30.8910  -11.1580  -32.8240 C.3    61  LEU61       0.1561
     17  C         30.8040  -11.8430  -34.1900 C.2    61  LEU61       0.2260
     18  O         30.0050  -11.4540  -35.0420 O.2    61  LEU61      -0.2867
     19  CB        29.6240  -11.4410  -32.0130 C.3    61  LEU61       0.0270
     20  CG        29.1270  -12.8960  -31.9830 C.3    61  LEU61       0.0019
     21  CD1       30.0940  -13.8330  -31.2710 C.3    61  LEU61       0.0001
     22  CD2       27.7650  -12.9700  -31.3280 C.3    61  LEU61       0.0001
     23  N         29.9390  -15.4330  -35.5850 N.3    63  LEU63      -0.1245
     24  CA        29.3230  -16.6540  -35.0820 C.3    63  LEU63       0.1561
     25  C         29.2460  -17.6970  -36.1850 C.2    63  LEU63       0.2260
     26  O         28.7020  -17.4430  -37.2590 O.2    63  LEU63      -0.2867
     27  CB        27.9380  -16.3530  -34.4800 C.3    63  LEU63       0.0270
     28  CG        27.1420  -17.4780  -33.8060 C.3    63  LEU63       0.0019
     29  CD1       28.0190  -18.3360  -32.8850 C.3    63  LEU63       0.0001
     30  CD2       25.9370  -16.9070  -33.0420 C.3    63  LEU63       0.0001
     31  N         21.9180   -8.5730  -32.6540 N.3    72  GLU72      -0.1245
     32  CA        22.8500   -9.3970  -31.8960 C.3    72  GLU72       0.1567
     33  C         24.1070   -8.6090  -31.5520 C.2    72  GLU72       0.2260
     34  O         24.6900   -8.7870  -30.4840 O.2    72  GLU72      -0.2867
     35  CB        23.2150  -10.6560  -32.6840 C.3    72  GLU72       0.0388
     36  CG        22.2460  -11.8090  -32.4910 C.3    72  GLU72       0.1160
     37  CD        21.8110  -11.9680  -31.0490 C.2    72  GLU72       0.3649
     38  OE1       22.6820  -12.2080  -30.1870 O.co2  72  GLU72      -0.2457
     39  OE2       20.5980  -11.8510  -30.7760 O.co2  72  GLU72      -0.2457
     40  N         23.2550   -6.5710  -28.4860 N.3    75  LYS75      -0.1231
     41  CA        23.2200   -7.4910  -27.3580 C.3    75  LYS75       0.1693
     42  C         24.6170   -7.8620  -26.8590 C.2    75  LYS75       0.2591
     43  O         24.8860   -7.8320  -25.6640 O.2    75  LYS75      -0.2718
     44  CB        22.4540   -8.7600  -27.7300 C.3    75  LYS75       0.0285
     45  CG        22.3810   -9.7780  -26.6030 C.3    75  LYS75       0.0035
     46  CD        21.5310  -10.9840  -26.9800 C.3    75  LYS75       0.0206
     47  CE        21.3940  -11.9390  -25.7950 C.3    75  LYS75       0.1093
     48  NZ        20.9930  -13.3100  -26.2190 N.3    75  LYS75      -0.1314
     49  N         25.5120   -8.2120  -27.7710 N.am   76  ILE76      -0.1980
     50  CA        26.8540   -8.5970  -27.3650 C.3    76  ILE76       0.1595
     51  C         27.6420   -7.4090  -26.8060 C.2    76  ILE76       0.2287
     52  O         28.4470   -7.5590  -25.8860 O.2    76  ILE76      -0.2864
     53  CB        27.6170   -9.2850  -28.5240 C.3    76  ILE76       0.0276
     54  CG1       28.6770  -10.2250  -27.9650 C.3    76  ILE76       0.0022
     55  CG2       28.2280   -8.2580  -29.4770 C.3    76  ILE76       0.0022
     56  CD1       28.0930  -11.3650  -27.1700 C.3    76  ILE76       0.0001
     57  N         35.0510  -11.2700  -30.9060 N.3    95  ILE95      -0.1245
     58  CA        34.6190  -12.5580  -30.3790 C.3    95  ILE95       0.1561
     59  C         34.3600  -13.4870  -31.5510 C.2    95  ILE95       0.2260
     60  O         33.6160  -13.1390  -32.4580 O.2    95  ILE95      -0.2867
     61  CB        33.3570  -12.4130  -29.5410 C.3    95  ILE95       0.0252
     62  CG1       33.5990  -11.4340  -28.3890 C.3    95  ILE95       0.0019
     63  CG2       32.9180  -13.7690  -29.0010 C.3    95  ILE95       0.0019
     64  CD1       32.3420  -10.8080  -27.8520 C.3    95  ILE95       0.0001
     65  N         33.0450  -17.2640  -32.2280 N.3    97  SER97      -0.1217
     66  CA        32.3970  -18.3830  -31.5490 C.3    97  SER97       0.1889
     67  C         31.8290  -19.3580  -32.5530 C.2    97  SER97       0.2288
     68  O         31.3290  -18.9430  -33.5940 O.2    97  SER97      -0.2866
     69  CB        31.2610  -17.8720  -30.6590 C.3    97  SER97       0.2089
     70  OG        30.7600  -18.9250  -29.8480 O.3    97  SER97      -0.2183
     71  N         29.1080  -22.7380  -32.5200 N.3    99  ASN99      -0.1240
     72  CA        28.2100  -23.5950  -31.7550 C.3    99  ASN99       0.1653
     73  C         28.2740  -25.0000  -32.2980 C.2    99  ASN99       0.2266
     74  O         27.9220  -25.2320  -33.4530 O.2    99  ASN99      -0.2867
     75  CB        26.7460  -23.1360  -31.8450 C.3    99  ASN99       0.1155
     76  CG        26.4410  -21.9600  -30.9450 C.2    99  ASN99       0.2627
     77  OD1       27.0850  -21.7670  -29.9090 O.2    99  ASN99      -0.2716
     78  ND2       25.4490  -21.1570  -31.3400 N.am   99  ASN99      -0.0877
     79  N         21.4800  -26.4850  -33.6450 N.3   103  THR103     -0.1218
     80  CA        20.5110  -25.4150  -33.4100 C.3   103  THR103      0.1862
     81  C         19.3880  -25.4100  -34.4510 C.2   103  THR103      0.2287
     82  O         18.2800  -24.9630  -34.1700 O.2   103  THR103     -0.2866
     83  CB        21.1930  -24.0380  -33.3700 C.3   103  THR103      0.1770
     84  OG1       21.9830  -23.8610  -34.5510 O.3   103  THR103     -0.2211
     85  CG2       22.1060  -23.9310  -32.1320 C.3   103  THR103      0.0375
     86  N         16.6510  -27.3190  -33.2570 N.3   106  GLY106     -0.1210
     87  CA        15.9320  -26.7240  -32.1480 C.3   106  GLY106      0.1956
     88  C         16.6280  -26.7790  -30.8000 C.2   106  GLY106      0.2612
     89  O         16.0680  -26.3100  -29.8130 O.2   106  GLY106     -0.2717
     90  N         17.8340  -27.3430  -30.7300 N.am  107  LEU107     -0.1965
     91  CA        18.5180  -27.3590  -29.4350 C.3   107  LEU107      0.1728
     92  C         18.9760  -25.9450  -29.0930 C.2   107  LEU107      0.2616
     93  O         19.3600  -25.1810  -29.9780 O.2   107  LEU107     -0.2715
     94  CB        19.6820  -28.3450  -29.4020 C.3   107  LEU107      0.0311
     95  CG        19.3500  -29.7910  -29.0020 C.3   107  LEU107      0.0022
     96  CD1       18.5160  -30.4780  -30.0640 C.3   107  LEU107      0.0001
     97  CD2       20.6210  -30.5900  -28.7210 C.3   107  LEU107      0.0001
     98  N         18.9170  -25.6040  -27.8050 N.am  108  ALA108     -0.1963
     99  CA        19.2760  -24.2670  -27.3260 C.3   108  ALA108      0.1728
    100  C         20.7900  -24.0910  -27.2310 C.2   108  ALA108      0.2617
    101  O         21.4990  -25.0140  -26.8430 O.2   108  ALA108     -0.2715
    102  CB        18.6390  -24.0050  -25.9510 C.3   108  ALA108      0.0334
    103  N         21.2700  -22.8940  -27.5540 N.am  109  SER109     -0.1936
    104  CA        22.7070  -22.6230  -27.5020 C.3   109  SER109      0.2055
    105  C         23.1130  -21.5530  -26.4800 C.2   109  SER109      0.2644
    106  O         24.2940  -21.3640  -26.2340 O.2   109  SER109     -0.2714
    107  CB        23.2360  -22.2400  -28.8900 C.3   109  SER109      0.2130
    108  OG        22.5600  -21.0920  -29.3840 O.3   109  SER109     -0.2179
    109  N         22.1520  -20.8800  -25.8600 N.am  110  SER110     -0.1935
    110  CA        22.5020  -19.7480  -24.9940 C.3   110  SER110      0.2055
    111  C         23.2560  -20.1550  -23.7260 C.2   110  SER110      0.2642
    112  O         24.0820  -19.3970  -23.2430 O.2   110  SER110     -0.2714
    113  CB        21.2650  -18.9230  -24.6290 C.3   110  SER110      0.2130
    114  OG        20.6150  -19.4970  -23.5190 O.3   110  SER110     -0.2179
    115  N         22.9780  -21.3400  -23.1830 N.am  111  ALA111     -0.1977
    116  CA        23.6710  -21.7800  -21.9710 C.3   111  ALA111      0.1597
    117  C         25.1470  -22.0130  -22.2420 C.2   111  ALA111      0.2287
    118  O         25.9950  -21.5090  -21.5230 O.2   111  ALA111     -0.2864
    119  CB        23.0410  -23.0490  -21.3890 C.3   111  ALA111      0.0319
    120  N         26.7630  -20.9070  -24.7590 N.3   113  ALA113     -0.1231
    121  CA        27.3370  -19.6980  -25.3620 C.3   113  ALA113      0.1694
    122  C         27.8560  -18.7300  -24.3170 C.2   113  ALA113      0.2592
    123  O         28.9890  -18.2470  -24.4060 O.2   113  ALA113     -0.2718
    124  CB        26.3210  -19.0090  -26.2490 C.3   113  ALA113      0.0304
    125  N         27.0250  -18.4400  -23.3250 N.am  114  TYR114     -0.1976
    126  CA        27.4050  -17.4880  -22.2850 C.3   114  TYR114      0.1639
    127  C         28.3800  -18.0220  -21.2390 C.2   114  TYR114      0.2290
    128  O         29.1940  -17.2680  -20.7070 O.2   114  TYR114     -0.2864
    129  CB        26.1680  -16.8340  -21.6730 C.3   114  TYR114      0.0560
    130  CG        25.7220  -15.6850  -22.5250 C.ar  114  TYR114     -0.0198
    131  CD1       26.4590  -14.5100  -22.5480 C.ar  114  TYR114     -0.0009
    132  CD2       24.5890  -15.7720  -23.3260 C.ar  114  TYR114     -0.0009
    133  CE1       26.0810  -13.4560  -23.3330 C.ar  114  TYR114      0.0417
    134  CE2       24.2020  -14.7050  -24.1260 C.ar  114  TYR114      0.0417
    135  CZ        24.9640  -13.5540  -24.1180 C.ar  114  TYR114      0.1957
    136  OH        24.6100  -12.4800  -24.8950 O.3   114  TYR114     -0.2866
    137  N         31.7480  -17.7840  -23.1920 N.3   117  LEU117     -0.1245
    138  CA        32.2010  -16.4060  -23.2870 C.3   117  LEU117      0.1561
    139  C         32.7510  -15.8930  -21.9480 C.2   117  LEU117      0.2260
    140  O         33.8010  -15.2390  -21.9000 O.2   117  LEU117     -0.2867
    141  CB        31.0580  -15.5260  -23.7890 C.3   117  LEU117      0.0270
    142  CG        31.3660  -14.0370  -23.9490 C.3   117  LEU117      0.0019
    143  CD1       32.6690  -13.8460  -24.7250 C.3   117  LEU117      0.0001
    144  CD2       30.1930  -13.3390  -24.6540 C.3   117  LEU117      0.0001
    145  N         22.6090  -15.2370  -19.8300 N.3   142  SER142     -0.1217
    146  CA        21.4600  -16.1420  -19.9300 C.3   142  SER142      0.1889
    147  C         21.4010  -16.9880  -18.6640 C.2   142  SER142      0.2288
    148  O         22.4140  -17.5460  -18.2340 O.2   142  SER142     -0.2866
    149  CB        21.5740  -17.0520  -21.1520 C.3   142  SER142      0.2089
    150  OG        20.4900  -17.9810  -21.1760 O.3   142  SER142     -0.2183
    151  N         20.2730  -19.9350  -17.8230 N.3   144  SER144     -0.1217
    152  CA        20.7300  -21.3190  -17.8790 C.3   144  SER144      0.1889
    153  C         22.2490  -21.4340  -18.0410 C.2   144  SER144      0.2288
    154  O         22.8240  -22.4720  -17.7580 O.2   144  SER144     -0.2866
    155  CB        20.0180  -22.0750  -19.0030 C.3   144  SER144      0.2089
    156  OG        20.1230  -21.3620  -20.2130 O.3   144  SER144     -0.2183
    157  N         10.6150  -17.2720  -27.6780 N.3   194  SER194     -0.1202
    158  CA        11.8630  -17.4790  -26.9460 C.3   194  SER194      0.2020
    159  C         11.5190  -17.8280  -25.5070 C.2   194  SER194      0.2619
    160  O         10.4480  -17.4570  -25.0120 O.2   194  SER194     -0.2717
    161  CB        12.7430  -16.2250  -26.9680 C.3   194  SER194      0.2103
    162  OG        12.2120  -15.2420  -26.0950 O.3   194  SER194     -0.2182
    163  N         12.4180  -18.5410  -24.8370 N.am  195  ALA195     -0.1965
    164  CA        12.1960  -18.8690  -23.4320 C.3   195  ALA195      0.1728
    165  C         12.0220  -17.6000  -22.6000 C.2   195  ALA195      0.2616
    166  O         11.2000  -17.5560  -21.6830 O.2   195  ALA195     -0.2715
    167  CB        13.3410  -19.7150  -22.8910 C.3   195  ALA195      0.0334
    168  N         12.8010  -16.5670  -22.9240 N.am  196  ARG196     -0.1977
    169  CA        12.7890  -15.3160  -22.1590 C.3   196  ARG196      0.1597
    170  C         11.4290  -14.6370  -22.2170 C.2   196  ARG196      0.2287
    171  O         10.8960  -14.1970  -21.1940 O.2   196  ARG196     -0.2864
    172  CB        13.8810  -14.3610  -22.6810 C.3   196  ARG196      0.0334
    173  CG        14.0500  -13.0950  -21.8530 C.3   196  ARG196      0.0492
    174  CD        15.3780  -12.3940  -22.1780 C.3   196  ARG196      0.2205
    175  NE        16.5370  -13.2390  -21.8660 N.pl3 196  ARG196     -0.0865
    176  CZ        17.8050  -12.8440  -21.9940 C.cat 196  ARG196      0.5346
    177  NH1       18.0740  -11.6220  -22.4490 N.pl3 196  ARG196      0.1354
    178  NH2       18.8030  -13.6700  -21.6850 N.pl3 196  ARG196      0.1354
    179  N         11.6430  -24.9820  -23.9820 N.3   287  ALA287     -0.1245
    180  CA        10.8460  -23.9930  -24.7010 C.3   287  ALA287      0.1562
    181  C         10.6980  -24.3570  -26.1740 C.2   287  ALA287      0.2260
    182  O         11.0790  -23.5930  -27.0640 O.2   287  ALA287     -0.2867
    183  CB        11.4500  -22.5860  -24.5320 C.3   287  ALA287      0.0290
@<TRIPOS>BOND
     1    26    25    2
     2    25    24    1
     3    23    24    1
     4    24    27    1
     5    18    17    2
     6    84    83    1
     7    27    28    1
     8    81    82    2
     9    81    80    1
    10    17    16    1
    11    28    30    1
    12    28    29    1
    13    79    80    1
    14    68    67    2
    15    74    73    2
    16    80    83    1
    17    83    85    1
    18    86    87    1
    19    15    16    1
    20    16    19    1
    21    35    36    1
    22    35    32    1
    23    31    32    1
    24    67    66    1
    25    71    72    1
    26    36    37    1
    27    60    59    2
    28    73    72    1
    29    65    66    1
    30    87    88    1
    31    19    20    1
    32    20    22    1
    33    20    21    1
    34    32    33    1
    35    75    72    1
    36    75    76    1
    37    33    34    2
    38    59    58    1
    39    66    69    1
    40    78    76   am
    41    37    39   ar
    42    37    38   ar
    43    76    77    2
    44    57    58    1
    45    88    90   am
    46    88    89    2
    47    90    91    1
    48    69    70    1
    49    58    61    1
    50    96    95    1
    51    93    92    2
    52    61    63    1
    53    61    62    1
    54    55    53    1
    55    91    94    1
    56    91    92    1
    57    94    95    1
    58   108   107    1
    59    92    98   am
    60    95    97    1
    61   107   104    1
    62    53    54    1
    63    53    50    1
    64    40    41    1
    65    62    64    1
    66    54    56    1
    67     7     5    1
    68     9     8    1
    69     9    10    1
    70     9    12    1
    71     2     3    1
    72     2     5    1
    73     2     1    1
    74    98    99    1
    75    49    50    1
    76    49    42   am
    77    44    41    1
    78    44    45    1
    79   157   158    1
    80     6     5    1
    81    10    11    2
    82   103   104    1
    83   103   100   am
    84     3     4    2
    85   104   105    1
    86    13    12    1
    87    50    51    1
    88    41    42    1
    89    99   100    1
    90    99   102    1
    91    14    12    1
    92   100   101    2
    93   182   181    2
    94    46    45    1
    95    46    47    1
    96   161   158    1
    97   161   162    1
    98   158   159    1
    99    42    43    2
   100    51    52    2
   101   105   106    2
   102   105   109   am
   103   124   121    1
   104    48    47    1
   105   181   180    1
   106   109   110    1
   107   159   160    2
   108   159   163   am
   109   121   120    1
   110   121   122    1
   111   110   113    1
   112   110   111    1
   113   136   135    1
   114   163   164    1
   115   143   142    1
   116   180   183    1
   117   180   179    1
   118   144   142    1
   119   113   114    1
   120   123   122    2
   121   122   125   am
   122   134   135   ar
   123   134   132   ar
   124   135   133   ar
   125   142   141    1
   126   141   138    1
   127   111   112    2
   128   111   115   am
   129   164   167    1
   130   164   165    1
   131   133   131   ar
   132   132   130   ar
   133   125   126    1
   134   138   137    1
   135   138   139    1
   136   115   116    1
   137   168   165   am
   138   168   169    1
   139   172   169    1
   140   172   173    1
   141   165   166    2
   142   131   130   ar
   143   130   129    1
   144   177   176    1
   145   126   129    1
   146   126   127    1
   147   117   116    1
   148   117   118    2
   149   170   169    1
   150   170   171    2
   151   174   175    1
   152   174   173    1
   153   176   175    2
   154   176   178    1
   155   116   119    1
   156   139   140    2
   157   127   128    2
   158   150   149    1
   159   149   146    1
   160   156   155    1
   161   146   145    1
   162   146   147    1
   163   155   152    1
   164   147   148    2
   165   153   152    1
   166   153   154    2
   167   152   151    1
