@<TRIPOS>MOLECULE
tmp/4dq0A00.pdb
 91 86 0 0 0
SMALL
GASTEIGER

@<TRIPOS>ATOM
      1  N         17.1770   26.1060   18.2010 N.3    14  THR14      -0.1218
      2  CA        16.1940   26.9400   17.5280 C.3    14  THR14       0.1862
      3  C         14.8300   26.2320   17.5970 C.2    14  THR14       0.2287
      4  O         14.7510   25.0070   17.4770 O.2    14  THR14      -0.2866
      5  CB        16.6190   27.2220   16.0720 C.3    14  THR14       0.1770
      6  OG1       16.8560   25.9840   15.3920 O.3    14  THR14      -0.2211
      7  CG2       17.9120   28.0470   16.0470 C.3    14  THR14       0.0375
      8  N         10.4020   24.4120   13.5200 N.3    17  HIS17      -0.1241
      9  CA         9.9220   25.2540   12.4220 C.3    17  HIS17       0.1621
     10  C          8.4020   25.2600   12.3520 C.2    17  HIS17       0.2264
     11  O          7.7600   24.2020   12.4220 O.2    17  HIS17      -0.2867
     12  CB        10.4930   24.8000   11.0750 C.3    17  HIS17       0.0745
     13  CG        10.3760   25.8360    9.9980 C.ar   17  HIS17       0.0817
     14  ND1        9.2030   26.0740    9.3140 N.ar   17  HIS17      -0.2268
     15  CD2       11.2870   26.7020    9.4930 C.ar   17  HIS17       0.1154
     16  CE1        9.3920   27.0490    8.4420 C.ar   17  HIS17       0.1986
     17  NE2       10.6500   27.4430    8.5270 N.ar   17  HIS17      -0.2212
     18  N         16.2880   20.1340   15.5580 N.3    41  ARG41      -0.1245
     19  CA        15.0420   20.6010   16.1630 C.3    41  ARG41       0.1563
     20  C         13.8170   19.8670   15.6220 C.2    41  ARG41       0.2260
     21  O         13.0120   19.3420   16.3880 O.2    41  ARG41      -0.2867
     22  CB        14.8810   22.1020   15.9530 C.3    41  ARG41       0.0307
     23  CG        15.1110   22.5250   14.5270 C.3    41  ARG41       0.0489
     24  CD        14.5770   23.9170   14.2400 C.3    41  ARG41       0.2205
     25  NE        14.9430   24.3400   12.8910 N.pl3  41  ARG41      -0.0865
     26  CZ        14.4920   25.4370   12.2950 C.cat  41  ARG41       0.5346
     27  NH1       13.6440   26.2380   12.9280 N.pl3  41  ARG41       0.1354
     28  NH2       14.8840   25.7240   11.0570 N.pl3  41  ARG41       0.1354
     29  N         14.3960   25.4570    5.0210 N.3   101  VAL101     -0.1245
     30  CA        15.5040   26.4120    4.8710 C.3   101  VAL101      0.1561
     31  C         16.8620   25.7390    4.7450 C.2   101  VAL101      0.2260
     32  O         17.7840   26.0210    5.5070 O.2   101  VAL101     -0.2867
     33  CB        15.5040   27.5330    5.9500 C.3   101  VAL101      0.0252
     34  CG1       14.3770   28.5180    5.6690 C.3   101  VAL101      0.0019
     35  CG2       15.3930   26.9600    7.3610 C.3   101  VAL101      0.0019
     36  N         18.4950   26.6420   -0.2080 N.3   104  MET104     -0.1230
     37  CA        19.1050   27.8900   -0.6580 C.3   104  MET104      0.1702
     38  C         20.6120   27.8970   -0.4510 C.2   104  MET104      0.2592
     39  O         21.3140   28.7280   -1.0270 O.2   104  MET104     -0.2718
     40  CB        18.4500   29.1400   -0.0260 C.3   104  MET104      0.0401
     41  CG        18.4310   29.1850    1.4980 C.3   104  MET104      0.0596
     42  SD        16.8570   28.5750    2.1660 S.3   104  MET104     -0.1393
     43  CE        16.3810   29.9770    3.1890 C.3   104  MET104      0.0692
     44  N         21.1080   26.9620    0.3570 N.am  105  PHE105     -0.1976
     45  CA        22.5260   26.9200    0.6830 C.3   105  PHE105      0.1639
     46  C         23.2890   25.9630   -0.2290 C.2   105  PHE105      0.2290
     47  O         24.5030   25.8660   -0.1510 O.2   105  PHE105     -0.2864
     48  CB        22.7360   26.5230    2.1460 C.3   105  PHE105      0.0560
     49  CG        22.1470   27.4930    3.1220 C.ar  105  PHE105     -0.0200
     50  CD1       22.7670   28.6980    3.3740 C.ar  105  PHE105     -0.0042
     51  CD2       20.9600   27.2020    3.7850 C.ar  105  PHE105     -0.0042
     52  CE1       22.2260   29.5960    4.2730 C.ar  105  PHE105     -0.0003
     53  CE2       20.4100   28.1090    4.6840 C.ar  105  PHE105     -0.0003
     54  CZ        21.0480   29.3020    4.9240 C.ar  105  PHE105     -0.0000
     55  N         20.5680   38.6070   -0.6640 N.3   143  VAL143     -0.1245
     56  CA        21.4480   37.9170    0.2830 C.3   143  VAL143      0.1561
     57  C         22.6270   37.2320   -0.4130 C.2   143  VAL143      0.2260
     58  O         23.7370   37.1860    0.1190 O.2   143  VAL143     -0.2867
     59  CB        20.6640   36.8870    1.1270 C.3   143  VAL143      0.0252
     60  CG1       21.5990   36.1500    2.0940 C.3   143  VAL143      0.0019
     61  CG2       19.5330   37.5740    1.8830 C.3   143  VAL143      0.0019
     62  N         22.3850   33.9440   -1.6230 N.3   145  PHE145     -0.1241
     63  CA        22.2820   32.4940   -1.4970 C.3   145  PHE145      0.1605
     64  C         22.7470   31.8210   -2.7770 C.2   145  PHE145      0.2264
     65  O         22.3000   32.1920   -3.8620 O.2   145  PHE145     -0.2867
     66  CB        20.8270   32.0790   -1.2930 C.3   145  PHE145      0.0534
     67  CG        20.2260   32.5570   -0.0140 C.ar  145  PHE145     -0.0203
     68  CD1       20.7860   32.2000    1.2040 C.ar  145  PHE145     -0.0042
     69  CD2       19.0720   33.3350   -0.0270 C.ar  145  PHE145     -0.0042
     70  CE1       20.2170   32.6230    2.3870 C.ar  145  PHE145     -0.0003
     71  CE2       18.4960   33.7530    1.1440 C.ar  145  PHE145     -0.0003
     72  CZ        19.0670   33.3940    2.3600 C.ar  145  PHE145     -0.0000
     73  N         13.7940   38.4390    6.8940 N.3   173  LEU173     -0.1245
     74  CA        14.8740   38.1050    7.7910 C.3   173  LEU173      0.1561
     75  C         14.8700   39.1970    8.8360 C.2   173  LEU173      0.2260
     76  O         15.0170   40.3830    8.5130 O.2   173  LEU173     -0.2867
     77  CB        16.1990   38.0750    7.0360 C.3   173  LEU173      0.0270
     78  CG        16.2160   37.0120    5.9360 C.3   173  LEU173      0.0019
     79  CD1       17.5060   37.0510    5.1410 C.3   173  LEU173      0.0001
     80  CD2       16.0120   35.6460    6.5510 C.3   173  LEU173      0.0001
     81  N          9.6240   33.7520    0.1670 N.3   187  PHE187     -0.1241
     82  CA         9.9850   32.3670    0.4520 C.3   187  PHE187      0.1605
     83  C          8.9680   31.4890   -0.2350 C.2   187  PHE187      0.2264
     84  O          7.8040   31.8330   -0.2860 O.2   187  PHE187     -0.2867
     85  CB         9.9630   32.0860    1.9570 C.3   187  PHE187      0.0534
     86  CG        11.1370   32.6590    2.6990 C.ar  187  PHE187     -0.0203
     87  CD1       11.0850   33.9370    3.2190 C.ar  187  PHE187     -0.0042
     88  CD2       12.2940   31.9180    2.8610 C.ar  187  PHE187     -0.0042
     89  CE1       12.1590   34.4590    3.9030 C.ar  187  PHE187     -0.0003
     90  CE2       13.3830   32.4380    3.5370 C.ar  187  PHE187     -0.0003
     91  CZ        13.3180   33.7120    4.0580 C.ar  187  PHE187     -0.0000
@<TRIPOS>BOND
     1    65    64    2
     2    64    63    1
     3    62    63    1
     4    63    66    1
     5    66    67    1
     6    39    38    2
     7    55    56    1
     8    37    38    1
     9    37    36    1
    10    37    40    1
    11    38    44   am
    12    57    58    2
    13    57    56    1
    14    84    83    2
    15    83    82    1
    16    46    47    2
    17    46    45    1
    18    69    67   ar
    19    69    71   ar
    20    40    41    1
    21    67    68   ar
    22    81    82    1
    23    56    59    1
    24    44    45    1
    25    82    85    1
    26    45    48    1
    27    59    61    1
    28    59    60    1
    29    71    72   ar
    30    68    70   ar
    31    41    42    1
    32    85    86    1
    33    48    49    1
    34    42    43    1
    35    72    70   ar
    36    86    88   ar
    37    86    87   ar
    38    88    90   ar
    39    49    50   ar
    40    49    51   ar
    41    87    89   ar
    42    50    52   ar
    43    90    91   ar
    44    51    53   ar
    45    89    91   ar
    46    52    54   ar
    47    53    54   ar
    48    31    30    1
    49    31    32    2
    50    30    29    1
    51    30    33    1
    52    79    78    1
    53    34    33    1
    54    78    80    1
    55    78    77    1
    56    33    35    1
    57    73    74    1
    58    77    74    1
    59    74    75    1
    60    16    17   ar
    61    16    14   ar
    62    76    75    2
    63    17    15   ar
    64    14    13   ar
    65    15    13   ar
    66    13    12    1
    67    28    26    1
    68    12     9    1
    69    26    25    2
    70    26    27    1
    71    10     9    1
    72    10    11    2
    73     9     8    1
    74    25    24    1
    75    24    23    1
    76    23    22    1
    77     6     5    1
    78    18    19    1
    79    20    19    1
    80    20    21    2
    81    22    19    1
    82     7     5    1
    83     5     2    1
    84     4     3    2
    85     2     3    1
    86     2     1    1
