@<TRIPOS>MOLECULE
tmp/4dq1A00.pdb
 142 138 0 0 0
SMALL
GASTEIGER

@<TRIPOS>ATOM
      1  N         47.9240   -0.6910   17.8610 N.3    23  ASP23      -0.1225
      2  CA        46.9120    0.3280   17.8990 C.3    23  ASP23       0.1805
      3  C         46.5620    0.6740   19.3110 C.2    23  ASP23       0.2598
      4  O         47.0840    0.0710   20.2500 O.2    23  ASP23      -0.2718
      5  CB        45.6780   -0.1000   17.1180 C.3    23  ASP23       0.1424
      6  CG        44.7990   -1.0060   17.9000 C.2    23  ASP23       0.3668
      7  OD1       43.8780   -0.4760   18.5450 O.co2  23  ASP23      -0.2456
      8  OD2       45.0380   -2.2350   17.8910 O.co2  23  ASP23      -0.2456
      9  N         45.6690    1.6560   19.4360 N.am   24  ARG24      -0.1966
     10  CA        45.2020    2.1580   20.7210 C.3    24  ARG24       0.1729
     11  C         44.6230    1.0490   21.6180 C.2    24  ARG24       0.2616
     12  O         44.7660    1.1120   22.8320 O.2    24  ARG24      -0.2715
     13  CB        44.2160    3.2970   20.4860 C.3    24  ARG24       0.0348
     14  CG        43.3380    3.6790   21.6630 C.3    24  ARG24       0.0492
     15  CD        42.2080    4.6190   21.2400 C.3    24  ARG24       0.2205
     16  NE        41.0970    3.9330   20.5620 N.pl3  24  ARG24      -0.0865
     17  CZ        40.2770    3.0520   21.1360 C.cat  24  ARG24       0.5346
     18  NH1       40.4280    2.7100   22.3960 N.pl3  24  ARG24       0.1354
     19  NH2       39.3060    2.4950   20.4520 N.pl3  24  ARG24       0.1354
     20  N         44.0320    0.0150   21.0250 N.am   25  THR25      -0.1951
     21  CA        43.4120   -1.0380   21.8110 C.3    25  THR25       0.1897
     22  C         44.3730   -2.1610   22.1680 C.2    25  THR25       0.2313
     23  O         43.9700   -3.1180   22.8400 O.2    25  THR25      -0.2863
     24  CB        42.2020   -1.6560   21.0930 C.3    25  THR25       0.1794
     25  OG1       42.6570   -2.4530   19.9970 O.3    25  THR25      -0.2208
     26  CG2       41.2560   -0.5780   20.5790 C.3    25  THR25       0.0378
     27  N         26.7680   11.4630   17.0730 N.3   147  TYR147     -0.1241
     28  CA        26.8860   12.1530   15.7440 C.3   147  TYR147      0.1605
     29  C         25.7140   13.0950   15.4110 C.2   147  TYR147      0.2264
     30  O         25.9110   14.1680   14.8360 O.2   147  TYR147     -0.2867
     31  CB        26.9530   11.1290   14.5810 C.3   147  TYR147      0.0534
     32  CG        28.2440   10.3280   14.4330 C.ar  147  TYR147     -0.0201
     33  CD1       29.3150   10.8300   13.6830 C.ar  147  TYR147     -0.0009
     34  CD2       28.3770    9.0540   15.0110 C.ar  147  TYR147     -0.0009
     35  CE1       30.4910   10.1030   13.5330 C.ar  147  TYR147      0.0417
     36  CE2       29.5440    8.3260   14.8670 C.ar  147  TYR147      0.0417
     37  CZ        30.6000    8.8500   14.1210 C.ar  147  TYR147      0.1957
     38  OH        31.7760    8.1390   13.9650 O.3   147  TYR147     -0.2866
     39  N         34.0780    8.5850   22.5320 N.3   196  LEU196     -0.1231
     40  CA        34.6670    7.9970   21.3130 C.3   196  LEU196      0.1678
     41  C         34.7150    8.9400   20.1180 C.2   196  LEU196      0.2434
     42  O         33.7780    8.9910   19.3450 O.2   196  LEU196     -0.2733
     43  CB        33.9780    6.6770   20.9430 C.3   196  LEU196      0.0284
     44  CG        34.3930    5.4700   21.8100 C.3   196  LEU196      0.0019
     45  CD1       33.5000    4.2610   21.5420 C.3   196  LEU196      0.0001
     46  CD2       35.8810    5.1090   21.6780 C.3   196  LEU196      0.0001
     47  N         35.8280    9.6800   19.9570 N.am  197  PRO197     -0.2729
     48  CA        35.9010   10.6800   18.8810 C.3   197  PRO197      0.1401
     49  C         35.4060   10.1090   17.5500 C.2   197  PRO197      0.2269
     50  O         35.8530    9.0250   17.1570 O.2   197  PRO197     -0.2865
     51  CB        37.4000   11.0120   18.8080 C.3   197  PRO197      0.0296
     52  CG        37.9410   10.6810   20.1640 C.3   197  PRO197      0.0237
     53  CD        37.1080    9.5480   20.6890 C.3   197  PRO197      0.0939
     54  N         34.6540    8.6610   14.1020 N.3   199  CYS199     -0.1221
     55  CA        35.4010    8.1790   12.9510 C.3   199  CYS199      0.1808
     56  C         34.9620    8.8320   11.6440 C.2   199  CYS199      0.2601
     57  O         35.7580    8.9320   10.7200 O.2   199  CYS199     -0.2717
     58  CB        35.2460    6.6690   12.7820 C.3   199  CYS199      0.0970
     59  SG        35.8200    5.7270   14.1980 S.3   199  CYS199     -0.0800
     60  N         33.6930    9.2300   11.5520 N.am  200  HIS200     -0.1975
     61  CA        33.1670    9.8340   10.3440 C.3   200  HIS200      0.1656
     62  C         33.2940   11.2950   10.4540 C.2   200  HIS200      0.2291
     63  O         32.3380   11.9730   10.7720 O.2   200  HIS200     -0.2864
     64  CB        31.7150    9.4720   10.1480 C.3   200  HIS200      0.0771
     65  CG        31.4410    8.0330   10.2950 C.ar  200  HIS200      0.0820
     66  ND1       32.0810    7.1080    9.5720 N.ar  200  HIS200     -0.2267
     67  CD2       30.5590    7.3530   11.1230 C.ar  200  HIS200      0.1154
     68  CE1       31.6270    5.8850    9.9070 C.ar  200  HIS200      0.1986
     69  NE2       30.7040    6.0390   10.8690 N.ar  200  HIS200     -0.2212
     70  N         36.3000    9.0340    6.3670 N.3   218  GLN218     -0.1231
     71  CA        36.3620    8.2380    7.5740 C.3   218  GLN218      0.1698
     72  C         37.8350    8.0820    7.9930 C.2   218  GLN218      0.2592
     73  O         38.6200    7.3920    7.3220 O.2   218  GLN218     -0.2718
     74  CB        35.7110    6.8660    7.3330 C.3   218  GLN218      0.0381
     75  CG        35.3120    6.1760    8.6300 C.3   218  GLN218      0.0905
     76  CD        34.7520    4.7690    8.4300 C.2   218  GLN218      0.2608
     77  OE1       34.2010    4.4400    7.3560 O.2   218  GLN218     -0.2717
     78  NE2       34.8590    3.9310    9.4780 N.am  218  GLN218     -0.0878
     79  N         38.2010    8.7050    9.1090 N.am  219  ARG219     -0.1966
     80  CA        39.6010    8.7740    9.4870 C.3   219  ARG219      0.1729
     81  C         40.1000    7.4450    9.9960 C.2   219  ARG219      0.2617
     82  O         41.3120    7.2030    9.9980 O.2   219  ARG219     -0.2715
     83  CB        39.8480    9.8810   10.5060 C.3   219  ARG219      0.0348
     84  CG        38.9870    9.7950   11.7270 C.3   219  ARG219      0.0492
     85  CD        39.7550    9.3720   12.9480 C.3   219  ARG219      0.2205
     86  NE        38.8710    9.2480   14.1120 N.pl3 219  ARG219     -0.0865
     87  CZ        39.0730    8.4280   15.1390 C.cat 219  ARG219      0.5346
     88  NH1       38.1970    8.3990   16.1170 N.pl3 219  ARG219      0.1354
     89  NH2       40.1420    7.6450   15.2010 N.pl3 219  ARG219      0.1354
     90  N         39.1560    6.5760   10.3830 N.am  220  SER220     -0.1936
     91  CA        39.4780    5.2690   10.9680 C.3   220  SER220      0.2055
     92  C         38.4340    4.2330   10.6250 C.2   220  SER220      0.2643
     93  O         37.2530    4.4880   10.7380 O.2   220  SER220     -0.2714
     94  CB        39.5530    5.4010   12.4770 C.3   220  SER220      0.2130
     95  OG        40.1230    4.2470   13.0050 O.3   220  SER220     -0.2179
     96  N         38.8520    3.0510   10.2090 N.am  221  ALA221     -0.1963
     97  CA        37.8910    2.0700    9.7460 C.3   221  ALA221      0.1728
     98  C         38.2860    0.6310   10.0480 C.2   221  ALA221      0.2616
     99  O         39.2940    0.1270    9.5680 O.2   221  ALA221     -0.2715
    100  CB        37.6250    2.2430    8.2570 C.3   221  ALA221      0.0334
    101  N         37.4420   -0.0210   10.8360 N.am  222  ASP222     -0.1971
    102  CA        37.5530   -1.4280   11.1150 C.3   222  ASP222      0.1709
    103  C         37.0290   -2.1530    9.9100 C.2   222  ASP222      0.2293
    104  O         35.8210   -2.4360    9.8000 O.2   222  ASP222     -0.2864
    105  CB        36.7060   -1.7380   12.3430 C.3   222  ASP222      0.1436
    106  CG        36.6540   -3.2030   12.6690 C.2   222  ASP222      0.3671
    107  OD1       37.1800   -4.0330   11.9020 O.co2 222  ASP222     -0.2456
    108  OD2       36.0850   -3.5100   13.7200 O.co2 222  ASP222     -0.2456
    109  N         33.1870   -2.7180   11.2260 N.3   226  GLY226     -0.1225
    110  CA        32.5220   -1.4430   10.9650 C.3   226  GLY226      0.1811
    111  C         32.1670   -1.0730    9.5130 C.2   226  GLY226      0.2280
    112  O         31.0740   -0.5460    9.2610 O.2   226  GLY226     -0.2866
    113  N         29.0840    0.7220    7.8860 N.3   230  ASN230     -0.1240
    114  CA        29.2750    2.1470    7.5890 C.3   230  ASN230      0.1653
    115  C         28.8950    2.4630    6.1620 C.2   230  ASN230      0.2266
    116  O         28.2210    3.4510    5.9030 O.2   230  ASN230     -0.2867
    117  CB        30.6960    2.5890    7.8730 C.3   230  ASN230      0.1155
    118  CG        31.0760    2.4880    9.3610 C.2   230  ASN230      0.2627
    119  OD1       32.2500    2.2910    9.6920 O.2   230  ASN230     -0.2716
    120  ND2       30.1080    2.6090   10.2450 N.am  230  ASN230     -0.0877
    121  N         42.0500   -0.4580    8.4370 N.3   260  HIS260     -0.1241
    122  CA        42.7640   -1.5760    9.0760 C.3   260  HIS260      0.1621
    123  C         41.8920   -2.7710    9.3170 C.2   260  HIS260      0.2264
    124  O         40.7320   -2.6320    9.7020 O.2   260  HIS260     -0.2867
    125  CB        43.3520   -1.1250   10.3860 C.3   260  HIS260      0.0745
    126  CG        42.3690   -0.4130   11.2510 C.ar  260  HIS260      0.0817
    127  ND1       41.9380    0.8250   10.9730 N.ar  260  HIS260     -0.2268
    128  CD2       41.7160   -0.8070   12.4090 C.ar  260  HIS260      0.1154
    129  CE1       41.0560    1.2190   11.9210 C.ar  260  HIS260      0.1986
    130  NE2       40.9180    0.2180   12.7970 N.ar  260  HIS260     -0.2212
    131  N         41.7150   -5.6080   11.9120 N.3   262  TYR262     -0.1241
    132  CA        42.2900   -5.9970   13.2060 C.3   262  TYR262      0.1605
    133  C         42.8470   -7.4010   13.0930 C.2   262  TYR262      0.2264
    134  O         42.2790   -8.2270   12.3570 O.2   262  TYR262     -0.2867
    135  CB        41.2250   -6.0030   14.2940 C.3   262  TYR262      0.0534
    136  CG        40.9030   -4.6340   14.8140 C.ar  262  TYR262     -0.0201
    137  CD1       41.7540   -4.0090   15.7330 C.ar  262  TYR262     -0.0009
    138  CD2       39.7490   -3.9420   14.3830 C.ar  262  TYR262     -0.0009
    139  CE1       41.4700   -2.7370   16.2330 C.ar  262  TYR262      0.0417
    140  CE2       39.4610   -2.6690   14.8710 C.ar  262  TYR262      0.0417
    141  CZ        40.3220   -2.0760   15.8020 C.ar  262  TYR262      0.1957
    142  OH        40.0850   -0.8220   16.3010 O.3   262  TYR262     -0.2866
@<TRIPOS>BOND
     1   116   115    2
     2   115   114    1
     3    70    71    1
     4    73    72    2
     5    74    71    1
     6    74    75    1
     7    77    76    2
     8    71    72    1
     9   114   117    1
    10   114   113    1
    11   117   118    1
    12    72    79   am
    13   100    97    1
    14    76    75    1
    15    76    78   am
    16   121   122    1
    17   122   123    1
    18   122   125    1
    19    79    80    1
    20   112   111    2
    21   123   124    2
    22   118   119    2
    23   118   120   am
    24    80    81    1
    25    80    83    1
    26   111   110    1
    27    99    98    2
    28    66    68   ar
    29    66    65   ar
    30    97    98    1
    31    97    96    1
    32   104   103    2
    33    68    69   ar
    34   103   102    1
    35    81    82    2
    36    81    90   am
    37    98   101   am
    38    64    65    1
    39    64    61    1
    40    96    92   am
    41    65    67   ar
    42    61    62    1
    43    61    60    1
    44    90    91    1
    45   125   126    1
    46    62    63    2
    47    83    84    1
    48    92    93    2
    49    92    91    1
    50    57    56    2
    51   101   102    1
    52    69    67   ar
    53   110   109    1
    54    91    94    1
    55   127   126   ar
    56   127   129   ar
    57   102   105    1
    58   126   128   ar
    59    60    56   am
    60    56    55    1
    61    84    85    1
    62   107   106   ar
    63   131   132    1
    64   129   130   ar
    65   105   106    1
    66   134   133    2
    67   128   130   ar
    68    94    95    1
    69   106   108   ar
    70    58    55    1
    71    58    59    1
    72    85    86    1
    73    55    54    1
    74   133   132    1
    75   132   135    1
    76    35    33   ar
    77    35    37   ar
    78    33    32   ar
    79    38    37    1
    80    86    87    2
    81    37    36   ar
    82   135   136    1
    83   138   136   ar
    84   138   140   ar
    85    32    31    1
    86    32    34   ar
    87    31    28    1
    88   136   137   ar
    89    30    29    2
    90    36    34   ar
    91   140   141   ar
    92    87    89    1
    93    87    88    1
    94    29    28    1
    95   137   139   ar
    96    28    27    1
    97   141   139   ar
    98   141   142    1
    99     5     2    1
   100     5     6    1
   101    50    49    2
   102    49    48    1
   103     1     2    1
   104     8     6   ar
   105     2     3    1
   106     6     7   ar
   107    51    48    1
   108    51    52    1
   109    48    47    1
   110     3     9   am
   111     3     4    2
   112    42    41    2
   113     9    10    1
   114    47    41   am
   115    47    53    1
   116    25    24    1
   117    41    40    1
   118    52    53    1
   119    19    17    1
   120    13    10    1
   121    13    14    1
   122    16    17    2
   123    16    15    1
   124    26    24    1
   125    10    11    1
   126    43    40    1
   127    43    44    1
   128    20    11   am
   129    20    21    1
   130    24    21    1
   131    17    18    1
   132    15    14    1
   133    40    39    1
   134    45    44    1
   135    11    12    2
   136    46    44    1
   137    21    22    1
   138    22    23    2
