@<TRIPOS>MOLECULE
tmp/4dq5A00.pdb
 107 105 0 0 0
SMALL
GASTEIGER

@<TRIPOS>ATOM
      1  N         16.7270   37.2000   14.6160 N.3    55  PHE55      -0.1241
      2  CA        16.4950   37.4450   13.1910 C.3    55  PHE55       0.1605
      3  C         17.3780   36.5180   12.3670 C.2    55  PHE55       0.2264
      4  O         18.5870   36.4390   12.5920 O.2    55  PHE55      -0.2867
      5  CB        16.7510   38.9170   12.8610 C.3    55  PHE55       0.0534
      6  CG        15.8610   39.8470   13.6300 C.ar   55  PHE55      -0.0203
      7  CD1       16.3230   40.4940   14.7610 C.ar   55  PHE55      -0.0042
      8  CD2       14.5480   40.0360   13.2440 C.ar   55  PHE55      -0.0042
      9  CE1       15.4900   41.3400   15.4830 C.ar   55  PHE55      -0.0003
     10  CE2       13.7160   40.8780   13.9590 C.ar   55  PHE55      -0.0003
     11  CZ        14.1880   41.5270   15.0770 C.ar   55  PHE55      -0.0000
     12  N         16.0430   37.5510    7.1760 N.3    60  GLN60      -0.1231
     13  CA        16.2200   38.0740    8.5210 C.3    60  GLN60       0.1698
     14  C         14.8750   38.2180    9.2250 C.2    60  GLN60       0.2592
     15  O         14.5570   39.2310    9.8470 O.2    60  GLN60      -0.2718
     16  CB        17.0330   39.3720    8.5020 C.3    60  GLN60       0.0381
     17  CG        18.4930   39.1110    8.1350 C.3    60  GLN60       0.0905
     18  CD        19.2170   38.3080    9.2010 C.2    60  GLN60       0.2608
     19  OE1       19.5100   37.1100    9.0280 O.2    60  GLN60      -0.2717
     20  NE2       19.5130   38.9590   10.3080 N.am   60  GLN60      -0.0878
     21  N         14.1070   37.1400    9.1540 N.am   61  PHE61      -0.1962
     22  CA        12.8360   37.0450    9.8500 C.3    61  PHE61       0.1771
     23  C         13.0090   36.7900   11.3300 C.2    61  PHE61       0.2619
     24  O         13.9440   36.1100   11.7550 O.2    61  PHE61      -0.2715
     25  CB        12.0220   35.8800    9.2770 C.3    61  PHE61       0.0574
     26  CG        11.3220   36.1960    7.9980 C.ar   61  PHE61      -0.0200
     27  CD1       11.9540   36.0220    6.7820 C.ar   61  PHE61      -0.0042
     28  CD2       10.0180   36.6610    8.0130 C.ar   61  PHE61      -0.0042
     29  CE1       11.2980   36.3310    5.5960 C.ar   61  PHE61      -0.0003
     30  CE2        9.3670   36.9580    6.8380 C.ar   61  PHE61      -0.0003
     31  CZ        10.0150   36.7980    5.6300 C.ar   61  PHE61      -0.0000
     32  N         12.0760   37.3100   12.1170 N.am   62  ASN62      -0.1972
     33  CA        11.8730   36.7900   13.4640 C.3    62  ASN62       0.1688
     34  C         10.7100   35.7930   13.4620 C.2    62  ASN62       0.2292
     35  O          9.9820   35.6520   12.4740 O.2    62  ASN62      -0.2864
     36  CB        11.6810   37.9050   14.5040 C.3    62  ASN62       0.1181
     37  CG        10.4140   38.7050   14.2970 C.2    62  ASN62       0.2629
     38  OD1        9.6040   38.4000   13.4280 O.2    62  ASN62      -0.2716
     39  ND2       10.2290   39.7350   15.1170 N.am   62  ASN62      -0.0877
     40  N          7.9080   35.7410   15.0920 N.3    64  GLN64      -0.1231
     41  CA         6.5680   36.3150   15.0640 C.3    64  GLN64       0.1698
     42  C          6.1180   36.6280   13.6350 C.2    64  GLN64       0.2592
     43  O          4.9830   36.3390   13.2540 O.2    64  GLN64      -0.2718
     44  CB         6.5120   37.5650   15.9350 C.3    64  GLN64       0.0381
     45  CG         5.1070   38.0010   16.2830 C.3    64  GLN64       0.0905
     46  CD         4.4150   38.7000   15.1320 C.2    64  GLN64       0.2608
     47  OE1        5.0640   39.2910   14.2680 O.2    64  GLN64      -0.2717
     48  NE2        3.0880   38.6360   15.1180 N.am   64  GLN64      -0.0878
     49  N          7.0110   37.1980   12.8300 N.am   65  THR65      -0.1953
     50  CA         6.6570   37.5690   11.4690 C.3    65  THR65       0.1897
     51  C          6.4740   36.3170   10.6280 C.2    65  THR65       0.2313
     52  O          5.5290   36.2040    9.8480 O.2    65  THR65      -0.2863
     53  CB         7.7320   38.4500   10.8490 C.3    65  THR65       0.1794
     54  OG1        7.8760   39.6310   11.6470 O.3    65  THR65      -0.2208
     55  CG2        7.3430   38.8450    9.4320 C.3    65  THR65       0.0378
     56  N          9.1720   45.3760    5.2990 N.3   122  HIS122     -0.1226
     57  CA         9.8940   44.1770    5.7090 C.3   122  HIS122      0.1752
     58  C         10.7060   44.4230    6.9760 C.2   122  HIS122      0.2596
     59  O         10.7070   43.6050    7.9100 O.2   122  HIS122     -0.2718
     60  CB        10.8170   43.7740    4.5560 C.3   122  HIS122      0.0759
     61  CG        11.5570   42.4990    4.7960 C.ar  122  HIS122      0.0818
     62  ND1       11.1130   41.2870    4.3180 N.ar  122  HIS122     -0.2268
     63  CD2       12.6850   42.2410    5.4980 C.ar  122  HIS122      0.1154
     64  CE1       11.9510   40.3370    4.6980 C.ar  122  HIS122      0.1986
     65  NE2       12.9070   40.8880    5.4210 N.ar  122  HIS122     -0.2212
     66  N         11.3960   45.5510    7.0200 N.am  123  ASN123     -0.1960
     67  CA        12.3400   45.8700    8.0780 C.3   123  ASN123      0.1819
     68  C         11.6520   46.2110    9.3930 C.2   123  ASN123      0.2621
     69  O         12.0610   45.7400   10.4520 O.2   123  ASN123     -0.2715
     70  CB        13.2050   47.0440    7.6090 C.3   123  ASN123      0.1195
     71  CG        14.1980   47.5080    8.6500 C.2   123  ASN123      0.2630
     72  OD1       13.8920   48.3440    9.4790 O.2   123  ASN123     -0.2716
     73  ND2       15.4220   47.0170    8.5550 N.am  123  ASN123     -0.0877
     74  N         10.6110   47.0350    9.3380 N.am  124  GLN124     -0.1963
     75  CA         9.9680   47.5430   10.5420 C.3   124  GLN124      0.1733
     76  C          8.7020   46.7940   10.9070 C.2   124  GLN124      0.2616
     77  O          8.1930   46.9570   12.0150 O.2   124  GLN124     -0.2715
     78  CB         9.6220   49.0200   10.3650 C.3   124  GLN124      0.0408
     79  CG        10.8270   49.9420   10.2580 C.3   124  GLN124      0.0908
     80  CD        11.5300   50.1450   11.5870 C.2   124  GLN124      0.2608
     81  OE1       10.9460   50.6610   12.5380 O.2   124  GLN124     -0.2717
     82  NE2       12.7890   49.7430   11.6520 N.am  124  GLN124     -0.0878
     83  N          8.1810   45.9950    9.9840 N.am  125  GLY125     -0.1955
     84  CA         6.8480   45.4310   10.1320 C.3   125  GLY125      0.1869
     85  C          5.8190   46.4390    9.6630 C.2   125  GLY125      0.2309
     86  O          6.0450   47.6480    9.7310 O.2   125  GLY125     -0.2863
     87  N         11.6150   51.2240   15.5220 N.3   140  TYR140     -0.1241
     88  CA        12.7710   50.3840   15.7950 C.3   140  TYR140      0.1605
     89  C         13.9870   50.9850   15.0730 C.2   140  TYR140      0.2264
     90  O         14.3800   50.5240   14.0040 O.2   140  TYR140     -0.2867
     91  CB        12.5000   48.9510   15.3180 C.3   140  TYR140      0.0534
     92  CG        11.2100   48.3390   15.8530 C.ar  140  TYR140     -0.0201
     93  CD1       11.0910   47.9550   17.1880 C.ar  140  TYR140     -0.0009
     94  CD2       10.1150   48.1370   15.0200 C.ar  140  TYR140     -0.0009
     95  CE1        9.9110   47.3990   17.6720 C.ar  140  TYR140      0.0417
     96  CE2        8.9400   47.5800   15.4950 C.ar  140  TYR140      0.0417
     97  CZ         8.8450   47.2100   16.8170 C.ar  140  TYR140      0.1957
     98  OH         7.6700   46.6560   17.2860 O.3   140  TYR140     -0.2866
     99  N         18.9790   50.2490   13.2620 N.3   143  GLN143     -0.1245
    100  CA        19.1540   49.5720   11.9870 C.3   143  GLN143      0.1566
    101  C         20.4940   49.9670   11.3810 C.2   143  GLN143      0.2260
    102  O         21.0930   50.9680   11.7700 O.2   143  GLN143     -0.2867
    103  CB        18.0250   49.9520   11.0260 C.3   143  GLN143      0.0367
    104  CG        16.6280   49.7800   11.6100 C.3   143  GLN143      0.0905
    105  CD        16.3040   48.3400   11.9500 C.2   143  GLN143      0.2608
    106  OE1       16.7610   47.4100   11.2790 O.2   143  GLN143     -0.2717
    107  NE2       15.5160   48.1460   12.9970 N.am  143  GLN143     -0.0878
@<TRIPOS>BOND
     1    62    64   ar
     2    62    61   ar
     3    60    61    1
     4    60    57    1
     5    64    65   ar
     6    61    63   ar
     7    56    57    1
     8    65    63   ar
     9    29    31   ar
    10    29    27   ar
    11    31    30   ar
    12    57    58    1
    13    27    26   ar
    14    30    28   ar
    15    58    66   am
    16    58    59    2
    17    66    67    1
    18    12    13    1
    19    70    67    1
    20    70    71    1
    21    26    28   ar
    22    26    25    1
    23    67    68    1
    24    17    16    1
    25    17    18    1
    26    16    13    1
    27    13    14    1
    28    73    71   am
    29    71    72    2
    30    19    18    2
    31    21    14   am
    32    21    22    1
    33    18    20   am
    34    14    15    2
    35    25    22    1
    36    74    68   am
    37    74    75    1
    38    68    69    2
    39    55    53    1
    40    85    86    2
    41    85    84    1
    42    52    51    2
    43    22    23    1
    44    83    84    1
    45    83    76   am
    46    79    78    1
    47    79    80    1
    48    78    75    1
    49    75    76    1
    50    51    50    1
    51    53    50    1
    52    53    54    1
    53    76    77    2
    54   103   104    1
    55   103   100    1
    56   106   105    2
    57    23    24    2
    58    23    32   am
    59   101   102    2
    60   101   100    1
    61    50    49    1
    62    80    82   am
    63    80    81    2
    64   104   105    1
    65   105   107   am
    66   100    99    1
    67    32    33    1
    68     3     4    2
    69     3     2    1
    70    35    34    2
    71    49    42   am
    72     5     2    1
    73     5     6    1
    74     2     1    1
    75     8     6   ar
    76     8    10   ar
    77    43    42    2
    78    38    37    2
    79    34    33    1
    80    33    36    1
    81     6     7   ar
    82    42    41    1
    83    10    11   ar
    84    90    89    2
    85    47    46    2
    86    37    36    1
    87    37    39   am
    88     7     9   ar
    89    94    96   ar
    90    94    92   ar
    91    41    40    1
    92    41    44    1
    93    89    88    1
    94    11     9   ar
    95    48    46   am
    96    46    45    1
    97    91    88    1
    98    91    92    1
    99    96    97   ar
   100    87    88    1
   101    92    93   ar
   102    44    45    1
   103    97    98    1
   104    97    95   ar
   105    93    95   ar
