@<TRIPOS>MOLECULE
tmp/4dq6A00.pdb
 110 103 0 0 0
SMALL
GASTEIGER

@<TRIPOS>ATOM
      1  N         -3.5950   18.1900   58.4970 N.3    37  ALA37      -0.1245
      2  CA        -4.0810   19.4390   57.8990 C.3    37  ALA37       0.1562
      3  C         -3.0190   20.1450   57.0510 C.2    37  ALA37       0.2260
      4  O         -2.4850   21.1960   57.4150 O.2    37  ALA37      -0.2867
      5  CB        -4.6010   20.3700   59.0410 C.3    37  ALA37       0.0290
      6  N          6.6410   28.5620   63.7770 N.3    95  GLY95      -0.1210
      7  CA         5.3110   27.9570   63.9560 C.3    95  GLY95       0.1956
      8  C          4.5200   28.5220   65.1140 C.2    95  GLY95       0.2612
      9  O          5.0360   29.1720   66.0690 O.2    95  GLY95      -0.2717
     10  N          3.2290   28.2380   65.0840 N.am   96  VAL96      -0.1965
     11  CA         2.3520   28.6900   66.1500 C.3    96  VAL96       0.1727
     12  C          2.6860   28.0170   67.4420 C.2    96  VAL96       0.2616
     13  O          2.7660   28.7070   68.4620 O.2    96  VAL96      -0.2715
     14  CB         0.8830   28.4650   65.7560 C.3    96  VAL96       0.0290
     15  CG1       -0.0540   28.6670   66.9510 C.3    96  VAL96       0.0023
     16  CG2        0.5400   29.4230   64.6000 C.3    96  VAL96       0.0023
     17  N          2.8450   26.7050   67.4610 N.am   97  ILE97      -0.1964
     18  CA         3.0550   26.0490   68.7550 C.3    97  ILE97       0.1712
     19  C          4.3940   26.4230   69.4080 C.2    97  ILE97       0.2458
     20  O          4.4700   26.6790   70.6060 O.2    97  ILE97      -0.2730
     21  CB         2.8620   24.5380   68.6350 C.3    97  ILE97       0.0289
     22  CG1        1.4150   24.2760   68.2120 C.3    97  ILE97       0.0022
     23  CG2        3.1960   23.8740   69.9860 C.3    97  ILE97       0.0023
     24  CD1        0.3440   24.7290   69.1850 C.3    97  ILE97       0.0001
     25  N          5.4830   26.6060   68.6380 N.am   98  PRO98      -0.2727
     26  CA         6.6940   27.1120   69.2330 C.3    98  PRO98       0.1402
     27  C          6.4950   28.4380   69.9620 C.2    98  PRO98       0.2269
     28  O          7.0120   28.6410   71.0630 O.2    98  PRO98      -0.2865
     29  CB         7.5980   27.3190   68.0310 C.3    98  PRO98       0.0296
     30  CG         7.1720   26.3090   67.0250 C.3    98  PRO98       0.0237
     31  CD         5.7100   26.0700   67.2850 C.3    98  PRO98       0.0939
     32  N         -7.4550   20.8640   68.9310 N.3   121  TYR121     -0.1241
     33  CA        -6.0920   20.6450   68.3640 C.3   121  TYR121      0.1605
     34  C         -5.1750   20.1310   69.4770 C.2   121  TYR121      0.2264
     35  O         -5.0170   20.8030   70.5040 O.2   121  TYR121     -0.2867
     36  CB        -5.6000   21.9560   67.8160 C.3   121  TYR121      0.0534
     37  CG        -4.2760   21.8770   67.0980 C.ar  121  TYR121     -0.0201
     38  CD1       -4.0900   21.0000   66.0620 C.ar  121  TYR121     -0.0009
     39  CD2       -3.2270   22.7270   67.4560 C.ar  121  TYR121     -0.0009
     40  CE1       -2.8890   20.9140   65.4110 C.ar  121  TYR121      0.0417
     41  CE2       -1.9900   22.6550   66.7850 C.ar  121  TYR121      0.0417
     42  CZ        -1.8540   21.7340   65.7730 C.ar  121  TYR121      0.1957
     43  OH        -0.6570   21.5950   65.0410 O.3   121  TYR121     -0.2866
     44  N         -8.8620   28.7770   70.5680 N.3   168  CYS168     -0.1235
     45  CA        -8.7380   28.4470   69.1610 C.3   168  CYS168      0.1677
     46  C         -9.8560   29.1120   68.3690 C.2   168  CYS168      0.2270
     47  O        -11.0100   28.8350   68.6320 O.2   168  CYS168     -0.2867
     48  CB        -8.7990   26.9190   69.0220 C.3   168  CYS168      0.0956
     49  SG        -8.1000   26.2440   67.5070 S.3   168  CYS168     -0.0801
     50  N        -10.5920   24.3710   65.7570 N.3   172  ASN172     -0.1240
     51  CA       -10.3100   23.0340   65.2090 C.3   172  ASN172      0.1653
     52  C        -10.4050   22.0250   66.3500 C.2   172  ASN172      0.2266
     53  O         -9.7030   22.1880   67.3530 O.2   172  ASN172     -0.2867
     54  CB        -8.8980   23.0820   64.6010 C.3   172  ASN172      0.1155
     55  CG        -8.2800   21.7410   64.3730 C.2   172  ASN172      0.2627
     56  OD1       -8.9170   20.7150   64.3280 O.2   172  ASN172     -0.2716
     57  ND2       -6.9390   21.7660   64.1320 N.am  172  ASN172     -0.0877
     58  N         -5.0720   31.4450   69.1300 N.3   200  ASP200     -0.1239
     59  CA        -4.5490   30.8070   67.9500 C.3   200  ASP200      0.1674
     60  C         -5.5760   30.9670   66.8350 C.2   200  ASP200      0.2266
     61  O         -6.5800   30.2590   66.7780 O.2   200  ASP200     -0.2867
     62  CB        -4.2840   29.3330   68.2610 C.3   200  ASP200      0.1410
     63  CG        -3.7660   28.5380   67.1120 C.2   200  ASP200      0.3668
     64  OD1       -3.7330   29.0430   65.9890 O.co2 200  ASP200     -0.2456
     65  OD2       -3.3490   27.3900   67.3530 O.co2 200  ASP200     -0.2456
     66  N         -4.8590   30.6110   63.6030 N.3   202  ILE202     -0.1231
     67  CA        -4.1780   30.1750   62.3880 C.3   202  ILE202      0.1692
     68  C         -5.2060   29.8960   61.2640 C.2   202  ILE202      0.2592
     69  O         -4.8810   30.0640   60.0650 O.2   202  ILE202     -0.2718
     70  CB        -3.2560   28.9890   62.5980 C.3   202  ILE202      0.0266
     71  CG1       -2.2950   28.8130   61.3730 C.3   202  ILE202      0.0019
     72  CG2       -4.0520   27.7380   62.8180 C.3   202  ILE202      0.0020
     73  CD1       -1.2160   27.7560   61.5870 C.3   202  ILE202      0.0001
     74  N         -6.4240   29.4770   61.5580 N.am  203  HIS203     -0.1976
     75  CA        -7.4150   29.1920   60.4750 C.3   203  HIS203      0.1656
     76  C         -8.2330   30.4060   60.0700 C.2   203  HIS203      0.2291
     77  O         -9.2830   30.2770   59.4230 O.2   203  HIS203     -0.2864
     78  CB        -8.3770   28.0730   60.8740 C.3   203  HIS203      0.0771
     79  CG        -7.7300   26.7600   61.2000 C.ar  203  HIS203      0.0820
     80  ND1       -7.5120   25.7860   60.2250 N.ar  203  HIS203     -0.2267
     81  CD2       -7.1880   26.2750   62.3810 C.ar  203  HIS203      0.1154
     82  CE1       -6.9040   24.7390   60.8030 C.ar  203  HIS203      0.1986
     83  NE2       -6.6770   25.0370   62.1250 N.ar  203  HIS203     -0.2212
     84  N          0.3350   29.6820   56.5780 N.3   234  THR234     -0.1203
     85  CA         0.6060   28.3000   56.2550 C.3   234  THR234      0.1994
     86  C         -0.6460   27.4810   56.0110 C.2   234  THR234      0.2617
     87  O         -0.6720   26.6710   55.1020 O.2   234  THR234     -0.2717
     88  CB         1.4830   27.5900   57.2760 C.3   234  THR234      0.1784
     89  OG1        0.8740   27.7710   58.5360 O.3   234  THR234     -0.2211
     90  CG2        2.8610   28.1880   57.3140 C.3   234  THR234      0.0376
     91  N         -1.6400   27.5940   56.8650 N.am  235  LYS235     -0.1979
     92  CA        -2.8960   26.8280   56.6770 C.3   235  LYS235      0.1596
     93  C         -3.6010   27.4080   55.4460 C.2   235  LYS235      0.2287
     94  O         -4.0800   26.6510   54.6030 O.2   235  LYS235     -0.2864
     95  CB        -3.8510   26.9000   57.8550 C.3   235  LYS235      0.0298
     96  CG        -3.3710   26.1190   59.0610 C.3   235  LYS235      0.0038
     97  CD        -3.6480   24.6030   58.9350 C.3   235  LYS235      0.0206
     98  CE        -2.6890   23.7310   59.7660 C.3   235  LYS235      0.1093
     99  NZ        -3.0670   23.5030   61.1780 N.3   235  LYS235     -0.1314
    100  N          2.9240   25.0500   54.8820 N.3   240  ALA240     -0.1245
    101  CA         3.4360   24.6160   56.2370 C.3   240  ALA240      0.1562
    102  C          4.8890   24.1530   56.1070 C.2   240  ALA240      0.2260
    103  O          5.6780   24.3070   57.0330 O.2   240  ALA240     -0.2867
    104  CB         2.5830   23.5290   56.8660 C.3   240  ALA240      0.0290
    105  N          5.2580   31.9130   60.6030 N.3   245  SER245     -0.1217
    106  CA         4.1010   32.3360   61.3400 C.3   245  SER245      0.1889
    107  C          4.4950   33.6420   62.0440 C.2   245  SER245      0.2288
    108  O          5.6470   34.0910   62.0050 O.2   245  SER245     -0.2866
    109  CB         3.6500   31.2960   62.3140 C.3   245  SER245      0.2089
    110  OG         4.5150   31.2410   63.4160 O.3   245  SER245     -0.2183
@<TRIPOS>BOND
     1    94    93    2
     2   100   101    1
     3    87    86    2
     4    93    92    1
     5    86    85    1
     6    86    91   am
     7   102   101    1
     8   102   103    2
     9   101   104    1
    10    85    84    1
    11    85    88    1
    12    92    91    1
    13    92    95    1
    14     3     4    2
    15     3     2    1
    16    88    90    1
    17    88    89    1
    18    95    96    1
    19     2     1    1
    20     2     5    1
    21    97    96    1
    22    97    98    1
    23    77    76    2
    24    98    99    1
    25    69    68    2
    26    76    75    1
    27    80    82   ar
    28    80    79   ar
    29    75    78    1
    30    75    74    1
    31   105   106    1
    32    82    83   ar
    33    78    79    1
    34    79    81   ar
    35    68    74   am
    36    68    67    1
    37   106   107    1
    38   106   109    1
    39    71    73    1
    40    71    70    1
    41   108   107    2
    42    83    81   ar
    43   109   110    1
    44    67    70    1
    45    67    66    1
    46    70    72    1
    47     6     7    1
    48     7     8    1
    49    57    55   am
    50    56    55    2
    51    55    54    1
    52    16    14    1
    53    54    51    1
    54    43    42    1
    55    10     8   am
    56    10    11    1
    57     8     9    2
    58    51    50    1
    59    51    52    1
    60    40    42   ar
    61    40    38   ar
    62    14    11    1
    63    14    15    1
    64    42    41   ar
    65    64    63   ar
    66    38    37   ar
    67    11    12    1
    68    52    53    2
    69    61    60    2
    70    41    39   ar
    71    60    59    1
    72    30    31    1
    73    30    29    1
    74    37    39   ar
    75    37    36    1
    76    63    65   ar
    77    63    62    1
    78    31    25    1
    79    12    17   am
    80    12    13    2
    81    17    18    1
    82    49    48    1
    83    36    33    1
    84    59    62    1
    85    59    58    1
    86    29    26    1
    87    22    21    1
    88    22    24    1
    89    33    32    1
    90    33    34    1
    91    46    47    2
    92    46    45    1
    93    21    18    1
    94    21    23    1
    95    25    26    1
    96    25    19   am
    97    18    19    1
    98    48    45    1
    99    45    44    1
   100    26    27    1
   101    19    20    2
   102    34    35    2
   103    27    28    2
