@<TRIPOS>MOLECULE
tmp/4dqdA00.pdb
 118 111 0 0 0
SMALL
GASTEIGER

@<TRIPOS>ATOM
      1  N         14.1130    9.2820   21.5090 N.3    17  LEU17      -0.1245
      2  CA        13.1910    8.1780   21.7660 C.3    17  LEU17       0.1561
      3  C         12.3510    8.4440   23.0120 C.2    17  LEU17       0.2260
      4  O         11.1300    8.2630   23.0000 O.2    17  LEU17      -0.2867
      5  CB        13.9560    6.8600   21.9170 C.3    17  LEU17       0.0270
      6  CG        14.6910    6.3490   20.6720 C.3    17  LEU17       0.0019
      7  CD1       16.0470    7.0470   20.5180 C.3    17  LEU17       0.0001
      8  CD2       14.8890    4.8400   20.7490 C.3    17  LEU17       0.0001
      9  N         13.7880    3.1370   27.2600 N.3    71  SER71      -0.1202
     10  CA        13.7220    3.4770   25.8340 C.3    71  SER71       0.2020
     11  C         14.8080    2.7750   25.0300 C.2    71  SER71       0.2619
     12  O         14.6630    2.5830   23.8100 O.2    71  SER71      -0.2717
     13  CB        13.9280    4.9830   25.6520 C.3    71  SER71       0.2103
     14  OG        13.0170    5.7360   26.4250 O.3    71  SER71      -0.2182
     15  N         15.8960    2.4090   25.7020 N.am   72  LEU72      -0.1965
     16  CA        17.0870    1.8770   25.0500 C.3    72  LEU72       0.1728
     17  C         17.4200    0.5100   25.6050 C.2    72  LEU72       0.2616
     18  O         17.1010    0.1970   26.7570 O.2    72  LEU72      -0.2715
     19  CB        18.2940    2.7970   25.2910 C.3    72  LEU72       0.0311
     20  CG        18.0680    4.3050   25.1280 C.3    72  LEU72       0.0022
     21  CD1       19.3750    5.0730   25.3970 C.3    72  LEU72       0.0001
     22  CD2       17.5360    4.6310   23.7330 C.3    72  LEU72       0.0001
     23  N         18.0900   -0.2940   24.7940 N.am   73  THR73      -0.1951
     24  CA        18.4560   -1.6430   25.2050 C.3    73  THR73       0.1897
     25  C         19.3640   -1.7350   26.4450 C.2    73  THR73       0.2313
     26  O         19.0410   -2.4620   27.3870 O.2    73  THR73      -0.2863
     27  CB        19.0370   -2.4300   24.0220 C.3    73  THR73       0.1794
     28  OG1       17.9960   -2.6160   23.0510 O.3    73  THR73      -0.2208
     29  CG2       19.5570   -3.7960   24.4810 C.3    73  THR73       0.0378
     30  N         12.3020   -0.8660   24.3690 N.3    92  ALA92      -0.1231
     31  CA        13.5240   -0.9900   23.5680 C.3    92  ALA92       0.1694
     32  C         13.4650   -2.1620   22.5720 C.2    92  ALA92       0.2591
     33  O         12.4580   -2.8690   22.4990 O.2    92  ALA92      -0.2718
     34  CB        14.7420   -1.0980   24.4820 C.3    92  ALA92       0.0304
     35  N         14.5320   -2.3630   21.7940 N.am   93  ALA93      -0.1980
     36  CA        14.3920   -3.1750   20.5750 C.3    93  ALA93       0.1597
     37  C         15.1330   -4.5110   20.5310 C.2    93  ALA93       0.2287
     38  O         14.7230   -5.4110   19.7970 O.2    93  ALA93      -0.2864
     39  CB        14.7830   -2.3430   19.3490 C.3    93  ALA93       0.0319
     40  N          8.1240   -3.4880   20.4870 N.3   111  VAL111     -0.1245
     41  CA         8.9610   -3.2040   19.3200 C.3   111  VAL111      0.1561
     42  C          9.4250   -4.5360   18.7350 C.2   111  VAL111      0.2260
     43  O          9.8770   -5.4000   19.4700 O.2   111  VAL111     -0.2867
     44  CB        10.2020   -2.3800   19.6980 C.3   111  VAL111      0.0252
     45  CG1       11.1400   -2.2450   18.4820 C.3   111  VAL111      0.0019
     46  CG2        9.7780   -1.0050   20.2240 C.3   111  VAL111      0.0019
     47  N         22.4820   -3.3070   21.6120 N.3   141  TYR141     -0.1241
     48  CA        21.6470   -2.9550   20.4630 C.3   141  TYR141      0.1605
     49  C         22.4440   -3.1030   19.1760 C.2   141  TYR141      0.2264
     50  O         22.0350   -3.8080   18.2610 O.2   141  TYR141     -0.2867
     51  CB        21.1000   -1.5320   20.5760 C.3   141  TYR141      0.0534
     52  CG        20.2990   -1.1180   19.3630 C.ar  141  TYR141     -0.0201
     53  CD1       19.0060   -1.5990   19.1730 C.ar  141  TYR141     -0.0009
     54  CD2       20.8210   -0.2390   18.4250 C.ar  141  TYR141     -0.0009
     55  CE1       18.2580   -1.2310   18.0660 C.ar  141  TYR141      0.0417
     56  CE2       20.0750    0.1350   17.2920 C.ar  141  TYR141      0.0417
     57  CZ        18.7840   -0.3600   17.1430 C.ar  141  TYR141      0.1957
     58  OH        18.0160   -0.0040   16.0520 O.3   141  TYR141     -0.2866
     59  N         27.4800    6.0580   22.0580 N.3   168  ARG168     -0.1245
     60  CA        26.3840    6.9240   21.6070 C.3   168  ARG168      0.1563
     61  C         26.6870    8.4210   21.5980 C.2   168  ARG168      0.2260
     62  O         26.2550    9.1330   20.6970 O.2   168  ARG168     -0.2867
     63  CB        25.0950    6.6470   22.3860 C.3   168  ARG168      0.0307
     64  CG        24.6520    5.2040   22.3040 C.3   168  ARG168      0.0489
     65  CD        23.2230    5.0050   22.8120 C.3   168  ARG168      0.2205
     66  NE        22.9030    3.5840   22.8020 N.pl3 168  ARG168     -0.0865
     67  CZ        21.7290    3.0710   22.4440 C.cat 168  ARG168      0.5346
     68  NH1       20.7200    3.8590   22.0690 N.pl3 168  ARG168      0.1354
     69  NH2       21.5690    1.7550   22.4470 N.pl3 168  ARG168      0.1354
     70  N         20.7380    4.5290   16.8100 N.3   193  ALA193     -0.1245
     71  CA        19.3810    4.9460   17.1620 C.3   193  ALA193      0.1562
     72  C         19.3850    6.3850   17.6220 C.2   193  ALA193      0.2260
     73  O         20.3690    6.8490   18.2220 O.2   193  ALA193     -0.2867
     74  CB        18.8060    4.0570   18.2710 C.3   193  ALA193      0.0290
     75  N         15.5520    0.7030   12.4510 N.3   217  HIS217     -0.1226
     76  CA        14.3670    1.4060   12.9410 C.3   217  HIS217      0.1752
     77  C         14.6300    2.3440   14.1260 C.2   217  HIS217      0.2596
     78  O         13.7430    3.0810   14.5410 O.2   217  HIS217     -0.2718
     79  CB        13.2110    0.4360   13.2310 C.3   217  HIS217      0.0759
     80  CG        13.5330   -0.6250   14.2400 C.ar  217  HIS217      0.0818
     81  ND1       12.5780   -1.5070   14.7060 N.ar  217  HIS217     -0.2268
     82  CD2       14.6860   -0.9520   14.8730 C.ar  217  HIS217      0.1154
     83  CE1       13.1270   -2.3240   15.5870 C.ar  217  HIS217      0.1986
     84  NE2       14.4070   -2.0100   15.7090 N.ar  217  HIS217     -0.2212
     85  N         15.8560    2.3450   14.6440 N.am  218  GLY218     -0.1957
     86  CA        16.2480    3.3510   15.6130 C.3   218  GLY218      0.1869
     87  C         16.2650    4.7610   15.0410 C.2   218  GLY218      0.2309
     88  O         16.3150    5.7260   15.8020 O.2   218  GLY218     -0.2863
     89  N          8.7450   -0.5410   11.2190 N.3   240  GLU240     -0.1245
     90  CA         7.3830   -0.8390   11.6480 C.3   240  GLU240      0.1567
     91  C          6.3080   -0.3130   10.7120 C.2   240  GLU240      0.2260
     92  O          6.5030    0.6590    9.9860 O.2   240  GLU240     -0.2867
     93  CB         7.1420   -0.2320   13.0260 C.3   240  GLU240      0.0388
     94  CG         7.8770   -0.9550   14.1610 C.3   240  GLU240      0.1160
     95  CD         9.3730   -0.7030   14.1690 C.2   240  GLU240      0.3649
     96  OE1        9.7930    0.4750   14.1990 O.co2 240  GLU240     -0.2457
     97  OE2       10.1350   -1.6910   14.1340 O.co2 240  GLU240     -0.2457
     98  N          8.4440    7.0090   18.3290 N.3   276  PHE276     -0.1241
     99  CA         8.8640    6.4290   19.6010 C.3   276  PHE276      0.1605
    100  C          7.8150    6.5150   20.6960 C.2   276  PHE276      0.2264
    101  O          7.7740    5.6680   21.5890 O.2   276  PHE276     -0.2867
    102  CB        10.2490    6.9510   20.0020 C.3   276  PHE276      0.0534
    103  CG        11.2990    6.5150   19.0340 C.ar  276  PHE276     -0.0203
    104  CD1       11.7730    7.3820   18.0650 C.ar  276  PHE276     -0.0042
    105  CD2       11.7320    5.1980   19.0300 C.ar  276  PHE276     -0.0042
    106  CE1       12.7030    6.9460   17.1330 C.ar  276  PHE276     -0.0003
    107  CE2       12.6450    4.7580   18.1170 C.ar  276  PHE276     -0.0003
    108  CZ        13.1380    5.6320   17.1570 C.ar  276  PHE276     -0.0000
    109  N          5.6090    3.4430   21.1050 N.3   279  HIS279     -0.1241
    110  CA         6.0520    2.2800   21.8680 C.3   279  HIS279      0.1621
    111  C          5.4670    2.2710   23.2810 C.2   279  HIS279      0.2264
    112  O          5.2660    1.2100   23.8680 O.2   279  HIS279     -0.2867
    113  CB         7.5690    2.1960   21.8770 C.3   279  HIS279      0.0745
    114  CG         8.1640    2.1730   20.5080 C.ar  279  HIS279      0.0817
    115  ND1        7.4800    1.6920   19.4120 N.ar  279  HIS279     -0.2268
    116  CD2        9.3800    2.5630   20.0520 C.ar  279  HIS279      0.1154
    117  CE1        8.2440    1.7940   18.3380 C.ar  279  HIS279      0.1986
    118  NE2        9.4030    2.3120   18.7000 N.ar  279  HIS279     -0.2212
@<TRIPOS>BOND
     1    92    91    2
     2    91    90    1
     3    89    90    1
     4    90    93    1
     5    75    76    1
     6    76    79    1
     7    76    77    1
     8    93    94    1
     9    79    80    1
    10    77    78    2
    11    77    85   am
    12    97    95   ar
    13    94    95    1
    14    95    96   ar
    15    80    81   ar
    16    80    82   ar
    17    85    86    1
    18    81    83   ar
    19    82    84   ar
    20    87    86    1
    21    87    88    2
    22    83    84   ar
    23    58    57    1
    24    70    71    1
    25   106   108   ar
    26   106   104   ar
    27    57    56   ar
    28    57    55   ar
    29   108   107   ar
    30    71    72    1
    31    71    74    1
    32    56    54   ar
    33    72    73    2
    34   104   103   ar
    35    55    53   ar
    36   107   105   ar
    37    50    49    2
    38    98    99    1
    39   117   118   ar
    40   117   115   ar
    41    54    52   ar
    42    45    44    1
    43   118   116   ar
    44    42    41    1
    45    42    43    2
    46   105   103   ar
    47   103   102    1
    48    53    52   ar
    49    49    48    1
    50    41    44    1
    51    41    40    1
    52    39    36    1
    53    52    51    1
    54   115   114   ar
    55    99   102    1
    56    99   100    1
    57    44    46    1
    58    38    37    2
    59   116   114   ar
    60    48    51    1
    61    48    47    1
    62   114   113    1
    63     7     6    1
    64    37    36    1
    65    36    35    1
    66     6     8    1
    67     6     5    1
    68   100   101    2
    69    62    61    2
    70   109   110    1
    71     1     2    1
    72    61    60    1
    73    60    59    1
    74    60    63    1
    75     2     5    1
    76     2     3    1
    77    35    32   am
    78   110   113    1
    79   110   111    1
    80    68    67    1
    81    64    63    1
    82    64    65    1
    83    67    69    1
    84    67    66    2
    85    33    32    2
    86    32    31    1
    87    66    65    1
    88     4     3    2
    89    28    27    1
    90   111   112    2
    91    31    30    1
    92    31    34    1
    93    22    20    1
    94    12    11    2
    95    27    29    1
    96    27    24    1
    97    23    24    1
    98    23    17   am
    99    11    15   am
   100    11    10    1
   101    16    19    1
   102    16    17    1
   103    16    15    1
   104    20    19    1
   105    20    21    1
   106    24    25    1
   107    17    18    2
   108    13    10    1
   109    13    14    1
   110    10     9    1
   111    25    26    2
