@<TRIPOS>MOLECULE
tmp/4dqjA00.pdb
 111 105 0 0 0
SMALL
GASTEIGER

@<TRIPOS>ATOM
      1  N        -11.6680   20.3100   -7.9570 N.3    58  ASN58      -0.1240
      2  CA       -11.1720   21.6530   -8.2090 C.3    58  ASN58       0.1653
      3  C        -11.2130   22.4910   -6.9480 C.2    58  ASN58       0.2266
      4  O        -11.7440   22.0690   -5.9220 O.2    58  ASN58      -0.2867
      5  CB       -11.8450   22.3120   -9.4170 C.3    58  ASN58       0.1155
      6  CG       -13.3020   22.6850   -9.1720 C.2    58  ASN58       0.2627
      7  OD1      -13.7340   22.8510   -8.0420 O.2    58  ASN58      -0.2716
      8  ND2      -14.0710   22.7740  -10.2500 N.am   58  ASN58      -0.0877
      9  N        -12.5490   25.3210   -6.2030 N.3    60  GLN60      -0.1231
     10  CA       -13.8230   25.9100   -5.8240 C.3    60  GLN60       0.1698
     11  C        -14.6900   24.9110   -5.0650 C.2    60  GLN60       0.2592
     12  O        -15.3090   25.2520   -4.0630 O.2    60  GLN60      -0.2718
     13  CB       -14.5400   26.4450   -7.0520 C.3    60  GLN60       0.0381
     14  CG       -13.8620   27.6350   -7.7240 C.3    60  GLN60       0.0905
     15  CD       -12.6280   27.2720   -8.5520 C.2    60  GLN60       0.2608
     16  OE1      -12.5380   26.1750   -9.1380 O.2    60  GLN60      -0.2717
     17  NE2      -11.6600   28.2020   -8.6050 N.am   60  GLN60      -0.0878
     18  N        -14.6640   23.6380   -5.4730 N.am   61  THR61      -0.1953
     19  CA       -15.4400   22.6360   -4.7720 C.3    61  THR61       0.1897
     20  C        -14.7970   22.2360   -3.4580 C.2    61  THR61       0.2313
     21  O        -15.4810   22.0370   -2.4720 O.2    61  THR61      -0.2863
     22  CB       -15.6940   21.4430   -5.7080 C.3    61  THR61       0.1794
     23  OG1      -16.3810   21.9350   -6.8800 O.3    61  THR61      -0.2208
     24  CG2      -16.5190   20.3770   -5.0220 C.3    61  THR61       0.0378
     25  N        -15.5290   24.9690   -1.2480 N.3    64  GLY64      -0.1210
     26  CA       -16.9570   24.8770   -0.9400 C.3    64  GLY64       0.1956
     27  C        -17.2440   23.9730    0.2370 C.2    64  GLY64       0.2611
     28  O        -18.1520   24.2510    1.0140 O.2    64  GLY64      -0.2717
     29  N        -16.4850   22.8690    0.3710 N.am   65  LEU65      -0.1979
     30  CA       -16.6540   22.0120    1.5510 C.3    65  LEU65       0.1596
     31  C        -16.1960   22.7180    2.8280 C.2    65  LEU65       0.2287
     32  O        -16.8290   22.6020    3.8830 O.2    65  LEU65      -0.2864
     33  CB       -15.8610   20.7170    1.3800 C.3    65  LEU65       0.0297
     34  CG       -16.3960   19.7580    0.3140 C.3    65  LEU65       0.0022
     35  CD1      -15.3650   18.6330    0.1650 C.3    65  LEU65       0.0001
     36  CD2      -17.7740   19.1880    0.6630 C.3    65  LEU65       0.0001
     37  N        -18.7160   24.9830    4.3840 N.3    68  LEU68      -0.1245
     38  CA       -19.7630   24.3020    5.1670 C.3    68  LEU68       0.1561
     39  C        -19.3530   24.0510    6.6060 C.2    68  LEU68       0.2260
     40  O        -20.1720   23.6010    7.4100 O.2    68  LEU68      -0.2867
     41  CB       -20.0500   22.9250    4.5730 C.3    68  LEU68       0.0270
     42  CG       -20.3070   22.8830    3.0840 C.3    68  LEU68       0.0019
     43  CD1      -20.5900   21.4580    2.6520 C.3    68  LEU68       0.0001
     44  CD2      -21.4660   23.7870    2.7420 C.3    68  LEU68       0.0001
     45  N        -18.3050   15.4230    0.4640 N.3    92  LEU92      -0.1245
     46  CA       -19.0550   15.7850   -0.7030 C.3    92  LEU92       0.1561
     47  C        -20.1780   14.7730   -0.9560 C.2    92  LEU92       0.2260
     48  O        -21.3050   15.1760   -1.2700 O.2    92  LEU92      -0.2867
     49  CB       -18.1260   15.9380   -1.9020 C.3    92  LEU92       0.0270
     50  CG       -18.7590   16.3720   -3.2010 C.3    92  LEU92       0.0019
     51  CD1      -19.3960   17.7590   -3.0610 C.3    92  LEU92       0.0001
     52  CD2      -17.7750   16.3580   -4.3550 C.3    92  LEU92       0.0001
     53  N        -23.0490   15.7060    1.4100 N.3    95  GLU95      -0.1231
     54  CA       -23.8220   16.8640    0.9310 C.3    95  GLU95       0.1699
     55  C        -24.7000   16.4660   -0.2560 C.2    95  GLU95       0.2592
     56  O        -25.8760   16.8470   -0.3330 O.2    95  GLU95      -0.2718
     57  CB       -22.9260   18.0340    0.5180 C.3    95  GLU95       0.0402
     58  CG       -23.7370   19.2800    0.1570 C.3    95  GLU95       0.1161
     59  CD       -22.9190   20.4810   -0.2460 C.2    95  GLU95       0.3649
     60  OE1      -22.1270   20.4040   -1.2080 O.co2  95  GLU95      -0.2457
     61  OE2      -23.1280   21.5700    0.3650 O.co2  95  GLU95      -0.2457
     62  N        -24.1320   15.6950   -1.1770 N.am   96  ASN96      -0.1974
     63  CA       -24.8920   15.2700   -2.3410 C.3    96  ASN96       0.1688
     64  C        -26.0010   14.3190   -2.0020 C.2    96  ASN96       0.2292
     65  O        -27.0740   14.3790   -2.6300 O.2    96  ASN96      -0.2864
     66  CB       -23.9310   14.6630   -3.3460 C.3    96  ASN96       0.1181
     67  CG       -23.0420   15.7180   -4.0010 C.2    96  ASN96       0.2629
     68  OD1      -23.4650   16.8650   -4.1520 O.2    96  ASN96      -0.2716
     69  ND2      -21.8830   15.3300   -4.4590 N.am   96  ASN96      -0.0877
     70  N        -23.1140   12.9660   -9.2430 N.3   117  TYR117     -0.1241
     71  CA       -23.0780   14.2060   -8.5230 C.3   117  TYR117      0.1605
     72  C        -21.6560   14.6870   -8.2900 C.2   117  TYR117      0.2264
     73  O        -21.3660   15.8740   -8.4400 O.2   117  TYR117     -0.2867
     74  CB       -23.8030   14.0560   -7.1420 C.3   117  TYR117      0.0534
     75  CG       -25.2840   14.3370   -7.1780 C.ar  117  TYR117     -0.0201
     76  CD1      -25.7960   15.4560   -6.5640 C.ar  117  TYR117     -0.0009
     77  CD2      -26.1700   13.4880   -7.8210 C.ar  117  TYR117     -0.0009
     78  CE1      -27.1580   15.7430   -6.6080 C.ar  117  TYR117      0.0417
     79  CE2      -27.5260   13.7740   -7.8530 C.ar  117  TYR117      0.0417
     80  CZ       -28.0010   14.8980   -7.2680 C.ar  117  TYR117      0.1957
     81  OH       -29.3610   15.1690   -7.3360 O.3   117  TYR117     -0.2866
     82  N        -20.2510   15.7570  -12.0150 N.3   120  GLN120     -0.1231
     83  CA       -20.9350   16.8370  -12.7220 C.3   120  GLN120      0.1698
     84  C        -21.1710   18.0270  -11.8210 C.2   120  GLN120      0.2593
     85  O        -21.4710   19.1180  -12.3200 O.2   120  GLN120     -0.2718
     86  CB       -22.2940   16.3850  -13.2700 C.3   120  GLN120      0.0381
     87  CG       -22.2100   15.3220  -14.3630 C.3   120  GLN120      0.0905
     88  CD       -23.5230   15.0780  -15.1060 C.2   120  GLN120      0.2608
     89  OE1      -24.5200   15.7890  -14.9400 O.2   120  GLN120     -0.2717
     90  NE2      -23.5160   14.0630  -15.9630 N.am  120  GLN120     -0.0878
     91  N        -21.0960   17.8250  -10.5030 N.am  121  GLY121     -0.1942
     92  CA       -21.5870   18.7960   -9.5440 C.3   121  GLY121      0.2014
     93  C        -23.0710   18.6570   -9.3420 C.2   121  GLY121      0.2639
     94  O        -23.7830   18.1640  -10.2090 O.2   121  GLY121     -0.2714
     95  N        -23.5630   19.0520   -8.1690 N.am  122  ALA122     -0.1963
     96  CA       -24.9530   18.8030   -7.8400 C.3   122  ALA122      0.1713
     97  C        -25.9460   19.5210   -8.7310 C.2   122  ALA122      0.2458
     98  O        -26.9740   18.9140   -9.0930 O.2   122  ALA122     -0.2730
     99  CB       -25.2310   19.0850   -6.3660 C.3   122  ALA122      0.0333
    100  N        -25.7310   20.7970   -9.0580 N.am  123  PRO123     -0.2716
    101  CA       -26.7110   21.4510   -9.9270 C.3   123  PRO123      0.1536
    102  C        -26.8300   20.7580  -11.2720 C.2   123  PRO123      0.2598
    103  O        -27.9600   20.4720  -11.7340 O.2   123  PRO123     -0.2715
    104  CB       -26.1620   22.8790  -10.0660 C.3   123  PRO123      0.0310
    105  CG       -25.3860   23.0830   -8.8060 C.3   123  PRO123      0.0237
    106  CD       -24.7480   21.7440   -8.5100 C.3   123  PRO123      0.0939
    107  N        -25.7200   20.4240  -11.9140 N.am  124  ALA124     -0.1978
    108  CA       -25.7980   19.7540  -13.2010 C.3   124  ALA124      0.1597
    109  C        -26.3350   18.3380  -13.0860 C.2   124  ALA124      0.2287
    110  O        -27.0920   17.8760  -13.9560 O.2   124  ALA124     -0.2864
    111  CB       -24.4690   19.7570  -13.9170 C.3   124  ALA124      0.0319
@<TRIPOS>BOND
     1    90    88   am
     2    88    89    2
     3    88    87    1
     4    87    86    1
     5   110   109    2
     6   111   108    1
     7    86    83    1
     8   108   109    1
     9   108   107    1
    10    83    82    1
    11    83    84    1
    12    85    84    2
    13   107   102   am
    14    84    91   am
    15   103   102    2
    16   102   101    1
    17    91    92    1
    18     8     6   am
    19    94    93    2
    20   104   101    1
    21   104   105    1
    22   101   100    1
    23    92    93    1
    24     5     6    1
    25     5     2    1
    26    93    95   am
    27    70    71    1
    28     6     7    2
    29    16    15    2
    30    98    97    2
    31   100    97   am
    32   100   106    1
    33   105   106    1
    34    97    96    1
    35    17    15   am
    36    15    14    1
    37    71    72    1
    38    71    74    1
    39    73    72    2
    40     2     1    1
    41     2     3    1
    42    95    96    1
    43    79    77   ar
    44    79    80   ar
    45    96    99    1
    46    77    75   ar
    47    14    13    1
    48    81    80    1
    49    80    78   ar
    50    75    74    1
    51    75    76   ar
    52    13    10    1
    53     3     4    2
    54    23    22    1
    55    78    76   ar
    56     9    10    1
    57    10    11    1
    58    22    24    1
    59    22    19    1
    60    18    11   am
    61    18    19    1
    62    11    12    2
    63    19    20    1
    64    69    67   am
    65    52    50    1
    66    68    67    2
    67    67    66    1
    68    20    21    2
    69    66    63    1
    70    50    51    1
    71    50    49    1
    72    65    64    2
    73    63    64    1
    74    63    62    1
    75    49    46    1
    76    48    47    2
    77    25    26    1
    78    60    59   ar
    79    62    55   am
    80    47    46    1
    81    26    27    1
    82    46    45    1
    83    56    55    2
    84    55    54    1
    85    59    58    1
    86    59    61   ar
    87    58    57    1
    88    35    34    1
    89    27    29   am
    90    27    28    2
    91    34    36    1
    92    34    33    1
    93    29    30    1
    94    57    54    1
    95    54    53    1
    96    33    30    1
    97    30    31    1
    98    43    42    1
    99    44    42    1
   100    31    32    2
   101    42    41    1
   102    37    38    1
   103    41    38    1
   104    38    39    1
   105    39    40    2
