@<TRIPOS>MOLECULE
tmp/4dqlB02.pdb
 91 86 0 0 0
SMALL
GASTEIGER

@<TRIPOS>ATOM
      1  N         51.1380   55.8200   83.0830 N.3    12  ALA12      -0.1245
      2  CA        51.9840   56.4820   84.0490 C.3    12  ALA12       0.1562
      3  C         52.8640   57.4880   83.3560 C.2    12  ALA12       0.2260
      4  O         53.1730   57.3450   82.1930 O.2    12  ALA12      -0.2867
      5  CB        52.8830   55.3950   84.8800 C.3    12  ALA12       0.0290
      6  N         56.1020   60.1550   84.7890 N.3    14  LYS14      -0.1231
      7  CA        56.7950   60.7810   85.9200 C.3    14  LYS14       0.1693
      8  C         58.1990   61.1220   85.6020 C.2    14  LYS14       0.2592
      9  O         58.7050   60.6860   84.5610 O.2    14  LYS14      -0.2718
     10  CB        56.8120   59.8370   87.1020 C.3    14  LYS14       0.0285
     11  CG        57.6290   58.5350   86.8100 C.3    14  LYS14       0.0035
     12  CD        57.6540   57.6310   88.0360 C.3    14  LYS14       0.0206
     13  CE        58.4900   56.3660   87.8200 C.3    14  LYS14       0.1093
     14  NZ        58.4470   55.4940   89.0320 N.3    14  LYS14      -0.1314
     15  N         58.7920   61.9100   86.5240 N.am   15  GLU15      -0.1966
     16  CA        60.1570   62.4200   86.4810 C.3    15  GLU15       0.1733
     17  C         61.1940   61.3700   86.9270 C.2    15  GLU15       0.2616
     18  O         61.0370   60.7190   87.9650 O.2    15  GLU15      -0.2715
     19  CB        60.2900   63.7440   87.3130 C.3    15  GLU15       0.0429
     20  CG        61.6790   64.3960   87.2500 C.3    15  GLU15       0.1163
     21  CD        62.1220   64.6210   85.8410 C.2    15  GLU15       0.3649
     22  OE1       61.2960   65.2260   85.1060 O.co2  15  GLU15      -0.2457
     23  OE2       63.2320   64.1490   85.4380 O.co2  15  GLU15      -0.2457
     24  N         62.2630   61.2380   86.1540 N.am   16  LEU16      -0.1977
     25  CA        63.3380   60.3210   86.4720 C.3    16  LEU16       0.1596
     26  C         64.5370   60.9830   87.1140 C.2    16  LEU16       0.2287
     27  O         65.2960   60.2970   87.8090 O.2    16  LEU16      -0.2864
     28  CB        63.7960   59.4720   85.2910 C.3    16  LEU16       0.0297
     29  CG        62.8080   58.4260   84.7750 C.3    16  LEU16       0.0022
     30  CD1       63.2860   57.8790   83.4040 C.3    16  LEU16       0.0001
     31  CD2       62.5310   57.2440   85.7400 C.3    16  LEU16       0.0001
     32  N         59.6780   59.1480   82.3880 N.3    27  HIS27      -0.1241
     33  CA        59.2370   57.7890   82.1760 C.3    27  HIS27       0.1621
     34  C         57.7240   57.7830   81.9410 C.2    27  HIS27       0.2264
     35  O         56.9220   58.2640   82.8120 O.2    27  HIS27      -0.2867
     36  CB        59.5090   57.0070   83.4340 C.3    27  HIS27       0.0745
     37  CG        59.1860   55.5870   83.3170 C.ar   27  HIS27       0.0817
     38  ND1       60.0720   54.6640   82.7910 N.ar   27  HIS27      -0.2268
     39  CD2       58.0520   54.9050   83.6250 C.ar   27  HIS27       0.1154
     40  CE1       59.4800   53.4760   82.7680 C.ar   27  HIS27       0.1986
     41  NE2       58.2530   53.6010   83.2430 N.ar   27  HIS27      -0.2212
     42  N         54.4280   55.1070   80.7500 N.3    29  GLU29      -0.1245
     43  CA        53.9160   53.7980   80.4420 C.3    29  GLU29       0.1567
     44  C         52.6540   54.0280   79.6150 C.2    29  GLU29       0.2260
     45  O         51.7950   54.8410   79.9910 O.2    29  GLU29      -0.2867
     46  CB        53.5210   53.0610   81.6980 C.3    29  GLU29       0.0388
     47  CG        54.6320   52.8310   82.7530 C.3    29  GLU29       0.1160
     48  CD        55.4490   51.5930   82.5420 C.2    29  GLU29       0.3649
     49  OE1       55.1240   50.7950   81.6210 O.co2  29  GLU29      -0.2457
     50  OE2       56.4260   51.4050   83.3290 O.co2  29  GLU29      -0.2457
     51  N         67.1130   48.7600   79.4470 N.3   242  ARG242     -0.1245
     52  CA        66.2030   48.4660   80.5480 C.3   242  ARG242      0.1563
     53  C         65.2540   47.3640   80.1440 C.2   242  ARG242      0.2260
     54  O         64.8490   46.5260   80.9810 O.2   242  ARG242     -0.2867
     55  CB        65.3630   49.6830   80.9330 C.3   242  ARG242      0.0307
     56  CG        64.3390   49.3820   82.0500 C.3   242  ARG242      0.0489
     57  CD        63.6580   50.6590   82.4620 C.3   242  ARG242      0.2205
     58  NE        62.6540   50.4330   83.4630 N.pl3 242  ARG242     -0.0865
     59  CZ        61.3510   50.2480   83.2890 C.cat 242  ARG242      0.5346
     60  NH1       60.7620   50.2200   82.0960 N.pl3 242  ARG242      0.1354
     61  NH2       60.6320   50.0590   84.3650 N.pl3 242  ARG242      0.1354
     62  N         67.0060   55.0910   86.3550 N.3   276  TYR276     -0.1241
     63  CA        66.7130   53.7130   86.6850 C.3   276  TYR276      0.1605
     64  C         67.7970   53.1120   87.6740 C.2   276  TYR276      0.2264
     65  O         67.9980   51.9080   87.7320 O.2   276  TYR276     -0.2867
     66  CB        66.5710   52.8840   85.4240 C.3   276  TYR276      0.0534
     67  CG        65.4620   53.3930   84.5240 C.ar  276  TYR276     -0.0201
     68  CD1       64.1130   53.3940   84.9240 C.ar  276  TYR276     -0.0009
     69  CD2       65.7560   53.8990   83.2820 C.ar  276  TYR276     -0.0009
     70  CE1       63.0900   53.8880   84.0770 C.ar  276  TYR276      0.0417
     71  CE2       64.7350   54.4100   82.4270 C.ar  276  TYR276      0.0417
     72  CZ        63.4470   54.3990   82.8120 C.ar  276  TYR276      0.1957
     73  OH        62.5260   54.8980   81.9270 O.3   276  TYR276     -0.2866
     74  N         67.9930   52.4660   90.9700 N.3   278  GLU278     -0.1231
     75  CA        67.5420   51.3520   91.8560 C.3   278  GLU278      0.1699
     76  C         67.3140   50.0900   91.0580 C.2   278  GLU278      0.2592
     77  O         67.7860   49.0210   91.4870 O.2   278  GLU278     -0.2718
     78  CB        66.2870   51.6980   92.7590 C.3   278  GLU278      0.0402
     79  CG        66.3740   52.7610   93.8240 C.3   278  GLU278      0.1161
     80  CD        67.6640   52.9650   94.5470 C.2   278  GLU278      0.3649
     81  OE1       68.1400   51.8970   94.9980 O.co2 278  GLU278     -0.2457
     82  OE2       68.2110   54.0550   94.6930 O.co2 278  GLU278     -0.2457
     83  N         66.6140   50.1610   89.9210 N.am  279  GLU279     -0.1979
     84  CA        66.3640   48.9120   89.1570 C.3   279  GLU279      0.1602
     85  C         67.6270   48.2740   88.6670 C.2   279  GLU279      0.2287
     86  O         67.7380   47.0440   88.5810 O.2   279  GLU279     -0.2864
     87  CB        65.5120   49.1020   87.9140 C.3   279  GLU279      0.0415
     88  CG        64.1170   49.6740   88.1950 C.3   279  GLU279      0.1163
     89  CD        63.3060   49.9500   86.8740 C.2   279  GLU279      0.3649
     90  OE1       63.8710   49.8010   85.7850 O.co2 279  GLU279     -0.2457
     91  OE2       62.1090   50.2720   86.9510 O.co2 279  GLU279     -0.2457
@<TRIPOS>BOND
     1    51    52    1
     2    44    45    2
     3    44    43    1
     4    53    52    1
     5    53    54    2
     6    43    42    1
     7    43    46    1
     8    52    55    1
     9    55    56    1
    10    49    48   ar
    11    46    47    1
    12    73    72    1
    13    34    33    1
    14    34    35    2
    15    56    57    1
    16    60    59    1
    17    33    32    1
    18    33    36    1
    19     4     3    2
    20    71    72   ar
    21    71    69   ar
    22    57    58    1
    23    48    47    1
    24    48    50   ar
    25    40    38   ar
    26    40    41   ar
    27    38    37   ar
    28    72    70   ar
    29     1     2    1
    30    41    39   ar
    31    69    67   ar
    32    59    58    2
    33    59    61    1
    34    37    36    1
    35    37    39   ar
    36     3     2    1
    37    30    29    1
    38     2     5    1
    39    70    68   ar
    40    67    68   ar
    41    67    66    1
    42     9     8    2
    43    29    28    1
    44    29    31    1
    45     6     7    1
    46    22    21   ar
    47    28    25    1
    48    66    63    1
    49    23    21   ar
    50     8     7    1
    51     8    15   am
    52    90    89   ar
    53    21    20    1
    54     7    10    1
    55    24    25    1
    56    24    17   am
    57    62    63    1
    58    25    26    1
    59    16    15    1
    60    16    17    1
    61    16    19    1
    62    63    64    1
    63    11    10    1
    64    11    12    1
    65    89    91   ar
    66    89    88    1
    67    17    18    2
    68    26    27    2
    69    20    19    1
    70    64    65    2
    71    13    12    1
    72    13    14    1
    73    87    88    1
    74    87    84    1
    75    86    85    2
    76    85    84    1
    77    84    83    1
    78    83    76   am
    79    74    75    1
    80    76    77    2
    81    76    75    1
    82    75    78    1
    83    78    79    1
    84    79    80    1
    85    80    82   ar
    86    80    81   ar
