@<TRIPOS>MOLECULE
tmp/4dqlB01.pdb
 187 176 0 0 0
SMALL
GASTEIGER

@<TRIPOS>ATOM
      1  N         64.7300   62.2750   86.9080 N.3    17  GLN17      -0.1245
      2  CA        65.8720   62.9310   87.4350 C.3    17  GLN17       0.1566
      3  C         65.6470   63.3500   88.9220 C.2    17  GLN17       0.2260
      4  O         64.5430   63.3620   89.4100 O.2    17  GLN17      -0.2867
      5  CB        66.3020   64.1010   86.5700 C.3    17  GLN17       0.0367
      6  CG        66.7500   63.6680   85.2040 C.3    17  GLN17       0.0905
      7  CD        67.7170   64.5990   84.5410 C.2    17  GLN17       0.2608
      8  OE1       68.5280   65.2840   85.1770 O.2    17  GLN17      -0.2717
      9  NE2       67.7370   64.5320   83.2180 N.am   17  GLN17      -0.0878
     10  N         67.6130   69.4010   84.5740 N.3    23  ARG23      -0.1245
     11  CA        67.0660   68.7580   83.3610 C.3    23  ARG23       0.1563
     12  C         65.9790   67.8150   83.7400 C.2    23  ARG23       0.2260
     13  O         65.8870   67.4290   84.9040 O.2    23  ARG23      -0.2867
     14  CB        68.1550   68.0240   82.6260 C.3    23  ARG23       0.0307
     15  CG        69.1290   69.0450   82.0470 C.3    23  ARG23       0.0489
     16  CD        70.0400   68.4540   81.0370 C.3    23  ARG23       0.2205
     17  NE        70.6560   67.2750   81.6150 N.pl3  23  ARG23      -0.0865
     18  CZ        71.2840   66.3280   80.9160 C.cat  23  ARG23       0.5346
     19  NH1       71.4040   66.4470   79.5810 N.pl3  23  ARG23       0.1354
     20  NH2       71.7950   65.2570   81.5750 N.pl3  23  ARG23       0.1354
     21  N         63.9250   64.1270   82.5220 N.3    25  THR25      -0.1218
     22  CA        63.8110   62.9300   81.6980 C.3    25  THR25       0.1862
     23  C         62.5920   62.2770   82.2030 C.2    25  THR25       0.2287
     24  O         62.4340   62.1210   83.4280 O.2    25  THR25      -0.2866
     25  CB        64.9900   61.9970   81.8350 C.3    25  THR25       0.1770
     26  OG1       66.1840   62.7530   81.5400 O.3    25  THR25      -0.2211
     27  CG2       64.8360   60.8030   80.9480 C.3    25  THR25       0.0375
     28  N         64.0370   62.2860   77.1320 N.3   178  SER178     -0.1217
     29  CA        64.7770   63.4440   77.4980 C.3   178  SER178      0.1889
     30  C         64.0430   64.7280   77.0590 C.2   178  SER178      0.2288
     31  O         63.6880   64.8830   75.9160 O.2   178  SER178     -0.2866
     32  CB        66.1930   63.3180   76.9230 C.3   178  SER178      0.2089
     33  OG        66.8460   64.5100   77.2110 O.3   178  SER178     -0.2183
     34  N         74.6900   55.3780   77.5440 N.3   234  PRO234     -0.2102
     35  CA        74.6830   56.5290   78.4970 C.3   234  PRO234      0.1504
     36  C         73.4690   57.4770   78.3170 C.2   234  PRO234      0.2576
     37  O         72.8330   57.5750   77.2040 O.2   234  PRO234     -0.2718
     38  CB        75.9890   57.2280   78.1950 C.3   234  PRO234      0.0282
     39  CG        76.3470   56.7630   76.7570 C.3   234  PRO234      0.0208
     40  CD        75.7260   55.4790   76.5140 C.3   234  PRO234      0.0893
     41  N         73.0940   58.1320   79.3910 N.am  235  GLY235     -0.1943
     42  CA        71.8940   58.9980   79.3190 C.3   235  GLY235      0.2014
     43  C         70.6850   58.1630   78.9480 C.2   235  GLY235      0.2640
     44  O         70.5060   56.9690   79.4140 O.2   235  GLY235     -0.2714
     45  N         69.8390   58.7040   78.0890 N.am  236  THR236     -0.1936
     46  CA        68.6370   57.9780   77.7280 C.3   236  THR236      0.2028
     47  C         68.9550   56.8490   76.7590 C.2   236  THR236      0.2642
     48  O         68.0720   56.0970   76.4010 O.2   236  THR236     -0.2714
     49  CB        67.6020   58.9150   77.1180 C.3   236  THR236      0.1808
     50  OG1       68.2460   59.5120   76.0040 O.3   236  THR236     -0.2208
     51  CG2       67.2360   59.9800   78.1360 C.3   236  THR236      0.0379
     52  N         70.2230   56.7360   76.3390 N.am  237  GLY237     -0.1954
     53  CA        70.7490   55.5310   75.7010 C.3   237  GLY237      0.1869
     54  C         70.4740   54.2330   76.4780 C.2   237  GLY237      0.2309
     55  O         70.4730   53.1430   75.9120 O.2   237  GLY237     -0.2863
     56  N         76.5130   55.9600   81.4950 N.3   266  GLY266     -0.1210
     57  CA        77.0980   57.2100   81.8240 C.3   266  GLY266      0.1956
     58  C         76.0660   58.2930   82.0740 C.2   266  GLY266      0.2612
     59  O         75.0610   58.3380   81.3750 O.2   266  GLY266     -0.2717
     60  N         76.3580   59.1880   83.0120 N.am  267  CYS267     -0.1956
     61  CA        75.5900   60.4160   83.2310 C.3   267  CYS267      0.1843
     62  C         76.4010   61.4800   83.9820 C.2   267  CYS267      0.2625
     63  O         77.6110   61.2920   84.2590 O.2   267  CYS267     -0.2714
     64  CB        74.3330   60.1070   83.9960 C.3   267  CYS267      0.0997
     65  SG        74.6110   59.4580   85.7540 S.3   267  CYS267     -0.0797
     66  N         75.7650   62.6070   84.2710 N.am  268  ARG268     -0.1977
     67  CA        76.4760   63.6910   84.9080 C.3   268  ARG268      0.1597
     68  C         76.9130   63.3010   86.3480 C.2   268  ARG268      0.2287
     69  O         78.0360   63.4710   86.7030 O.2   268  ARG268     -0.2864
     70  CB        75.6600   64.9270   84.9470 C.3   268  ARG268      0.0334
     71  CG        75.4790   65.5690   83.5530 C.3   268  ARG268      0.0492
     72  CD        74.4840   66.7410   83.6450 C.3   268  ARG268      0.2205
     73  NE        74.2940   67.3110   82.3380 N.pl3 268  ARG268     -0.0865
     74  CZ        73.7110   68.4840   82.0420 C.cat 268  ARG268      0.5346
     75  NH1       73.2310   69.3100   82.9510 N.pl3 268  ARG268      0.1354
     76  NH2       73.6080   68.8170   80.7820 N.pl3 268  ARG268      0.1354
     77  N         71.2010   62.3500   87.5900 N.3   273  ASP273     -0.1239
     78  CA        70.5680   61.8320   86.3880 C.3   273  ASP273      0.1674
     79  C         70.8880   60.3780   86.1160 C.2   273  ASP273      0.2266
     80  O         70.9380   59.9270   84.9580 O.2   273  ASP273     -0.2867
     81  CB        70.8990   62.7770   85.2240 C.3   273  ASP273      0.1410
     82  CG        72.3810   62.9230   84.9940 C.2   273  ASP273      0.3668
     83  OD1       73.1720   62.5970   85.9000 O.co2 273  ASP273     -0.2456
     84  OD2       72.7820   63.3350   83.9000 O.co2 273  ASP273     -0.2456
     85  N         80.0520   55.7390   84.4910 N.3   294  ALA294     -0.1245
     86  CA        80.9530   56.7790   84.1420 C.3   294  ALA294      0.1562
     87  C         80.2240   58.1030   84.3970 C.2   294  ALA294      0.2260
     88  O         79.2720   58.5110   83.6580 O.2   294  ALA294     -0.2867
     89  CB        81.3860   56.6680   82.6420 C.3   294  ALA294      0.0290
     90  N         80.2410   62.1280   84.6040 N.3   296  SER296     -0.1202
     91  CA        80.9660   63.1570   83.8640 C.3   296  SER296      0.2020
     92  C         81.1050   64.5100   84.5650 C.2   296  SER296      0.2618
     93  O         81.9230   65.2840   84.1430 O.2   296  SER296     -0.2717
     94  CB        80.3090   63.3730   82.5040 C.3   296  SER296      0.2103
     95  OG        78.9960   63.9150   82.5980 O.3   296  SER296     -0.2182
     96  N         80.3080   64.8080   85.5960 N.am  297  ARG297     -0.1979
     97  CA        80.3700   66.1260   86.2520 C.3   297  ARG297      0.1597
     98  C         80.3760   65.9460   87.7660 C.2   297  ARG297      0.2287
     99  O         79.5630   66.5300   88.4380 O.2   297  ARG297     -0.2864
    100  CB        79.1570   67.0030   85.8390 C.3   297  ARG297      0.0334
    101  CG        78.9560   67.0580   84.3090 C.3   297  ARG297      0.0492
    102  CD        78.2440   68.2960   83.8190 C.3   297  ARG297      0.2205
    103  NE        77.8580   68.1770   82.4270 N.pl3 297  ARG297     -0.0865
    104  CZ        77.1720   69.0820   81.7350 C.cat 297  ARG297      0.5346
    105  NH1       76.7410   70.2210   82.2940 N.pl3 297  ARG297      0.1354
    106  NH2       76.9120   68.8490   80.4560 N.pl3 297  ARG297      0.1354
    107  N         86.2110   64.2250   84.6750 N.3   303  LYS303     -0.1245
    108  CA        85.2290   63.9160   83.6700 C.3   303  LYS303      0.1561
    109  C         85.4890   62.5060   83.0560 C.2   303  LYS303      0.2260
    110  O         86.5020   62.3000   82.4040 O.2   303  LYS303     -0.2867
    111  CB        85.2240   65.0120   82.5930 C.3   303  LYS303      0.0271
    112  CG        84.2590   64.7280   81.4170 C.3   303  LYS303      0.0035
    113  CD        84.0590   65.9130   80.4380 C.3   303  LYS303      0.0206
    114  CE        83.3300   67.2050   81.0600 C.3   303  LYS303      0.1093
    115  NZ        81.8060   67.2190   81.3290 N.3   303  LYS303     -0.1314
    116  N         83.7760   59.4730   80.6880 N.3   305  TYR305     -0.1227
    117  CA        82.8100   58.9770   79.7000 C.3   305  TYR305      0.1736
    118  C         82.9290   57.4370   79.6170 C.2   305  TYR305      0.2595
    119  O         83.9310   56.8840   80.0730 O.2   305  TYR305     -0.2718
    120  CB        83.1410   59.6040   78.3780 C.3   305  TYR305      0.0548
    121  CG        82.8600   61.0650   78.2430 C.ar  305  TYR305     -0.0200
    122  CD1       81.9670   61.7230   79.0900 C.ar  305  TYR305     -0.0009
    123  CD2       83.4110   61.7890   77.1930 C.ar  305  TYR305     -0.0009
    124  CE1       81.6860   63.0460   78.9080 C.ar  305  TYR305      0.0417
    125  CE2       83.1160   63.1280   77.0090 C.ar  305  TYR305      0.0417
    126  CZ        82.2460   63.7460   77.8580 C.ar  305  TYR305      0.1957
    127  OH        81.8890   65.0780   77.6640 O.3   305  TYR305     -0.2866
    128  N         81.9080   56.7700   79.0740 N.am  306  VAL306     -0.1966
    129  CA        81.8550   55.3530   78.9170 C.3   306  VAL306      0.1727
    130  C         83.0590   54.7630   78.1150 C.2   306  VAL306      0.2616
    131  O         83.5050   53.6550   78.4390 O.2   306  VAL306     -0.2715
    132  CB        80.5140   54.8260   78.2620 C.3   306  VAL306      0.0290
    133  CG1       79.3420   54.9060   79.2460 C.3   306  VAL306      0.0023
    134  CG2       80.2190   55.5680   76.9230 C.3   306  VAL306      0.0023
    135  N         83.5220   55.4430   77.0780 N.am  307  GLN307     -0.1977
    136  CA        84.6920   54.9760   76.3390 C.3   307  GLN307      0.1601
    137  C         85.9810   54.9410   77.2000 C.2   307  GLN307      0.2287
    138  O         86.8890   54.1000   76.9220 O.2   307  GLN307     -0.2864
    139  CB        84.9490   55.7610   75.0550 C.3   307  GLN307      0.0394
    140  CG        85.1280   57.2310   75.0760 C.3   307  GLN307      0.0908
    141  CD        83.7960   58.0190   75.0490 C.2   307  GLN307      0.2608
    142  OE1       82.7830   57.5390   75.5340 O.2   307  GLN307     -0.2717
    143  NE2       83.8220   59.2100   74.5000 N.am  307  GLN307     -0.0878
    144  N         73.2840   58.7200   72.0900 N.3   332  ASP332     -0.1239
    145  CA        73.7930   59.7920   71.1720 C.3   332  ASP332      0.1674
    146  C         74.6760   59.2510   70.0550 C.2   332  ASP332      0.2266
    147  O         75.7730   58.7430   70.3290 O.2   332  ASP332     -0.2867
    148  CB        74.6140   60.8160   71.9360 C.3   332  ASP332      0.1410
    149  CG        75.3350   61.7950   71.0120 C.2   332  ASP332      0.3668
    150  OD1       74.6790   62.3300   70.1050 O.co2 332  ASP332     -0.2456
    151  OD2       76.5540   62.0270   71.1910 O.co2 332  ASP332     -0.2456
    152  N         78.3000   62.0870   68.8410 N.3   335  GLN335     -0.1231
    153  CA        79.6550   62.0930   69.4180 C.3   335  GLN335      0.1698
    154  C         79.9820   60.8480   70.2390 C.2   335  GLN335      0.2592
    155  O         81.0430   60.2680   70.0580 O.2   335  GLN335     -0.2718
    156  CB        79.8630   63.3190   70.3140 C.3   335  GLN335      0.0381
    157  CG        79.8380   64.6910   69.5900 C.3   335  GLN335      0.0905
    158  CD        80.9750   64.8370   68.5550 C.2   335  GLN335      0.2608
    159  OE1       82.0650   64.2630   68.7150 O.2   335  GLN335     -0.2717
    160  NE2       80.7180   65.6020   67.4830 N.am  335  GLN335     -0.0878
    161  N         79.1030   60.4310   71.1500 N.am  336  MET336     -0.1979
    162  CA        79.3770   59.2230   71.9220 C.3   336  MET336      0.1605
    163  C         79.5700   57.9520   71.0420 C.2   336  MET336      0.2287
    164  O         80.5580   57.2780   71.1810 O.2   336  MET336     -0.2864
    165  CB        78.3000   59.0210   72.9540 C.3   336  MET336      0.0413
    166  CG        78.4940   57.8800   73.9410 C.3   336  MET336      0.0598
    167  SD        77.8630   56.3630   73.3110 S.3   336  MET336     -0.1393
    168  CE        76.1000   56.6640   73.0160 C.3   336  MET336      0.0692
    169  N         82.8190   57.7340   69.1550 N.3   339  ALA339     -0.1245
    170  CA        83.9650   57.6280   70.0860 C.3   339  ALA339      0.1562
    171  C         84.0430   56.2740   70.6980 C.2   339  ALA339      0.2260
    172  O         85.1380   55.7130   70.8360 O.2   339  ALA339     -0.2867
    173  CB        83.9950   58.7570   71.1820 C.3   339  ALA339      0.0290
    174  N         70.8360   58.1030   67.8840 N.3   377  TRP377     -0.1241
    175  CA        70.0500   59.2140   67.3150 C.3   377  TRP377      0.1605
    176  C         70.7470   60.5150   67.5290 C.2   377  TRP377      0.2264
    177  O         71.6090   60.5690   68.3830 O.2   377  TRP377     -0.2867
    178  CB        68.6420   59.2320   67.9020 C.3   377  TRP377      0.0550
    179  CG        68.5140   59.4290   69.3940 C.ar  377  TRP377      0.0003
    180  CD1       68.4300   60.6310   70.0560 C.ar  377  TRP377      0.0946
    181  CD2       68.4290   58.4360   70.3730 C.ar  377  TRP377      0.0152
    182  NE1       68.2740   60.4300   71.3800 N.ar  377  TRP377     -0.2442
    183  CE2       68.2820   59.0830   71.6110 C.ar  377  TRP377      0.0810
    184  CE3       68.4400   57.0290   70.3410 C.ar  377  TRP377      0.0012
    185  CZ2       68.1480   58.3840   72.8030 C.ar  377  TRP377      0.0191
    186  CZ3       68.3510   56.3370   71.5360 C.ar  377  TRP377      0.0001
    187  CH2       68.1570   57.0110   72.7400 C.ar  377  TRP377      0.0015
@<TRIPOS>BOND
     1   175   176    1
     2   175   174    1
     3   175   178    1
     4   160   158   am
     5   176   177    2
     6   178   179    1
     7   158   159    2
     8   158   157    1
     9   152   153    1
    10   169   170    1
    11   179   180   ar
    12   179   181   ar
    13   153   154    1
    14   153   156    1
    15   157   156    1
    16   146   147    2
    17   146   145    1
    18   180   182   ar
    19   155   154    2
    20   170   171    1
    21   170   173    1
    22   150   149   ar
    23   154   161   am
    24   184   181   ar
    25   184   186   ar
    26   181   183   ar
    27   171   172    2
    28   149   151   ar
    29   149   148    1
    30   163   164    2
    31   163   162    1
    32   161   162    1
    33   145   148    1
    34   145   144    1
    35   182   183   ar
    36   186   187   ar
    37   183   185   ar
    38   162   165    1
    39   187   185   ar
    40   165   166    1
    41   168   167    1
    42   167   166    1
    43   143   141   am
    44   141   140    1
    45   141   142    2
    46   139   140    1
    47   139   136    1
    48    53    52    1
    49    53    54    1
    50    55    54    2
    51    31    30    2
    52    50    49    1
    53    52    47   am
    54   136   135    1
    55   136   137    1
    56    48    47    2
    57    40    39    1
    58    40    34    1
    59    39    38    1
    60    47    46    1
    61   138   137    2
    62   134   132    1
    63    32    33    1
    64    32    29    1
    65   125   123   ar
    66   125   126   ar
    67    30    29    1
    68   135   130   am
    69    49    46    1
    70    49    51    1
    71    28    29    1
    72   123   121   ar
    73    37    36    2
    74    34    35    1
    75   127   126    1
    76    46    45    1
    77   126   124   ar
    78    45    43   am
    79   130   131    2
    80   130   129    1
    81    38    35    1
    82   121   120    1
    83   121   122   ar
    84   132   129    1
    85   132   133    1
    86    36    35    1
    87    36    41   am
    88   120   117    1
    89   124   122   ar
    90   129   128    1
    91    43    42    1
    92    43    44    2
    93   128   118   am
    94    42    41    1
    95    19    18    1
    96   118   117    1
    97   118   119    2
    98   117   116    1
    99   113   114    1
   100   113   112    1
   101   106   104    1
   102    76    74    1
   103    18    20    1
   104    18    17    2
   105    27    25    1
   106    16    17    1
   107    16    15    1
   108   114   115    1
   109    59    58    2
   110   112   111    1
   111    56    57    1
   112    26    25    1
   113    22    25    1
   114    22    23    1
   115    22    21    1
   116   104   105    1
   117   104   103    2
   118    57    58    1
   119    74    73    2
   120    74    75    1
   121    15    14    1
   122    58    60   am
   123    23    24    2
   124    73    72    1
   125   110   109    2
   126   103   102    1
   127    94    95    1
   128    94    91    1
   129   111   108    1
   130    14    11    1
   131    89    86    1
   132    60    61    1
   133   109   108    1
   134     9     7   am
   135    61    62    1
   136    61    64    1
   137    11    12    1
   138    11    10    1
   139    71    72    1
   140    71    70    1
   141    88    87    2
   142   108   107    1
   143    12    13    2
   144   102   101    1
   145    91    92    1
   146    91    90    1
   147    84    82   ar
   148    62    63    2
   149    62    66   am
   150    64    65    1
   151    86    87    1
   152    86    85    1
   153    93    92    2
   154    66    67    1
   155   101   100    1
   156     7     8    2
   157     7     6    1
   158    92    96   am
   159    67    70    1
   160    67    68    1
   161    80    79    2
   162    82    81    1
   163    82    83   ar
   164     6     5    1
   165    81    78    1
   166    96    97    1
   167   100    97    1
   168    79    78    1
   169    97    98    1
   170    68    69    2
   171    78    77    1
   172     5     2    1
   173     1     2    1
   174     2     3    1
   175    98    99    2
   176     3     4    2
