@<TRIPOS>MOLECULE
tmp/4dqlA01.pdb
 208 197 0 0 0
SMALL
GASTEIGER

@<TRIPOS>ATOM
      1  N         -0.2200   75.8580   45.6150 N.3    14  GLN14      -0.1245
      2  CA         0.0030   77.0160   46.4000 C.3    14  GLN14       0.1566
      3  C         -0.0060   76.6570   47.9140 C.2    14  GLN14       0.2260
      4  O         -0.3740   75.5470   48.2570 O.2    14  GLN14      -0.2867
      5  CB        -1.0040   78.1090   46.0790 C.3    14  GLN14       0.0367
      6  CG        -0.9310   78.5810   44.6210 C.3    14  GLN14       0.0905
      7  CD        -1.5090   79.9550   44.4090 C.2    14  GLN14       0.2608
      8  OE1       -1.4740   80.8260   45.3070 O.2    14  GLN14      -0.2717
      9  NE2       -1.9820   80.2100   43.1470 N.am   14  GLN14      -0.0878
     10  N         -5.4280   82.0700   46.5970 N.3    20  ARG20      -0.1245
     11  CA        -5.5490   81.5470   45.2400 C.3    20  ARG20       0.1563
     12  C         -5.1690   80.1390   45.1470 C.2    20  ARG20       0.2260
     13  O         -4.5290   79.6240   46.0410 O.2    20  ARG20      -0.2867
     14  CB        -4.7390   82.3700   44.2500 C.3    20  ARG20       0.0307
     15  CG        -5.2390   83.8160   44.2280 C.3    20  ARG20       0.0489
     16  CD        -4.6950   84.5920   43.0810 C.3    20  ARG20       0.2205
     17  NE        -3.2470   84.4860   43.1240 N.pl3  20  ARG20      -0.0865
     18  CZ        -2.4420   84.6540   42.0820 C.cat  20  ARG20       0.5346
     19  NH1       -2.9580   84.9810   40.8940 N.pl3  20  ARG20       0.1354
     20  NH2       -1.1230   84.4820   42.2420 N.pl3  20  ARG20       0.1354
     21  N         -3.7480   76.9240   42.4430 N.3    22  THR22      -0.1218
     22  CA        -3.1610   76.4530   41.1930 C.3    22  THR22       0.1862
     23  C         -3.0400   75.0040   41.4180 C.2    22  THR22       0.2287
     24  O         -2.4560   74.6530   42.3830 O.2    22  THR22      -0.2866
     25  CB        -1.7130   77.0250   40.9860 C.3    22  THR22       0.1770
     26  OG1       -1.7670   78.4400   41.0540 O.3    22  THR22      -0.2211
     27  CG2       -1.1590   76.5870   39.6830 C.3    22  THR22       0.0375
     28  N         -4.1930   77.2220   36.7510 N.3   177  SER177     -0.1202
     29  CA        -4.5760   78.2940   37.5600 C.3   177  SER177      0.2020
     30  C         -6.1660   78.3300   37.6650 C.2   177  SER177      0.2619
     31  O         -6.8970   78.3160   36.6520 O.2   177  SER177     -0.2717
     32  CB        -4.0440   79.5600   36.9480 C.3   177  SER177      0.2103
     33  OG        -4.5820   80.5760   37.7150 O.3   177  SER177     -0.2182
     34  N         -6.6790   78.3460   38.8910 N.am  178  VAL178     -0.1965
     35  CA        -8.1010   78.3150   39.1190 C.3   178  VAL178      0.1727
     36  C         -8.6770   79.6870   39.0440 C.2   178  VAL178      0.2616
     37  O         -8.3900   80.5220   39.8380 O.2   178  VAL178     -0.2715
     38  CB        -8.4310   77.6790   40.4420 C.3   178  VAL178      0.0290
     39  CG1      -10.0220   77.6580   40.7280 C.3   178  VAL178      0.0023
     40  CG2       -7.8890   76.2540   40.4360 C.3   178  VAL178      0.0023
     41  N         -9.4940   79.9320   38.0220 N.am  179  VAL179     -0.1977
     42  CA       -10.0480   81.2320   37.8020 C.3   179  VAL179      0.1596
     43  C        -11.2810   81.3980   38.6990 C.2   179  VAL179      0.2287
     44  O        -12.1830   80.5750   38.7070 O.2   179  VAL179     -0.2864
     45  CB       -10.4070   81.4800   36.3380 C.3   179  VAL179      0.0276
     46  CG1      -11.1260   82.7970   36.1580 C.3   179  VAL179      0.0022
     47  CG2       -9.1360   81.4470   35.4550 C.3   179  VAL179      0.0022
     48  N          6.5900   83.4700   34.3590 N.3   233  PRO233     -0.2102
     49  CA         6.0730   83.7090   35.7030 C.3   233  PRO233      0.1504
     50  C          4.7060   83.0920   35.9550 C.2   233  PRO233      0.2576
     51  O          3.9530   82.7820   34.9930 O.2   233  PRO233     -0.2718
     52  CB         6.0530   85.2130   35.8090 C.3   233  PRO233      0.0282
     53  CG         5.9890   85.6880   34.3820 C.3   233  PRO233      0.0208
     54  CD         6.7020   84.6790   33.5780 C.3   233  PRO233      0.0893
     55  N          4.4550   82.7140   37.2140 N.am  234  GLY234     -0.1943
     56  CA         3.1780   82.0870   37.6080 C.3   234  GLY234      0.2014
     57  C          3.0140   80.7970   36.8710 C.2   234  GLY234      0.2639
     58  O          3.9540   79.9910   36.7270 O.2   234  GLY234     -0.2714
     59  N          1.8130   80.5900   36.3320 N.am  235  THR235     -0.1950
     60  CA         1.4740   79.4020   35.6230 C.3   235  THR235      0.1897
     61  C          2.2480   79.2840   34.3230 C.2   235  THR235      0.2313
     62  O          2.2460   78.2380   33.7070 O.2   235  THR235     -0.2863
     63  CB        -0.1140   79.4700   35.3760 C.3   235  THR235      0.1794
     64  OG1       -0.7160   79.2560   36.6730 O.3   235  THR235     -0.2208
     65  CG2       -0.5690   78.4560   34.5410 C.3   235  THR235      0.0378
     66  N          8.5780   84.2420   38.1840 N.3   265  GLY265     -0.1210
     67  CA         8.0610   85.3190   38.9960 C.3   265  GLY265      0.1956
     68  C          6.7630   84.8640   39.6670 C.2   265  GLY265      0.2612
     69  O          6.0010   84.1040   39.0920 O.2   265  GLY265     -0.2717
     70  N          6.5800   85.2630   40.9140 N.am  266  CYS266     -0.1956
     71  CA         5.3290   85.0560   41.7020 C.3   266  CYS266      0.1843
     72  C          5.2320   86.1030   42.8280 C.2   266  CYS266      0.2625
     73  O          6.0790   87.0200   42.9140 O.2   266  CYS266     -0.2714
     74  CB         5.2620   83.6460   42.1980 C.3   266  CYS266      0.0997
     75  SG         6.5450   83.3410   43.5070 S.3   266  CYS266     -0.0797
     76  N          4.1540   86.0790   43.5990 N.am  267  ARG267     -0.1977
     77  CA         3.9150   87.0630   44.6580 C.3   267  ARG267      0.1597
     78  C          4.9210   86.8970   45.8050 C.2   267  ARG267      0.2287
     79  O          5.5300   87.8750   46.2050 O.2   267  ARG267     -0.2864
     80  CB         2.5090   86.9120   45.2450 C.3   267  ARG267      0.0334
     81  CG         1.3960   87.2940   44.2910 C.3   267  ARG267      0.0492
     82  CD         0.0220   86.9570   44.9550 C.3   267  ARG267      0.2205
     83  NE        -1.0300   87.3910   44.0580 N.pl3 267  ARG267     -0.0865
     84  CZ        -2.3480   87.4780   44.3360 C.cat 267  ARG267      0.5346
     85  NH1       -2.8390   87.1750   45.5480 N.pl3 267  ARG267      0.1354
     86  NH2       -3.1940   87.8950   43.3590 N.pl3 267  ARG267      0.1354
     87  N          2.9450   81.3620   46.4760 N.3   272  ASP272     -0.1239
     88  CA         2.6940   80.8100   45.1300 C.3   272  ASP272      0.1674
     89  C          3.9590   80.5410   44.2870 C.2   272  ASP272      0.2266
     90  O          3.9460   80.6530   43.0370 O.2   272  ASP272     -0.2867
     91  CB         1.7370   81.7650   44.3940 C.3   272  ASP272      0.1410
     92  CG         2.2860   83.1420   44.3100 C.2   272  ASP272      0.3668
     93  OD1        1.7520   83.9480   43.5410 O.co2 272  ASP272     -0.2456
     94  OD2        3.3170   83.4650   44.9730 O.co2 272  ASP272     -0.2456
     95  N         11.6550   86.4700   40.7630 N.3   293  ALA293     -0.1245
     96  CA        11.1750   87.8140   40.9430 C.3   293  ALA293      0.1562
     97  C          9.9090   87.7740   41.8610 C.2   293  ALA293      0.2260
     98  O          8.9170   87.1230   41.4930 O.2   293  ALA293     -0.2867
     99  CB        10.8370   88.4080   39.6400 C.3   293  ALA293      0.0290
    100  N          6.8660   89.7150   43.6500 N.3   295  SER295     -0.1202
    101  CA         6.1700   90.9510   43.4790 C.3   295  SER295      0.2020
    102  C          5.5050   91.5610   44.7370 C.2   295  SER295      0.2618
    103  O          5.1620   92.7480   44.7300 O.2   295  SER295     -0.2717
    104  CB         5.1090   90.7790   42.3530 C.3   295  SER295      0.2103
    105  OG         4.2120   89.7380   42.6390 O.3   295  SER295     -0.2182
    106  N          5.3480   90.8030   45.8130 N.am  296  ARG296     -0.1979
    107  CA         4.5620   91.2690   46.9690 C.3   296  ARG296      0.1597
    108  C          5.2010   90.8080   48.2910 C.2   296  ARG296      0.2287
    109  O          4.5780   90.1320   49.1100 O.2   296  ARG296     -0.2864
    110  CB         3.1250   90.6880   46.8500 C.3   296  ARG296      0.0334
    111  CG         2.3720   91.1600   45.5940 C.3   296  ARG296      0.0492
    112  CD         0.8670   90.7850   45.6770 C.3   296  ARG296      0.2205
    113  NE         0.2280   90.9100   44.3680 N.pl3 296  ARG296     -0.0865
    114  CZ        -1.0740   90.8470   44.1450 C.cat 296  ARG296      0.5346
    115  NH1       -1.9240   90.7290   45.1880 N.pl3 296  ARG296      0.1354
    116  NH2       -1.5180   90.9850   42.8810 N.pl3 296  ARG296      0.1354
    117  N          8.4960   95.7100   44.5730 N.3   302  LYS302     -0.1231
    118  CA         7.8030   94.8450   43.6360 C.3   302  LYS302      0.1693
    119  C          8.7490   94.5050   42.4820 C.2   302  LYS302      0.2593
    120  O          9.2340   95.3970   41.8400 O.2   302  LYS302     -0.2718
    121  CB         6.5810   95.5710   43.1000 C.3   302  LYS302      0.0285
    122  CG         5.6330   94.6450   42.3100 C.3   302  LYS302      0.0035
    123  CD         4.9760   95.3260   41.1370 C.3   302  LYS302      0.0206
    124  CE         3.6440   95.9480   41.3710 C.3   302  LYS302      0.1093
    125  NZ         3.2950   96.7610   40.0810 N.3   302  LYS302     -0.1314
    126  N          9.0420   93.2400   42.2570 N.am  303  THR303     -0.1939
    127  CA        10.0010   92.8390   41.2410 C.3   303  THR303      0.2028
    128  C          9.3200   91.8770   40.2940 C.2   303  THR303      0.2642
    129  O          8.6370   90.9870   40.7500 O.2   303  THR303     -0.2714
    130  CB        11.2230   92.2310   41.9170 C.3   303  THR303      0.1808
    131  OG1       11.7410   93.2100   42.8070 O.3   303  THR303     -0.2208
    132  CG2       12.2920   91.8060   40.8830 C.3   303  THR303      0.0379
    133  N          9.3390   92.2120   39.0010 N.am  304  TYR304     -0.1959
    134  CA         8.8650   91.3290   37.9360 C.3   304  TYR304      0.1771
    135  C         10.0530   90.6820   37.1620 C.2   304  TYR304      0.2619
    136  O         11.1550   91.2100   37.1970 O.2   304  TYR304     -0.2715
    137  CB         8.0700   92.1740   36.9640 C.3   304  TYR304      0.0574
    138  CG         6.6730   92.6560   37.4610 C.ar  304  TYR304     -0.0198
    139  CD1        5.9730   91.9930   38.5100 C.ar  304  TYR304     -0.0009
    140  CD2        5.9960   93.7030   36.7800 C.ar  304  TYR304     -0.0009
    141  CE1        4.6500   92.4440   38.9060 C.ar  304  TYR304      0.0417
    142  CE2        4.7110   94.1340   37.1640 C.ar  304  TYR304      0.0417
    143  CZ         4.0370   93.5070   38.2290 C.ar  304  TYR304      0.1957
    144  OH         2.7350   93.9290   38.5830 O.3   304  TYR304     -0.2866
    145  N          9.7840   89.6070   36.4300 N.am  305  VAL305     -0.1963
    146  CA        10.7930   88.9850   35.6430 C.3   305  VAL305      0.1727
    147  C         11.5770   89.9590   34.7660 C.2   305  VAL305      0.2616
    148  O         12.8210   89.8710   34.7150 O.2   305  VAL305     -0.2715
    149  CB        10.2910   87.8010   34.8440 C.3   305  VAL305      0.0290
    150  CG1        9.9340   86.7320   35.8000 C.3   305  VAL305      0.0023
    151  CG2        9.1280   88.1830   33.8710 C.3   305  VAL305      0.0023
    152  N         10.9030   90.8690   34.0920 N.am  306  GLN306     -0.1977
    153  CA        11.6260   91.7750   33.2150 C.3   306  GLN306      0.1601
    154  C         12.5720   92.7320   33.9600 C.2   306  GLN306      0.2287
    155  O         13.4940   93.3020   33.3500 O.2   306  GLN306     -0.2864
    156  CB        10.6840   92.5900   32.3230 C.3   306  GLN306      0.0394
    157  CG         9.6460   93.4400   33.0970 C.3   306  GLN306      0.0908
    158  CD         8.3030   92.7050   33.2930 C.2   306  GLN306      0.2608
    159  OE1        8.2500   91.4950   33.4680 O.2   306  GLN306     -0.2717
    160  NE2        7.2230   93.4600   33.3440 N.am  306  GLN306     -0.0878
    161  N          1.1820   84.6810   30.7550 N.3   331  ASP331     -0.1239
    162  CA         0.3970   85.8300   30.3260 C.3   331  ASP331      0.1674
    163  C          0.8040   86.6030   29.0530 C.2   331  ASP331      0.2266
    164  O          1.7850   87.3680   29.0470 O.2   331  ASP331     -0.2867
    165  CB         0.2640   86.8380   31.4990 C.3   331  ASP331      0.1410
    166  CG        -0.4760   88.1210   31.0900 C.2   331  ASP331      0.3668
    167  OD1       -1.5200   87.9840   30.4160 O.co2 331  ASP331     -0.2456
    168  OD2        0.0230   89.2440   31.3830 O.co2 331  ASP331     -0.2456
    169  N         -0.1310   91.3150   29.1740 N.3   334  GLN334     -0.1231
    170  CA         0.7510   92.3840   29.7060 C.3   334  GLN334      0.1698
    171  C          2.2030   91.8620   29.9080 C.2   334  GLN334      0.2592
    172  O          3.1390   92.5290   29.5700 O.2   334  GLN334     -0.2718
    173  CB         0.2610   92.9540   31.0660 C.3   334  GLN334      0.0381
    174  CG        -1.2110   93.5130   31.1870 C.3   334  GLN334      0.0905
    175  CD        -1.6500   94.6980   30.2050 C.2   334  GLN334      0.2608
    176  OE1       -0.9900   95.7650   30.1090 O.2   334  GLN334     -0.2717
    177  NE2       -2.8260   94.5120   29.5350 N.am  334  GLN334     -0.0878
    178  N          2.3710   90.7330   30.5230 N.am  335  MET335     -0.1979
    179  CA         3.7330   90.2360   30.8100 C.3   335  MET335      0.1605
    180  C          4.5400   90.0440   29.5020 C.2   335  MET335      0.2287
    181  O          5.5690   90.6390   29.3250 O.2   335  MET335     -0.2864
    182  CB         3.6880   88.9250   31.5830 C.3   335  MET335      0.0413
    183  CG         5.1220   88.4210   32.0260 C.3   335  MET335      0.0598
    184  SD         5.8000   87.3360   30.7590 S.3   335  MET335     -0.1393
    185  CE         4.7350   85.8940   30.7020 C.3   335  MET335      0.0692
    186  N          5.8090   93.0530   27.7240 N.3   338  ALA338     -0.1245
    187  CA         6.7770   93.8420   28.4530 C.3   338  ALA338      0.1562
    188  C          8.1560   93.1120   28.4390 C.2   338  ALA338      0.2260
    189  O          9.1450   93.7470   28.4270 O.2   338  ALA338     -0.2867
    190  CB         6.2670   94.1910   29.9120 C.3   338  ALA338      0.0290
    191  N         -1.0310   83.0470   26.6860 N.3   376  TRP376     -0.1241
    192  CA        -2.5080   83.0740   26.6200 C.3   376  TRP376      0.1605
    193  C         -3.0090   84.2350   27.4240 C.2   376  TRP376      0.2264
    194  O         -2.3070   84.7420   28.2980 O.2   376  TRP376     -0.2867
    195  CB        -3.0800   81.7950   27.1430 C.3   376  TRP376      0.0550
    196  CG        -2.7930   81.4370   28.5570 C.ar  376  TRP376      0.0003
    197  CD1       -3.6130   81.6750   29.6620 C.ar  376  TRP376      0.0946
    198  CD2       -1.6880   80.6450   29.0600 C.ar  376  TRP376      0.0152
    199  NE1       -3.0370   81.0960   30.7980 N.ar  376  TRP376     -0.2442
    200  CE2       -1.8520   80.5170   30.4560 C.ar  376  TRP376      0.0810
    201  CE3       -0.5170   80.1520   28.4900 C.ar  376  TRP376      0.0012
    202  CZ2       -0.9230   79.8410   31.2580 C.ar  376  TRP376      0.0191
    203  CZ3        0.3800   79.4500   29.2720 C.ar  376  TRP376      0.0001
    204  CH2        0.1750   79.3130   30.6510 C.ar  376  TRP376      0.0015
    205  N         -5.9170   86.3110   29.8190 N.3   378  GLY378     -0.1225
    206  CA        -6.4420   85.8570   31.1310 C.3   378  GLY378      0.1811
    207  C         -7.5410   86.7030   31.7870 C.2   378  GLY378      0.2280
    208  O         -8.3000   86.1500   32.6090 O.2   378  GLY378     -0.2866
@<TRIPOS>BOND
     1   192   191    1
     2   192   195    1
     3   192   193    1
     4   195   196    1
     5   193   194    2
     6   186   187    1
     7   189   188    2
     8   188   187    1
     9   187   190    1
    10   201   198   ar
    11   201   203   ar
    12   196   198   ar
    13   196   197   ar
    14   164   163    2
    15   163   162    1
    16   198   200   ar
    17   169   170    1
    18   203   204   ar
    19   181   180    2
    20   180   179    1
    21   177   175   am
    22   172   171    2
    23   197   199   ar
    24   170   171    1
    25   170   173    1
    26   205   206    1
    27   171   178   am
    28   176   175    2
    29   175   174    1
    30   162   161    1
    31   162   165    1
    32   167   166   ar
    33   200   199   ar
    34   200   202   ar
    35   178   179    1
    36   204   202   ar
    37   185   184    1
    38   184   183    1
    39   179   182    1
    40   173   174    1
    41   166   168   ar
    42   166   165    1
    43   206   207    1
    44   182   183    1
    45   207   208    2
    46   156   157    1
    47   156   153    1
    48   157   158    1
    49   153   154    1
    50   153   152    1
    51   158   160   am
    52   158   159    2
    53   155   154    2
    54    54    48    1
    55    54    53    1
    56    62    61    2
    57   151   149    1
    58   152   147   am
    59    61    60    1
    60    48    49    1
    61    53    52    1
    62    65    63    1
    63   148   147    2
    64   147   146    1
    65   149   146    1
    66   149   150    1
    67    51    50    2
    68    63    60    1
    69    63    64    1
    70    47    45    1
    71    60    59    1
    72   146   145    1
    73    49    52    1
    74    49    50    1
    75    50    55   am
    76    46    45    1
    77    59    57   am
    78    45    42    1
    79   145   135   am
    80    31    30    2
    81    58    57    2
    82    28    29    1
    83   140   142   ar
    84   140   138   ar
    85    57    56    1
    86    32    29    1
    87    32    33    1
    88   137   138    1
    89   137   134    1
    90   135   136    2
    91   135   134    1
    92   142   143   ar
    93    55    56    1
    94   138   139   ar
    95    29    30    1
    96    30    34   am
    97    42    41    1
    98    42    43    1
    99   134   133    1
   100    41    36   am
   101    66    67    1
   102   143   144    1
   103   143   141   ar
   104   139   141   ar
   105    43    44    2
   106    34    35    1
   107    67    68    1
   108   133   128   am
   109    36    35    1
   110    36    37    2
   111    69    68    2
   112    35    38    1
   113    99    96    1
   114    68    70   am
   115    27    25    1
   116   125   124    1
   117   128   129    2
   118   128   127    1
   119    40    38    1
   120    38    39    1
   121    95    96    1
   122   132   130    1
   123    19    18    1
   124    70    71    1
   125    96    97    1
   126    25    26    1
   127    25    22    1
   128   123   124    1
   129   123   122    1
   130    22    23    1
   131    22    21    1
   132   127   130    1
   133   127   126    1
   134    23    24    2
   135    98    97    2
   136    71    74    1
   137    71    72    1
   138   120   119    2
   139   130   131    1
   140    18    20    1
   141    18    17    2
   142    74    75    1
   143   126   119   am
   144   122   121    1
   145   104   105    1
   146   104   101    1
   147   119   118    1
   148    72    73    2
   149    72    76   am
   150   116   114    1
   151    90    89    2
   152    16    17    1
   153    16    15    1
   154   121   118    1
   155     9     7   am
   156    86    84    1
   157   101   100    1
   158   101   102    1
   159    93    92   ar
   160    76    77    1
   161   118   117    1
   162    83    84    2
   163    83    82    1
   164   114   113    2
   165   114   115    1
   166    15    14    1
   167    14    11    1
   168    89    88    1
   169    81    82    1
   170    81    80    1
   171    92    91    1
   172    92    94   ar
   173    84    85    1
   174   113   112    1
   175    91    88    1
   176     7     6    1
   177     7     8    2
   178     6     5    1
   179    77    80    1
   180    77    78    1
   181   103   102    2
   182   102   106   am
   183    88    87    1
   184    12    11    1
   185    12    13    2
   186    11    10    1
   187   111   112    1
   188   111   110    1
   189     1     2    1
   190    78    79    2
   191   106   107    1
   192     5     2    1
   193     2     3    1
   194   110   107    1
   195   107   108    1
   196     3     4    2
   197   108   109    2
