@<TRIPOS>MOLECULE
tmp/4dqmA00.pdb
 125 118 0 0 0
SMALL
GASTEIGER

@<TRIPOS>ATOM
      1  N         -8.6980  -12.1200   11.8940 N.3    56  ILE56      -0.1245
      2  CA        -9.2370  -10.9950   11.1570 C.3    56  ILE56       0.1561
      3  C        -10.6370  -11.3150   10.6240 C.2    56  ILE56       0.2260
      4  O        -11.5760  -10.4830   10.7430 O.2    56  ILE56      -0.2867
      5  CB        -8.3050  -10.5420   10.0170 C.3    56  ILE56       0.0252
      6  CG1       -6.9880   -9.9820   10.5780 C.3    56  ILE56       0.0019
      7  CG2       -8.9810   -9.4860    9.1460 C.3    56  ILE56       0.0019
      8  CD1       -5.8870   -9.7940    9.5400 C.3    56  ILE56       0.0001
      9  N        -13.1840  -11.2850   13.4030 N.3    59  VAL59      -0.1231
     10  CA       -13.6030   -9.8800   13.6110 C.3    59  VAL59       0.1692
     11  C        -14.5550   -9.4010   12.4990 C.2    59  VAL59       0.2591
     12  O        -15.6490   -8.8960   12.7920 O.2    59  VAL59      -0.2718
     13  CB       -12.4070   -8.9450   13.7580 C.3    59  VAL59       0.0266
     14  CG1      -12.8710   -7.4980   13.9150 C.3    59  VAL59       0.0020
     15  CG2      -11.5900   -9.3470   14.9770 C.3    59  VAL59       0.0020
     16  N        -14.1770   -9.5910   11.2300 N.am   60  GLU60      -0.1979
     17  CA       -15.0900   -9.2350   10.1430 C.3    60  GLU60       0.1602
     18  C        -16.4520   -9.8740   10.3210 C.2    60  GLU60       0.2287
     19  O        -17.4600   -9.3010    9.9960 O.2    60  GLU60      -0.2864
     20  CB       -14.4730   -9.5780    8.7940 C.3    60  GLU60       0.0415
     21  CG       -13.4050   -8.5630    8.4080 C.3    60  GLU60       0.1163
     22  CD       -12.6080   -8.9260    7.1660 C.2    60  GLU60       0.3649
     23  OE1      -12.9730   -9.8960    6.4460 O.co2  60  GLU60      -0.2457
     24  OE2      -11.6040   -8.2190    6.9050 O.co2  60  GLU60      -0.2457
     25  N        -18.4730   -7.9950   12.9900 N.3    63  LYS63      -0.1245
     26  CA       -18.8950   -6.6290   12.6520 C.3    63  LYS63       0.1561
     27  C        -20.1730   -6.6490   11.8270 C.2    63  LYS63       0.2260
     28  O        -20.9420   -5.7230   11.8620 O.2    63  LYS63      -0.2867
     29  CB       -17.7700   -5.8640   11.9460 C.3    63  LYS63       0.0271
     30  CG       -16.5800   -5.5220   12.8520 C.3    63  LYS63       0.0035
     31  CD       -15.7910   -4.3250   12.3260 C.3    63  LYS63       0.0206
     32  CE       -15.0780   -4.6540   11.0230 C.3    63  LYS63       0.1093
     33  NZ       -14.3210   -3.4820   10.5030 N.3    63  LYS63      -0.1314
     34  N        -24.0240   -5.6090   16.7520 N.3    68  PHE68      -0.1227
     35  CA       -22.7090   -5.7330   17.3780 C.3    68  PHE68       0.1736
     36  C        -21.8890   -4.4360   17.4050 C.2    68  PHE68       0.2596
     37  O        -21.2110   -4.1500   18.3970 O.2    68  PHE68      -0.2718
     38  CB       -21.8980   -6.8790   16.7500 C.3    68  PHE68       0.0547
     39  CG       -20.5610   -7.0640   17.3760 C.ar   68  PHE68      -0.0202
     40  CD1      -20.4230   -7.7580   18.5620 C.ar   68  PHE68      -0.0042
     41  CD2      -19.4410   -6.4960   16.8110 C.ar   68  PHE68      -0.0042
     42  CE1      -19.1580   -7.9120   19.1470 C.ar   68  PHE68      -0.0003
     43  CE2      -18.1910   -6.6310   17.3990 C.ar   68  PHE68      -0.0003
     44  CZ       -18.0420   -7.3450   18.5670 C.ar   68  PHE68      -0.0000
     45  N        -21.9170   -3.6940   16.2980 N.am   69  THR69      -0.1953
     46  CA       -21.1880   -2.4150   16.1730 C.3    69  THR69       0.1897
     47  C        -21.8390   -1.2630   16.9840 C.2    69  THR69       0.2313
     48  O        -21.2390   -0.2180   17.1590 O.2    69  THR69      -0.2863
     49  CB       -20.9750   -1.9650   14.6900 C.3    69  THR69       0.1794
     50  OG1      -22.1840   -2.1030   13.9480 O.3    69  THR69      -0.2208
     51  CG2      -19.9550   -2.7970   14.0070 C.3    69  THR69       0.0378
     52  N        -16.9160    0.2250   21.9060 N.3    73  ILE73      -0.1245
     53  CA       -15.7760   -0.4680   21.3570 C.3    73  ILE73       0.1561
     54  C        -15.2790   -1.4010   22.4370 C.2    73  ILE73       0.2260
     55  O        -14.9030   -2.5330   22.1530 O.2    73  ILE73      -0.2867
     56  CB       -14.6820    0.5020   20.8920 C.3    73  ILE73       0.0252
     57  CG1      -15.1620    1.3060   19.6630 C.3    73  ILE73       0.0019
     58  CG2      -13.3640   -0.2260   20.6110 C.3    73  ILE73       0.0019
     59  CD1      -15.3340    0.5230   18.3710 C.3    73  ILE73       0.0001
     60  N        -17.1040   -4.5570   22.6020 N.3    76  GLN76      -0.1231
     61  CA       -16.8310   -5.3080   21.3940 C.3    76  GLN76       0.1698
     62  C        -15.4860   -6.0860   21.5250 C.2    76  GLN76       0.2592
     63  O        -15.3550   -7.2500   21.0940 O.2    76  GLN76      -0.2718
     64  CB       -16.8040   -4.3470   20.1910 C.3    76  GLN76       0.0381
     65  CG       -18.1540   -3.8030   19.7050 C.3    76  GLN76       0.0905
     66  CD       -17.9920   -2.7890   18.5760 C.2    76  GLN76       0.2608
     67  OE1      -17.3680   -3.0560   17.5460 O.2    76  GLN76      -0.2717
     68  NE2      -18.5440   -1.6150   18.7730 N.am   76  GLN76      -0.0878
     69  N        -14.5020   -5.4490   22.1430 N.am   77  ILE77      -0.1980
     70  CA       -13.2500   -6.0930   22.3700 C.3    77  ILE77       0.1595
     71  C        -13.4320   -7.1670   23.4330 C.2    77  ILE77       0.2287
     72  O        -12.9750   -8.2990   23.2620 O.2    77  ILE77      -0.2864
     73  CB       -12.2050   -5.0740   22.8200 C.3    77  ILE77       0.0276
     74  CG1      -11.9500   -4.0820   21.6890 C.3    77  ILE77       0.0022
     75  CG2      -10.9210   -5.7800   23.2460 C.3    77  ILE77       0.0022
     76  CD1      -11.3740   -2.7740   22.1660 C.3    77  ILE77       0.0001
     77  N        -15.1600  -10.2090   21.9980 N.3    80  LEU80      -0.1231
     78  CA       -14.2170  -10.8420   21.0890 C.3    80  LEU80       0.1693
     79  C        -13.0690  -11.5930   21.7630 C.2    80  LEU80       0.2591
     80  O        -12.8950  -12.7900   21.5430 O.2    80  LEU80      -0.2718
     81  CB       -13.7000   -9.8550   20.0650 C.3    80  LEU80       0.0284
     82  CG       -14.6720   -9.6720   18.8930 C.3    80  LEU80       0.0019
     83  CD1      -14.4210   -8.3380   18.2030 C.3    80  LEU80       0.0001
     84  CD2      -14.5710  -10.8020   17.8840 C.3    80  LEU80       0.0001
     85  N        -12.3310  -10.9410   22.6120 N.am   81  LYS81      -0.1980
     86  CA       -11.2580  -11.6230   23.2440 C.3    81  LYS81       0.1596
     87  C        -11.7910  -12.8310   23.9360 C.2    81  LYS81       0.2287
     88  O        -11.1400  -13.8420   23.9990 O.2    81  LYS81      -0.2864
     89  CB       -10.5750  -10.7000   24.2100 C.3    81  LYS81       0.0298
     90  CG        -9.5530   -9.8280   23.5470 C.3    81  LYS81       0.0038
     91  CD        -9.2540   -8.6390   24.4050 C.3    81  LYS81       0.0206
     92  CE        -8.0910   -8.9360   25.3070 C.3    81  LYS81       0.1093
     93  NZ        -7.1750   -9.8860   24.6420 N.3    81  LYS81      -0.1314
     94  N          1.7750  -10.3950   16.5270 N.3   227  PRO227     -0.2102
     95  CA         1.1460   -9.4090   17.4440 C.3   227  PRO227      0.1504
     96  C         -0.3690   -9.6000   17.6950 C.2   227  PRO227      0.2575
     97  O         -0.7980   -9.5760   18.8610 O.2   227  PRO227     -0.2718
     98  CB         1.4260   -8.0360   16.7840 C.3   227  PRO227      0.0282
     99  CG         2.4030   -8.2830   15.6900 C.3   227  PRO227      0.0208
    100  CD         2.3860   -9.7550   15.3480 C.3   227  PRO227      0.0893
    101  N         -1.1550   -9.7910   16.6230 N.am  228  LEU228     -0.1980
    102  CA        -2.6320   -9.8680   16.7190 C.3   228  LEU228      0.1596
    103  C         -3.0920  -11.0190   17.5880 C.2   228  LEU228      0.2287
    104  O         -3.9320  -10.8420   18.4520 O.2   228  LEU228     -0.2864
    105  CB        -3.2880   -9.9570   15.3310 C.3   228  LEU228      0.0297
    106  CG        -4.8250  -10.0380   15.2600 C.3   228  LEU228      0.0022
    107  CD1       -5.5290   -8.8870   15.9710 C.3   228  LEU228      0.0001
    108  CD2       -5.2890  -10.1200   13.8180 C.3   228  LEU228      0.0001
    109  N         -2.7720  -10.0830   20.9480 N.3   231  GLU231     -0.1231
    110  CA        -3.8870   -9.2660   21.4360 C.3   231  GLU231      0.1699
    111  C         -5.1100  -10.0680   21.9380 C.2   231  GLU231      0.2592
    112  O         -5.7310   -9.6600   22.9250 O.2   231  GLU231     -0.2718
    113  CB        -4.2840   -8.1690   20.4390 C.3   231  GLU231      0.0402
    114  CG        -3.3010   -7.0120   20.3730 C.3   231  GLU231      0.1161
    115  CD        -3.9270   -5.6770   19.9530 C.2   231  GLU231      0.3649
    116  OE1       -5.1700   -5.4670   20.0740 O.co2 231  GLU231     -0.2457
    117  OE2       -3.1400   -4.8040   19.5120 O.co2 231  GLU231     -0.2457
    118  N         -5.4040  -11.2190   21.3040 N.am  232  MET232     -0.1979
    119  CA        -6.6030  -12.0560   21.6050 C.3   232  MET232      0.1605
    120  C         -6.5840  -12.9520   22.8520 C.2   232  MET232      0.2287
    121  O         -7.6520  -13.3440   23.3430 O.2   232  MET232     -0.2864
    122  CB        -6.9740  -12.9300   20.4060 C.3   232  MET232      0.0413
    123  CG        -7.2950  -12.1610   19.1430 C.3   232  MET232      0.0598
    124  SD        -8.4220  -10.7990   19.4540 S.3   232  MET232     -0.1393
    125  CE        -9.9890  -11.6230   19.6700 C.3   232  MET232      0.0692
@<TRIPOS>BOND
     1    23    22   ar
     2    24    22   ar
     3    22    21    1
     4    21    20    1
     5    20    17    1
     6     7     5    1
     7     8     6    1
     8    19    18    2
     9     5     6    1
    10     5     2    1
    11    17    18    1
    12    17    16    1
    13    33    32    1
    14     3     4    2
    15     3     2    1
    16    32    31    1
    17     2     1    1
    18    16    11   am
    19    27    28    2
    20    27    26    1
    21    29    26    1
    22    29    30    1
    23    31    30    1
    24    11    12    2
    25    11    10    1
    26    26    25    1
    27     9    10    1
    28    10    13    1
    29    13    14    1
    30    13    15    1
    31   108   106    1
    32    50    49    1
    33    51    49    1
    34    49    46    1
    35   106   105    1
    36   106   107    1
    37   105   102    1
    38   100    99    1
    39   100    94    1
    40    99    98    1
    41    46    45    1
    42    46    47    1
    43    45    36   am
    44    94    95    1
    45   101   102    1
    46   101    96   am
    47   102   103    1
    48    38    39    1
    49    38    35    1
    50    34    35    1
    51    98    95    1
    52    41    39   ar
    53    41    43   ar
    54    47    48    2
    55    39    40   ar
    56    35    36    1
    57    43    44   ar
    58    36    37    2
    59    95    96    1
    60    67    66    2
    61   103   104    2
    62    96    97    2
    63    84    82    1
    64    83    82    1
    65    59    57    1
    66    40    42   ar
    67    44    42   ar
    68    66    68   am
    69    66    65    1
    70    82    81    1
    71   123   124    1
    72   123   122    1
    73   124   125    1
    74   117   115   ar
    75    57    56    1
    76    65    64    1
    77   115   116   ar
    78   115   114    1
    79    81    78    1
    80    64    61    1
    81   114   113    1
    82   122   119    1
    83   113   110    1
    84    58    56    1
    85    56    53    1
    86   109   110    1
    87    78    79    1
    88    78    77    1
    89    63    62    2
    90   118   119    1
    91   118   111   am
    92    53    52    1
    93    53    54    1
    94    61    62    1
    95    61    60    1
    96   110   111    1
    97    62    69   am
    98    80    79    2
    99   119   120    1
   100    74    76    1
   101    74    73    1
   102    79    85   am
   103   111   112    2
   104    69    70    1
   105    55    54    2
   106    70    73    1
   107    70    71    1
   108    85    86    1
   109    73    75    1
   110   120   121    2
   111    86    87    1
   112    86    89    1
   113    72    71    2
   114    90    89    1
   115    90    91    1
   116    87    88    2
   117    91    92    1
   118    93    92    1
