@<TRIPOS>MOLECULE
tmp/4dqmA01.pdb
 230 217 0 0 0
SMALL
GASTEIGER

@<TRIPOS>ATOM
      1  N        -16.0410  -17.0500    5.7570 N.3    18  PHE18      -0.1241
      2  CA       -15.5320  -18.4060    5.9670 C.3    18  PHE18       0.1605
      3  C        -15.9560  -19.3960    4.9060 C.2    18  PHE18       0.2264
      4  O        -16.9830  -19.9930    5.0250 O.2    18  PHE18      -0.2867
      5  CB       -15.9080  -18.9330    7.3460 C.3    18  PHE18       0.0534
      6  CG       -15.0700  -20.0970    7.8060 C.ar   18  PHE18      -0.0203
      7  CD1      -15.6180  -21.3860    7.8460 C.ar   18  PHE18      -0.0042
      8  CD2      -13.7360  -19.9300    8.2120 C.ar   18  PHE18      -0.0042
      9  CE1      -14.8760  -22.4750    8.3070 C.ar   18  PHE18      -0.0003
     10  CE2      -12.9810  -21.0260    8.6350 C.ar   18  PHE18      -0.0003
     11  CZ       -13.5560  -22.2970    8.6880 C.ar   18  PHE18      -0.0000
     12  N          4.4300  -24.7670   12.2460 N.3    44  TRP44      -0.1241
     13  CA         4.0490  -23.6510   13.0610 C.3    44  TRP44       0.1605
     14  C          4.0000  -22.3600   12.2500 C.2    44  TRP44       0.2264
     15  O          3.1260  -21.5120   12.4340 O.2    44  TRP44      -0.2867
     16  CB         4.9710  -23.5580   14.2530 C.3    44  TRP44       0.0550
     17  CG         4.8500  -22.2230   14.8680 C.ar   44  TRP44       0.0003
     18  CD1        5.7350  -21.1590   14.7520 C.ar   44  TRP44       0.0946
     19  CD2        3.7110  -21.7020   15.6300 C.ar   44  TRP44       0.0152
     20  NE1        5.2670  -20.0520   15.4150 N.ar   44  TRP44      -0.2442
     21  CE2        4.0540  -20.3040   15.9640 C.ar   44  TRP44       0.0810
     22  CE3        2.5000  -22.2370   16.0860 C.ar   44  TRP44       0.0012
     23  CZ2        3.2050  -19.4960   16.7110 C.ar   44  TRP44       0.0191
     24  CZ3        1.6510  -21.4180   16.8430 C.ar   44  TRP44       0.0001
     25  CH2        1.9930  -20.0780   17.1460 C.ar   44  TRP44       0.0015
     26  N          0.8470  -22.2670    9.8970 N.3    47  PHE47      -0.1241
     27  CA        -0.2860  -22.2360   10.7870 C.3    47  PHE47       0.1605
     28  C         -0.4470  -20.8870   11.5080 C.2    47  PHE47       0.2264
     29  O         -1.5210  -20.3010   11.4850 O.2    47  PHE47      -0.2867
     30  CB        -0.2240  -23.3930   11.7780 C.3    47  PHE47       0.0534
     31  CG        -1.2250  -23.2850   12.8810 C.ar   47  PHE47      -0.0203
     32  CD1       -2.5710  -23.2280   12.6050 C.ar   47  PHE47      -0.0042
     33  CD2       -0.8100  -23.2300   14.2040 C.ar   47  PHE47      -0.0042
     34  CE1       -3.4890  -23.1050   13.6200 C.ar   47  PHE47      -0.0003
     35  CE2       -1.7210  -23.1130   15.2280 C.ar   47  PHE47      -0.0003
     36  CZ        -3.0690  -23.0450   14.9290 C.ar   47  PHE47      -0.0000
     37  N         -1.5930  -18.1870    9.0640 N.3    50  LEU50      -0.1231
     38  CA        -2.9950  -18.4720    8.7580 C.3    50  LEU50       0.1693
     39  C         -3.9190  -17.9320    9.8830 C.2    50  LEU50       0.2592
     40  O         -5.0030  -17.3970    9.6210 O.2    50  LEU50      -0.2718
     41  CB        -3.2230  -19.9840    8.5360 C.3    50  LEU50       0.0284
     42  CG        -2.7170  -20.5940    7.2250 C.3    50  LEU50       0.0019
     43  CD1       -2.8050  -22.1220    7.1680 C.3    50  LEU50       0.0001
     44  CD2       -3.4090  -19.9390    6.0420 C.3    50  LEU50       0.0001
     45  N         -3.4790  -18.0710   11.1270 N.am   51  SER51      -0.1952
     46  CA        -4.3370  -17.8190   12.2640 C.3    51  SER51       0.1924
     47  C         -4.5470  -16.3390   12.4330 C.2    51  SER51       0.2314
     48  O         -5.6120  -15.9110   12.8680 O.2    51  SER51      -0.2863
     49  CB        -3.7480  -18.4300   13.5270 C.3    51  SER51       0.2116
     50  OG        -3.7220  -19.8540   13.4460 O.3    51  SER51      -0.2180
     51  N         -5.0060  -14.5080   10.0330 N.3    53  LYS53      -0.1231
     52  CA        -6.0180  -14.1880    9.0260 C.3    53  LYS53       0.1693
     53  C         -7.4150  -14.6390    9.4730 C.2    53  LYS53       0.2592
     54  O         -8.4240  -13.9960    9.1560 O.2    53  LYS53      -0.2718
     55  CB        -5.6790  -14.7840    7.6600 C.3    53  LYS53       0.0285
     56  CG        -4.7000  -14.0040    6.7890 C.3    53  LYS53       0.0035
     57  CD        -4.5510  -14.6750    5.4170 C.3    53  LYS53       0.0206
     58  CE        -3.2790  -14.2800    4.6640 C.3    53  LYS53       0.1093
     59  NZ        -2.0830  -14.6350    5.4850 N.3    53  LYS53      -0.1314
     60  N         -7.4670  -15.7500   10.1930 N.am   54  CYS54      -0.1956
     61  CA        -8.6880  -16.2300   10.7780 C.3    54  CYS54       0.1843
     62  C         -9.2940  -15.2830   11.6950 C.2    54  CYS54       0.2625
     63  O        -10.5130  -15.1320   11.7400 O.2    54  CYS54      -0.2714
     64  CB        -8.3410  -17.3040   11.7430 C.3    54  CYS54       0.0997
     65  SG        -8.2550  -18.7870   10.8540 S.3    54  CYS54      -0.0797
     66  N         -8.4250  -14.7570   12.5440 N.am   55  ILE55      -0.1977
     67  CA        -8.8310  -13.8670   13.5930 C.3    55  ILE55       0.1596
     68  C         -9.3540  -12.5980   12.9560 C.2    55  ILE55       0.2287
     69  O        -10.3660  -12.0890   13.4030 O.2    55  ILE55      -0.2864
     70  CB        -7.6780  -13.4830   14.4910 C.3    55  ILE55       0.0276
     71  CG1       -7.1210  -14.7070   15.2170 C.3    55  ILE55       0.0022
     72  CG2       -8.1650  -12.4450   15.4700 C.3    55  ILE55       0.0022
     73  CD1       -5.9360  -14.3940   16.1070 C.3    55  ILE55       0.0001
     74  N        -10.7740  -12.5090   10.0410 N.3    57  LYS57      -0.1245
     75  CA       -12.0290  -12.9780    9.4500 C.3    57  LYS57       0.1561
     76  C        -13.1220  -13.0710   10.5120 C.2    57  LYS57       0.2260
     77  O        -14.2820  -12.7330   10.2830 O.2    57  LYS57      -0.2867
     78  CB       -11.8230  -14.3580    8.8150 C.3    57  LYS57       0.0271
     79  CG       -11.2780  -14.3590    7.3850 C.3    57  LYS57       0.0035
     80  CD       -11.9540  -13.3320    6.4890 C.3    57  LYS57       0.0206
     81  CE       -11.2570  -13.2140    5.1440 C.3    57  LYS57       0.1093
     82  NZ       -12.1910  -12.4930    4.2290 N.3    57  LYS57      -0.1314
     83  N        -11.4210  -17.6770   20.4560 N.3    85  LEU85      -0.1245
     84  CA       -10.7130  -18.9280   20.3170 C.3    85  LEU85       0.1561
     85  C        -11.7460  -19.9910   20.0070 C.2    85  LEU85       0.2260
     86  O        -11.5540  -20.8000   19.1160 O.2    85  LEU85      -0.2867
     87  CB        -9.9630  -19.2820   21.5900 C.3    85  LEU85       0.0270
     88  CG        -8.6610  -20.0210   21.3200 C.3    85  LEU85       0.0019
     89  CD1       -8.1870  -20.6270   22.6230 C.3    85  LEU85       0.0001
     90  CD2       -8.7900  -21.0930   20.2510 C.3    85  LEU85       0.0001
     91  N        -12.8370  -20.0370   16.4430 N.3    88  LEU88      -0.1231
     92  CA       -11.8500  -20.5490   15.5330 C.3    88  LEU88       0.1693
     93  C        -11.7610  -22.0760   15.6020 C.2    88  LEU88       0.2591
     94  O        -11.4050  -22.7070   14.6290 O.2    88  LEU88      -0.2718
     95  CB       -10.5170  -19.9470   15.8840 C.3    88  LEU88       0.0284
     96  CG       -10.3150  -18.4430   15.7190 C.3    88  LEU88       0.0019
     97  CD1       -8.8810  -18.1580   16.1180 C.3    88  LEU88       0.0001
     98  CD2      -10.5920  -18.0150   14.2690 C.3    88  LEU88       0.0001
     99  N        -12.0740  -22.6480   16.7610 N.am   89  ILE89      -0.1980
    100  CA       -12.0850  -24.0900   16.9610 C.3    89  ILE89       0.1595
    101  C        -13.2800  -24.6690   16.2500 C.2    89  ILE89       0.2287
    102  O        -13.1100  -25.6140   15.4510 O.2    89  ILE89      -0.2864
    103  CB       -12.1500  -24.5100   18.4360 C.3    89  ILE89       0.0276
    104  CG1      -10.8560  -24.1430   19.1950 C.3    89  ILE89       0.0022
    105  CG2      -12.3620  -26.0070   18.5180 C.3    89  ILE89       0.0022
    106  CD1      -11.0360  -23.9880   20.7020 C.3    89  ILE89       0.0001
    107  N        -14.9280  -23.2290   13.7800 N.3    91  ARG91      -0.1231
    108  CA       -14.7040  -22.9520   12.3930 C.3    91  ARG91       0.1694
    109  C        -13.8570  -24.0140   11.7590 C.2    91  ARG91       0.2591
    110  O        -14.3270  -24.6820   10.8310 O.2    91  ARG91      -0.2718
    111  CB       -14.0910  -21.5610   12.2350 C.3    91  ARG91       0.0321
    112  CG       -15.1730  -20.5520   11.9860 C.3    91  ARG91       0.0489
    113  CD       -14.6880  -19.1530   12.0940 C.3    91  ARG91       0.2205
    114  NE       -15.6930  -18.2020   11.6020 N.pl3  91  ARG91      -0.0865
    115  CZ       -15.4600  -17.3000   10.6510 C.cat  91  ARG91       0.5346
    116  NH1      -14.2580  -17.2150   10.0780 N.pl3  91  ARG91       0.1354
    117  NH2      -16.4270  -16.4780   10.2810 N.pl3  91  ARG91       0.1354
    118  N        -12.6460  -24.2180   12.2900 N.am   92  ILE92      -0.1980
    119  CA       -11.7580  -25.2540   11.7590 C.3    92  ILE92       0.1595
    120  C        -12.3730  -26.6590   11.8190 C.2    92  ILE92       0.2287
    121  O        -12.0760  -27.4730   10.9760 O.2    92  ILE92      -0.2864
    122  CB       -10.3240  -25.2460   12.3900 C.3    92  ILE92       0.0276
    123  CG1       -9.3160  -25.8830   11.4510 C.3    92  ILE92       0.0022
    124  CG2      -10.3000  -25.9050   13.7660 C.3    92  ILE92       0.0022
    125  CD1       -9.2850  -25.2690   10.0640 C.3    92  ILE92       0.0001
    126  N        -14.3810  -27.8410    9.0220 N.3    95  ARG95      -0.1245
    127  CA       -13.5530  -28.1740    7.8740 C.3    95  ARG95       0.1563
    128  C        -12.8600  -29.5490    8.0040 C.2    95  ARG95       0.2260
    129  O        -11.8390  -29.7900    7.3880 O.2    95  ARG95      -0.2867
    130  CB       -12.5310  -27.0650    7.6770 C.3    95  ARG95       0.0307
    131  CG       -13.1660  -25.7700    7.2420 C.3    95  ARG95       0.0489
    132  CD       -12.7320  -25.4080    5.8460 C.3    95  ARG95       0.2205
    133  NE       -13.0690  -24.0210    5.5300 N.pl3  95  ARG95      -0.0865
    134  CZ       -12.3390  -22.9720    5.8670 C.cat  95  ARG95       0.5346
    135  NH1      -11.1910  -23.1120    6.5420 N.pl3  95  ARG95       0.1354
    136  NH2      -12.7660  -21.7760    5.5260 N.pl3  95  ARG95       0.1354
    137  N         -7.5570  -25.5120    6.1620 N.3   105  PHE105     -0.1227
    138  CA        -7.5020  -24.0820    6.3330 C.3   105  PHE105      0.1736
    139  C         -8.0620  -23.2850    5.1290 C.2   105  PHE105      0.2596
    140  O         -8.1610  -23.8100    4.0590 O.2   105  PHE105     -0.2718
    141  CB        -6.0480  -23.7170    6.6960 C.3   105  PHE105      0.0547
    142  CG        -5.6270  -24.3120    7.9980 C.ar  105  PHE105     -0.0202
    143  CD1       -5.2190  -25.6390    8.0590 C.ar  105  PHE105     -0.0042
    144  CD2       -5.7510  -23.5800    9.1700 C.ar  105  PHE105     -0.0042
    145  CE1       -4.8870  -26.2030    9.2630 C.ar  105  PHE105     -0.0003
    146  CE2       -5.4380  -24.1360   10.3870 C.ar  105  PHE105     -0.0003
    147  CZ        -5.0000  -25.4530   10.4310 C.ar  105  PHE105     -0.0000
    148  N         -8.3750  -22.0030    5.3170 N.am  106  SER106     -0.1952
    149  CA        -9.1130  -21.1890    4.3690 C.3   106  SER106      0.1924
    150  C         -8.3140  -20.9330    3.1020 C.2   106  SER106      0.2314
    151  O         -8.8560  -20.4740    2.1270 O.2   106  SER106     -0.2863
    152  CB        -9.5430  -19.8720    5.0220 C.3   106  SER106      0.2116
    153  OG       -10.3800  -20.1400    6.1370 O.3   106  SER106     -0.2180
    154  N          1.1740  -27.1650   16.6800 N.3   120  GLY120     -0.1210
    155  CA         1.0780  -26.5300   17.9700 C.3   120  GLY120      0.1956
    156  C         -0.1620  -26.8490   18.7460 C.2   120  GLY120      0.2611
    157  O         -0.3850  -26.2800   19.8090 O.2   120  GLY120     -0.2717
    158  N         -0.9900  -27.7480   18.2290 N.am  121  PHE121     -0.1976
    159  CA        -2.1300  -28.1610   19.0110 C.3   121  PHE121      0.1639
    160  C         -1.6860  -29.0850   20.1300 C.2   121  PHE121      0.2290
    161  O         -2.2630  -29.0550   21.2080 O.2   121  PHE121     -0.2864
    162  CB        -3.2010  -28.7700   18.1340 C.3   121  PHE121      0.0560
    163  CG        -4.0060  -27.7490   17.3770 C.ar  121  PHE121     -0.0200
    164  CD1       -3.5790  -27.2770   16.1380 C.ar  121  PHE121     -0.0042
    165  CD2       -5.1850  -27.2480   17.9060 C.ar  121  PHE121     -0.0042
    166  CE1       -4.3100  -26.3310   15.4420 C.ar  121  PHE121     -0.0003
    167  CE2       -5.9310  -26.2960   17.2160 C.ar  121  PHE121     -0.0003
    168  CZ        -5.4970  -25.8470   15.9840 C.ar  121  PHE121     -0.0000
    169  N         -3.9680  -30.6280   22.8000 N.3   124  LEU124     -0.1245
    170  CA        -5.3580  -30.3610   22.4160 C.3   124  LEU124      0.1561
    171  C         -5.7890  -31.1080   21.1580 C.2   124  LEU124      0.2260
    172  O         -6.9890  -31.3160   20.9080 O.2   124  LEU124     -0.2867
    173  CB        -5.5810  -28.8610   22.2240 C.3   124  LEU124      0.0270
    174  CG        -5.2220  -27.9510   23.4020 C.3   124  LEU124      0.0019
    175  CD1       -5.1180  -26.4700   23.0150 C.3   124  LEU124      0.0001
    176  CD2       -6.1960  -28.2020   24.5550 C.3   124  LEU124      0.0001
    177  N         -6.4350  -23.3780   26.7490 N.3   210  GLY210     -0.1225
    178  CA        -5.7100  -22.5730   25.7770 C.3   210  GLY210      0.1811
    179  C         -4.4720  -21.9220   26.3250 C.2   210  GLY210      0.2280
    180  O         -3.3760  -22.1400   25.7930 O.2   210  GLY210     -0.2866
    181  N         -1.5040  -23.9640   27.0890 N.3   213  ARG213     -0.1231
    182  CA        -0.7250  -24.3850   25.9240 C.3   213  ARG213      0.1694
    183  C          0.1140  -23.2280   25.3900 C.2   213  ARG213      0.2591
    184  O          1.2110  -23.4410   24.8650 O.2   213  ARG213     -0.2718
    185  CB        -1.5940  -24.9790   24.8120 C.3   213  ARG213      0.0321
    186  CG        -0.8100  -25.5670   23.6370 C.3   213  ARG213      0.0489
    187  CD        -0.3940  -27.0100   23.8890 C.3   213  ARG213      0.2205
    188  NE         0.4390  -27.5270   22.8030 N.pl3 213  ARG213     -0.0865
    189  CZ         1.7360  -27.2650   22.6660 C.cat 213  ARG213      0.5346
    190  NH1        2.3440  -26.4860   23.5490 N.pl3 213  ARG213      0.1354
    191  NH2        2.4240  -27.7730   21.6470 N.pl3 213  ARG213      0.1354
    192  N         -0.4020  -22.0070   25.5400 N.am  214  VAL214     -0.1980
    193  CA         0.2890  -20.8150   25.0500 C.3   214  VAL214      0.1595
    194  C          1.6200  -20.6890   25.7440 C.2   214  VAL214      0.2287
    195  O          2.6110  -20.2600   25.1430 O.2   214  VAL214     -0.2864
    196  CB        -0.5050  -19.5120   25.2910 C.3   214  VAL214      0.0276
    197  CG1        0.2230  -18.3200   24.6780 C.3   214  VAL214      0.0022
    198  CG2       -1.8930  -19.6040   24.6850 C.3   214  VAL214      0.0022
    199  N          4.3180  -23.3830   24.8060 N.3   217  LEU217     -0.1245
    200  CA         4.5140  -23.2810   23.3840 C.3   217  LEU217      0.1561
    201  C          5.4880  -22.1530   23.1980 C.2   217  LEU217      0.2260
    202  O          6.4930  -22.3330   22.5050 O.2   217  LEU217     -0.2867
    203  CB         3.1610  -23.0440   22.6680 C.3   217  LEU217      0.0270
    204  CG         2.8500  -23.1640   21.1640 C.3   217  LEU217      0.0019
    205  CD1        3.0860  -21.8310   20.4840 C.3   217  LEU217      0.0001
    206  CD2        3.6040  -24.2770   20.4470 C.3   217  LEU217      0.0001
    207  N          4.6910  -14.8150   19.7200 N.3   225  MET225     -0.1245
    208  CA         3.3650  -14.7920   19.0740 C.3   225  MET225      0.1570
    209  C          3.2430  -13.5970   18.1330 C.2   225  MET225      0.2261
    210  O          3.5580  -12.4690   18.5260 O.2   225  MET225     -0.2867
    211  CB         2.2270  -14.7090   20.1010 C.3   225  MET225      0.0387
    212  CG         1.9460  -15.9680   20.8900 C.3   225  MET225      0.0595
    213  SD         1.8950  -17.4230   19.8350 S.3   225  MET225     -0.1393
    214  CE         1.5440  -18.7200   21.0260 C.3   225  MET225      0.0692
    215  N         -2.4770  -12.1610   17.3910 N.3   229  ILE229     -0.1245
    216  CA        -2.7220  -13.3020   18.2100 C.3   229  ILE229      0.1561
    217  C         -2.3700  -13.0160   19.6370 C.2   229  ILE229      0.2260
    218  O         -2.9850  -13.5030   20.5370 O.2   229  ILE229     -0.2867
    219  CB        -1.8890  -14.4720   17.7240 C.3   229  ILE229      0.0252
    220  CG1       -2.5770  -15.1190   16.5400 C.3   229  ILE229      0.0019
    221  CG2       -1.6990  -15.4670   18.8380 C.3   229  ILE229      0.0019
    222  CD1       -1.6540  -15.5640   15.4440 C.3   229  ILE229      0.0001
    223  N         -5.3940  -13.3080   23.3390 N.3   233  LEU233     -0.1245
    224  CA        -5.2650  -14.1650   24.5340 C.3   233  LEU233      0.1561
    225  C         -4.7180  -13.3560   25.6990 C.2   233  LEU233      0.2260
    226  O         -5.0140  -13.6100   26.8680 O.2   233  LEU233     -0.2867
    227  CB        -4.3420  -15.3550   24.2530 C.3   233  LEU233      0.0270
    228  CG        -4.2010  -15.8060   22.7930 C.3   233  LEU233      0.0019
    229  CD1       -3.4310  -17.1110   22.7330 C.3   233  LEU233      0.0001
    230  CD2       -5.5360  -15.9450   22.0600 C.3   233  LEU233      0.0001
@<TRIPOS>BOND
     1   151   150    2
     2   150   149    1
     3   140   139    2
     4    82    81    1
     5   149   152    1
     6   149   148    1
     7    58    57    1
     8    58    59    1
     9     3     4    2
    10     3     2    1
    11   152   153    1
    12   139   148   am
    13   139   138    1
    14    81    80    1
    15    57    56    1
    16   136   134    1
    17   133   132    1
    18   133   134    2
    19     1     2    1
    20   132   131    1
    21   134   135    1
    22     2     5    1
    23    44    42    1
    24   137   138    1
    25   138   141    1
    26    80    79    1
    27   141   142    1
    28    56    55    1
    29    43    42    1
    30    42    41    1
    31   131   130    1
    32     5     6    1
    33    79    78    1
    34   129   128    2
    35    55    52    1
    36   130   127    1
    37     6     7   ar
    38     6     8   ar
    39     7     9   ar
    40   127   128    1
    41   127   126    1
    42   142   143   ar
    43   142   144   ar
    44   143   145   ar
    45     8    10   ar
    46     9    11   ar
    47    41    38    1
    48    10    11   ar
    49    38    37    1
    50    38    39    1
    51    78    75    1
    52    52    53    1
    53    52    51    1
    54    54    53    2
    55   144   146   ar
    56   145   147   ar
    57    75    74    1
    58    75    76    1
    59    53    60   am
    60    40    39    2
    61    39    45   am
    62    26    27    1
    63   125   123    1
    64   116   115    1
    65    60    61    1
    66   117   115    1
    67    77    76    2
    68   146   147   ar
    69   115   114    2
    70    61    62    1
    71    61    64    1
    72    27    28    1
    73    27    30    1
    74   110   109    2
    75    65    64    1
    76   121   120    2
    77    45    46    1
    78   123   122    1
    79    29    28    2
    80   114   113    1
    81    62    63    2
    82    62    66   am
    83   109   118   am
    84   109   108    1
    85   119   120    1
    86   119   118    1
    87   119   122    1
    88    30    31    1
    89   112   113    1
    90   112   111    1
    91   111   108    1
    92    12    13    1
    93    14    15    2
    94    14    13    1
    95    46    47    1
    96    46    49    1
    97   122   124    1
    98   108   107    1
    99    47    48    2
   100    66    67    1
   101    32    31   ar
   102    32    34   ar
   103    31    33   ar
   104    68    69    2
   105    68    67    1
   106    13    16    1
   107    50    49    1
   108    67    70    1
   109    34    36   ar
   110    33    35   ar
   111    16    17    1
   112    98    96    1
   113    70    71    1
   114    70    72    1
   115    94    93    2
   116    18    17   ar
   117    18    20   ar
   118    17    19   ar
   119    36    35   ar
   120    71    73    1
   121    20    21   ar
   122   166   168   ar
   123   166   164   ar
   124   222   220    1
   125   102   101    2
   126    92    93    1
   127    92    95    1
   128    92    91    1
   129    93    99   am
   130    19    21   ar
   131    19    22   ar
   132    96    95    1
   133    96    97    1
   134    21    23   ar
   135   168   167   ar
   136    22    24   ar
   137   164   163   ar
   138   101   100    1
   139   220   219    1
   140   154   155    1
   141    23    25   ar
   142    99   100    1
   143    24    25   ar
   144   100   103    1
   145   167   165   ar
   146   163   165   ar
   147   163   162    1
   148   215   216    1
   149   219   216    1
   150   219   221    1
   151   155   156    1
   152   209   210    2
   153   209   208    1
   154   162   159    1
   155   216   217    1
   156   158   156   am
   157   158   159    1
   158   103   105    1
   159   103   104    1
   160   156   157    2
   161   159   160    1
   162   208   207    1
   163   208   211    1
   164    86    85    2
   165   104   106    1
   166   217   218    2
   167   213   212    1
   168   213   214    1
   169    85    84    1
   170   211   212    1
   171   160   161    2
   172    90    88    1
   173    84    83    1
   174    84    87    1
   175   206   204    1
   176   205   204    1
   177   172   171    2
   178   171   170    1
   179   204   203    1
   180    88    87    1
   181    88    89    1
   182   191   189    1
   183   230   228    1
   184   173   170    1
   185   173   174    1
   186   170   169    1
   187   202   201    2
   188   189   188    2
   189   189   190    1
   190   203   200    1
   191   229   228    1
   192   228   227    1
   193   188   187    1
   194   175   174    1
   195   201   200    1
   196   223   224    1
   197   200   199    1
   198   174   176    1
   199   186   187    1
   200   186   185    1
   201   227   224    1
   202   224   225    1
   203   197   196    1
   204   198   196    1
   205   185   182    1
   206   184   183    2
   207   193   196    1
   208   193   192    1
   209   193   194    1
   210   195   194    2
   211   183   192   am
   212   183   182    1
   213   225   226    2
   214   178   179    1
   215   178   177    1
   216   180   179    2
   217   182   181    1
