@<TRIPOS>MOLECULE
tmp/4dqmC01.pdb
 201 190 0 0 0
SMALL
GASTEIGER

@<TRIPOS>ATOM
      1  N        -28.4510  -32.9410   49.1120 N.3    18  PHE18      -0.1241
      2  CA       -27.9190  -31.6010   49.2260 C.3    18  PHE18       0.1605
      3  C        -28.8470  -30.5540   49.9060 C.2    18  PHE18       0.2264
      4  O        -29.5890  -29.8250   49.2540 O.2    18  PHE18      -0.2867
      5  CB       -27.4050  -31.1640   47.8660 C.3    18  PHE18       0.0534
      6  CG       -26.5690  -29.9510   47.9190 C.ar   18  PHE18      -0.0203
      7  CD1      -27.1530  -28.7070   47.6790 C.ar   18  PHE18      -0.0042
      8  CD2      -25.2190  -30.0250   48.2720 C.ar   18  PHE18      -0.0042
      9  CE1      -26.4250  -27.5690   47.7630 C.ar   18  PHE18      -0.0003
     10  CE2      -24.4790  -28.8590   48.3580 C.ar   18  PHE18      -0.0003
     11  CZ       -25.0840  -27.6300   48.0790 C.ar   18  PHE18      -0.0000
     12  N         -7.9320  -24.8200   54.3510 N.3    44  TRP44      -0.1241
     13  CA        -7.7030  -26.0120   53.5280 C.3    44  TRP44       0.1605
     14  C         -8.1070  -27.3000   54.2220 C.2    44  TRP44       0.2264
     15  O         -8.7870  -28.1390   53.6490 O.2    44  TRP44      -0.2867
     16  CB        -6.2570  -26.1040   53.0150 C.3    44  TRP44       0.0550
     17  CG        -5.9030  -27.4900   52.4650 C.ar   44  TRP44       0.0003
     18  CD1       -5.0950  -28.4830   53.0550 C.ar   44  TRP44       0.0946
     19  CD2       -6.3490  -28.0880   51.2110 C.ar   44  TRP44       0.0152
     20  NE1       -5.0240  -29.6170   52.2710 N.ar   44  TRP44      -0.2442
     21  CE2       -5.7500  -29.4490   51.1540 C.ar   44  TRP44       0.0810
     22  CE3       -7.1470  -27.6630   50.1640 C.ar   44  TRP44       0.0012
     23  CZ2       -5.9750  -30.3090   50.0830 C.ar   44  TRP44       0.0191
     24  CZ3       -7.3660  -28.5460   49.0850 C.ar   44  TRP44       0.0001
     25  CH2       -6.7930  -29.8340   49.0460 C.ar   44  TRP44       0.0015
     26  N        -11.9950  -27.3320   54.6030 N.3    47  PHE47      -0.1227
     27  CA       -12.5440  -27.3810   53.2480 C.3    47  PHE47       0.1736
     28  C        -12.3360  -28.7350   52.5300 C.2    47  PHE47       0.2596
     29  O        -13.3050  -29.3600   52.0610 O.2    47  PHE47      -0.2718
     30  CB       -11.9920  -26.2170   52.4110 C.3    47  PHE47       0.0547
     31  CG       -12.2770  -26.3460   50.9560 C.ar   47  PHE47      -0.0202
     32  CD1      -13.6020  -26.3480   50.4670 C.ar   47  PHE47      -0.0042
     33  CD2      -11.2370  -26.4850   50.0700 C.ar   47  PHE47      -0.0042
     34  CE1      -13.8610  -26.4840   49.1200 C.ar   47  PHE47      -0.0003
     35  CE2      -11.4880  -26.6440   48.7130 C.ar   47  PHE47      -0.0003
     36  CZ       -12.8010  -26.6430   48.2370 C.ar   47  PHE47      -0.0000
     37  N        -11.0800  -29.1700   52.4350 N.am   48  SER48      -0.1952
     38  CA       -10.7450  -30.3670   51.6660 C.3    48  SER48       0.1924
     39  C        -11.4760  -31.5710   52.2560 C.2    48  SER48       0.2314
     40  O        -11.7090  -32.5890   51.5860 O.2    48  SER48      -0.2863
     41  CB        -9.2330  -30.6190   51.6600 C.3    48  SER48       0.2116
     42  OG        -8.7700  -30.8960   52.9770 O.3    48  SER48      -0.2180
     43  N        -14.7170  -31.3590   54.1000 N.3    50  LEU50      -0.1231
     44  CA       -16.0690  -31.1210   53.5930 C.3    50  LEU50       0.1693
     45  C        -16.2390  -31.6050   52.1460 C.2    50  LEU50       0.2592
     46  O        -17.3020  -32.0860   51.7440 O.2    50  LEU50      -0.2718
     47  CB       -16.4140  -29.6210   53.6890 C.3    50  LEU50       0.0284
     48  CG       -16.4640  -29.0890   55.1100 C.3    50  LEU50       0.0019
     49  CD1      -16.4290  -27.5820   55.1370 C.3    50  LEU50       0.0001
     50  CD2      -17.6800  -29.5680   55.8690 C.3    50  LEU50       0.0001
     51  N        -15.1850  -31.4680   51.3560 N.am   51  SER51      -0.1952
     52  CA       -15.2790  -31.8210   49.9680 C.3    51  SER51       0.1924
     53  C        -15.3280  -33.3230   49.7700 C.2    51  SER51       0.2314
     54  O        -15.9630  -33.8150   48.8320 O.2    51  SER51      -0.2863
     55  CB       -14.0960  -31.2370   49.2340 C.3    51  SER51       0.2116
     56  OG       -14.2990  -29.8470   49.1140 O.3    51  SER51      -0.2180
     57  N        -18.7800  -34.2010   50.0900 N.3    54  CYS54      -0.1221
     58  CA       -19.4700  -33.6860   48.9590 C.3    54  CYS54       0.1808
     59  C        -19.5230  -34.6070   47.8290 C.2    54  CYS54       0.2601
     60  O        -20.5790  -34.7970   47.1950 O.2    54  CYS54      -0.2717
     61  CB       -18.6830  -32.5390   48.4420 C.3    54  CYS54       0.0970
     62  SG       -19.7290  -31.0890   48.6260 S.3    54  CYS54      -0.0800
     63  N        -18.3490  -35.1230   47.5340 N.am   55  ILE55      -0.1979
     64  CA       -18.1710  -35.9630   46.3810 C.3    55  ILE55       0.1595
     65  C        -18.9750  -37.2230   46.6060 C.2    55  ILE55       0.2287
     66  O        -19.6180  -37.7270   45.6730 O.2    55  ILE55      -0.2864
     67  CB       -16.6830  -36.2700   46.1420 C.3    55  ILE55       0.0276
     68  CG1      -15.9480  -35.0300   45.6080 C.3    55  ILE55       0.0022
     69  CG2      -16.5240  -37.4470   45.1880 C.3    55  ILE55       0.0022
     70  CD1      -14.4370  -35.1660   45.5400 C.3    55  ILE55       0.0001
     71  N        -16.6650  -32.2420   39.3230 N.3    85  LEU85      -0.1245
     72  CA       -16.2010  -30.9510   39.7940 C.3    85  LEU85       0.1561
     73  C        -17.2450  -29.8880   39.4490 C.2    85  LEU85       0.2260
     74  O        -17.5490  -29.0570   40.2740 O.2    85  LEU85      -0.2867
     75  CB       -14.8490  -30.6170   39.1910 C.3    85  LEU85       0.0270
     76  CG       -13.8510  -29.7740   40.0200 C.3    85  LEU85       0.0019
     77  CD1      -12.8690  -29.0290   39.1150 C.3    85  LEU85       0.0001
     78  CD2      -14.5000  -28.7720   40.9650 C.3    85  LEU85       0.0001
     79  N        -20.1430  -29.7170   41.7420 N.3    88  LEU88      -0.1231
     80  CA       -19.8350  -29.2610   43.0750 C.3    88  LEU88       0.1693
     81  C        -19.7990  -27.7380   43.0910 C.2    88  LEU88       0.2591
     82  O        -20.2460  -27.0930   44.0570 O.2    88  LEU88      -0.2718
     83  CB       -18.5020  -29.8140   43.5200 C.3    88  LEU88       0.0284
     84  CG       -18.3400  -31.3280   43.6870 C.3    88  LEU88       0.0019
     85  CD1      -16.9150  -31.5930   44.1110 C.3    88  LEU88       0.0001
     86  CD2      -19.2810  -31.8230   44.7570 C.3    88  LEU88       0.0001
     87  N        -19.2820  -27.1700   42.0070 N.am   89  ILE89      -0.1980
     88  CA       -19.2040  -25.7470   41.8440 C.3    89  ILE89       0.1595
     89  C        -20.6360  -25.2250   41.8010 C.2    89  ILE89       0.2287
     90  O        -20.9430  -24.1800   42.4230 O.2    89  ILE89      -0.2864
     91  CB       -18.4400  -25.4200   40.5630 C.3    89  ILE89       0.0276
     92  CG1      -16.9920  -25.9160   40.6650 C.3    89  ILE89       0.0022
     93  CG2      -18.4150  -23.9440   40.3010 C.3    89  ILE89       0.0022
     94  CD1      -16.3690  -26.0880   39.3050 C.3    89  ILE89       0.0001
     95  N        -23.3260  -26.8850   43.0320 N.3    91  ARG91      -0.1231
     96  CA       -23.7770  -27.0640   44.3710 C.3    91  ARG91       0.1694
     97  C        -23.3910  -25.9300   45.2740 C.2    91  ARG91       0.2591
     98  O        -24.2850  -25.2380   45.7620 O.2    91  ARG91      -0.2718
     99  CB       -23.3390  -28.4070   44.8770 C.3    91  ARG91       0.0321
    100  CG       -24.3650  -29.4020   44.3800 C.3    91  ARG91       0.0489
    101  CD       -23.9620  -30.8570   44.4660 C.3    91  ARG91       0.2205
    102  NE       -25.1500  -31.7040   44.6100 N.pl3  91  ARG91      -0.0865
    103  CZ       -25.2660  -32.7170   45.4630 C.cat  91  ARG91       0.5346
    104  NH1      -24.2660  -33.0890   46.2840 N.pl3  91  ARG91       0.1354
    105  NH2      -26.3920  -33.3710   45.4750 N.pl3  91  ARG91       0.1354
    106  N        -22.0900  -25.6790   45.4510 N.am   92  ILE92      -0.1980
    107  CA       -21.6730  -24.6160   46.3770 C.3    92  ILE92       0.1595
    108  C        -22.2230  -23.2320   46.0330 C.2    92  ILE92       0.2287
    109  O        -22.5700  -22.5060   46.9440 O.2    92  ILE92      -0.2864
    110  CB       -20.1480  -24.5330   46.6600 C.3    92  ILE92       0.0276
    111  CG1      -19.8910  -23.8840   48.0350 C.3    92  ILE92       0.0022
    112  CG2      -19.4100  -23.7640   45.5690 C.3    92  ILE92       0.0022
    113  CD1      -20.4920  -24.6560   49.1980 C.3    92  ILE92       0.0001
    114  N        -21.1310  -24.2960   53.5300 N.3   105  PHE105     -0.1241
    115  CA       -21.0030  -25.7440   53.3540 C.3   105  PHE105      0.1605
    116  C        -22.1030  -26.5600   54.0620 C.2   105  PHE105      0.2264
    117  O        -22.8730  -26.0180   54.8340 O.2   105  PHE105     -0.2867
    118  CB       -19.5770  -26.2110   53.6740 C.3   105  PHE105      0.0534
    119  CG       -18.5590  -25.6560   52.7300 C.ar  105  PHE105     -0.0203
    120  CD1      -18.2100  -24.3030   52.7910 C.ar  105  PHE105     -0.0042
    121  CD2      -17.9490  -26.4460   51.7790 C.ar  105  PHE105     -0.0042
    122  CE1      -17.2800  -23.7570   51.9280 C.ar  105  PHE105     -0.0003
    123  CE2      -17.0000  -25.8950   50.9050 C.ar  105  PHE105     -0.0003
    124  CZ       -16.6860  -24.5450   50.9770 C.ar  105  PHE105     -0.0000
    125  N         -8.0550  -22.4510   49.1740 N.3   120  GLY120     -0.1210
    126  CA        -7.4370  -23.1220   48.0320 C.3   120  GLY120      0.1956
    127  C         -8.0930  -22.7960   46.7020 C.2   120  GLY120      0.2611
    128  O         -7.6760  -23.3090   45.6710 O.2   120  GLY120     -0.2717
    129  N         -9.1200  -21.9520   46.6930 N.am  121  PHE121     -0.1976
    130  CA        -9.6830  -21.5820   45.3990 C.3   121  PHE121      0.1639
    131  C         -8.7340  -20.6750   44.6300 C.2   121  PHE121      0.2290
    132  O         -8.5890  -20.8110   43.4200 O.2   121  PHE121     -0.2864
    133  CB       -11.0710  -20.9740   45.5350 C.3   121  PHE121      0.0560
    134  CG       -12.1530  -21.9920   45.7250 C.ar  121  PHE121     -0.0200
    135  CD1      -12.4850  -22.4500   46.9960 C.ar  121  PHE121     -0.0042
    136  CD2      -12.8330  -22.5250   44.6230 C.ar  121  PHE121     -0.0042
    137  CE1      -13.4930  -23.4030   47.1620 C.ar  121  PHE121     -0.0003
    138  CE2      -13.8420  -23.4710   44.7740 C.ar  121  PHE121     -0.0003
    139  CZ       -14.1740  -23.9060   46.0450 C.ar  121  PHE121     -0.0000
    140  N         -9.3280  -19.0220   41.0980 N.3   124  LEU124     -0.1245
    141  CA       -10.6690  -19.4110   40.6850 C.3   124  LEU124      0.1561
    142  C        -11.7430  -18.6530   41.4430 C.2   124  LEU124      0.2260
    143  O        -12.8920  -18.5970   40.9960 O.2   124  LEU124     -0.2867
    144  CB       -10.8800  -20.9250   40.8340 C.3   124  LEU124      0.0270
    145  CG        -9.8290  -21.7940   40.1170 C.3   124  LEU124      0.0019
    146  CD1      -10.2220  -23.2630   40.1250 C.3   124  LEU124      0.0001
    147  CD2       -9.5540  -21.3500   38.6880 C.3   124  LEU124      0.0001
    148  N         -9.4360  -26.2240   36.8470 N.3   210  GLY210     -0.1225
    149  CA        -9.2560  -27.0820   38.0010 C.3   210  GLY210      0.1811
    150  C         -7.8860  -27.7090   38.0270 C.2   210  GLY210      0.2280
    151  O         -7.1490  -27.5250   38.9930 O.2   210  GLY210     -0.2866
    152  N         -4.9000  -25.4510   38.8130 N.3   213  ARG213     -0.1231
    153  CA        -4.8890  -25.0110   40.2130 C.3   213  ARG213      0.1694
    154  C         -4.4840  -26.1430   41.1690 C.2   213  ARG213      0.2591
    155  O         -3.8440  -25.8990   42.1890 O.2   213  ARG213     -0.2718
    156  CB        -6.2180  -24.3740   40.6340 C.3   213  ARG213      0.0321
    157  CG        -6.2110  -23.8550   42.0680 C.3   213  ARG213      0.0489
    158  CD        -5.1960  -22.7550   42.2630 C.3   213  ARG213      0.2205
    159  NE        -5.2780  -22.2130   43.6050 N.pl3 213  ARG213     -0.0865
    160  CZ        -4.2990  -22.2870   44.5110 C.cat 213  ARG213      0.5346
    161  NH1       -3.1440  -22.8780   44.2080 N.pl3 213  ARG213      0.1354
    162  NH2       -4.4610  -21.7600   45.7270 N.pl3 213  ARG213      0.1354
    163  N         -4.8530  -27.3750   40.8320 N.am  214  VAL214     -0.1980
    164  CA        -4.3700  -28.5240   41.5950 C.3   214  VAL214      0.1595
    165  C         -2.8440  -28.6480   41.5910 C.2   214  VAL214      0.2287
    166  O         -2.2510  -28.9190   42.6450 O.2   214  VAL214     -0.2864
    167  CB        -4.9820  -29.8470   41.1150 C.3   214  VAL214      0.0276
    168  CG1       -4.1990  -31.0290   41.6500 C.3   214  VAL214      0.0022
    169  CG2       -6.4200  -29.9250   41.5690 C.3   214  VAL214      0.0022
    170  N         -1.1710  -26.2680   43.8860 N.3   217  LEU217     -0.1245
    171  CA        -1.7640  -26.3780   45.2130 C.3   217  LEU217      0.1561
    172  C         -1.0640  -27.4840   45.9600 C.2   217  LEU217      0.2260
    173  O         -0.6430  -27.2780   47.0870 O.2   217  LEU217     -0.2867
    174  CB        -3.2690  -26.6610   45.0960 C.3   217  LEU217      0.0270
    175  CG        -4.2500  -26.5280   46.2670 C.3   217  LEU217      0.0019
    176  CD1       -4.3720  -27.8000   47.0850 C.3   217  LEU217      0.0001
    177  CD2       -3.8970  -25.3580   47.1690 C.3   217  LEU217      0.0001
    178  N         -3.3250  -34.7390   48.4550 N.3   225  MET225     -0.1245
    179  CA        -4.7320  -34.8290   48.1400 C.3   225  MET225      0.1570
    180  C         -5.3430  -35.9960   48.8630 C.2   225  MET225      0.2261
    181  O         -4.8820  -37.1220   48.6790 O.2   225  MET225     -0.2867
    182  CB        -4.9120  -35.0350   46.6490 C.3   225  MET225      0.0387
    183  CG        -4.8490  -33.7380   45.8880 C.3   225  MET225      0.0595
    184  SD        -5.8680  -32.4840   46.6820 S.3   225  MET225     -0.1393
    185  CE        -5.2580  -31.0350   45.8140 C.3   225  MET225      0.0692
    186  N        -10.6590  -37.4200   46.4780 N.3   229  ILE229     -0.1245
    187  CA       -10.4660  -36.2920   45.6160 C.3   229  ILE229      0.1561
    188  C         -9.3780  -36.5710   44.6130 C.2   229  ILE229      0.2260
    189  O         -9.4810  -36.1800   43.4820 O.2   229  ILE229     -0.2867
    190  CB       -10.0970  -35.0760   46.4350 C.3   229  ILE229      0.0252
    191  CG1      -11.0860  -34.9220   47.5700 C.3   229  ILE229      0.0019
    192  CG2      -10.0950  -33.8420   45.5700 C.3   229  ILE229      0.0019
    193  CD1      -11.0140  -33.5910   48.2580 C.3   229  ILE229      0.0001
    194  N         -9.9890  -36.4810   39.8710 N.3   233  LEU233     -0.1245
    195  CA        -9.2260  -35.5360   39.0320 C.3   233  LEU233      0.1561
    196  C         -8.0850  -36.2010   38.2690 C.2   233  LEU233      0.2260
    197  O         -7.6980  -35.7270   37.2050 O.2   233  LEU233     -0.2867
    198  CB        -8.6610  -34.3760   39.8680 C.3   233  LEU233      0.0270
    199  CG        -9.3470  -33.9860   41.1890 C.3   233  LEU233      0.0019
    200  CD1       -8.3730  -33.2300   42.0950 C.3   233  LEU233      0.0001
    201  CD2      -10.6860  -33.2330   41.0300 C.3   233  LEU233      0.0001
@<TRIPOS>BOND
     1   148   149    1
     2   197   196    2
     3   149   150    1
     4   150   151    2
     5   196   195    1
     6   147   145    1
     7   152   153    1
     8   195   198    1
     9   195   194    1
    10    77    76    1
    11    75    72    1
    12    75    76    1
    13    94    92    1
    14    71    72    1
    15    73    72    1
    16    73    74    2
    17   198   199    1
    18    76    78    1
    19   145   146    1
    20   145   144    1
    21   153   156    1
    22   153   154    1
    23    93    91    1
    24    91    92    1
    25    91    88    1
    26   156   157    1
    27   141   144    1
    28   141   140    1
    29   141   142    1
    30   163   154   am
    31   163   164    1
    32   143   142    2
    33   201   199    1
    34   167   169    1
    35   167   164    1
    36   167   168    1
    37   154   155    2
    38   199   200    1
    39   165   164    1
    40   165   166    2
    41    79    80    1
    42    89    88    1
    43    89    90    2
    44    88    87    1
    45    87    81   am
    46   157   158    1
    47   158   159    1
    48    95    96    1
    49    80    81    1
    50    80    83    1
    51    81    82    2
    52   132   131    2
    53   189   188    2
    54    83    84    1
    55   159   160    2
    56    84    85    1
    57    84    86    1
    58   170   171    1
    59   161   160    1
    60    96    99    1
    61    96    97    1
    62   100   101    1
    63   100    99    1
    64   101   102    1
    65   160   162    1
    66   102   103    2
    67   188   187    1
    68   136   138   ar
    69   136   134   ar
    70   131   130    1
    71   138   139   ar
    72   174   171    1
    73   174   175    1
    74    69    67    1
    75   171   172    1
    76    97   106   am
    77    97    98    2
    78   130   133    1
    79   130   129    1
    80   106   107    1
    81   103   105    1
    82   103   104    1
    83   133   134    1
    84    70    68    1
    85   112   110    1
    86   192   190    1
    87    68    67    1
    88   187   190    1
    89   187   186    1
    90   128   127    2
    91    66    65    2
    92   134   135   ar
    93   185   184    1
    94   183   182    1
    95   183   184    1
    96   172   173    2
    97   108   107    1
    98   108   109    2
    99   139   137   ar
   100    67    64    1
   101   175   176    1
   102   175   177    1
   103   107   110    1
   104    64    65    1
   105    64    63    1
   106   190   191    1
   107   182   179    1
   108   110   111    1
   109   129   127   am
   110   127   126    1
   111   135   137   ar
   112    60    59    2
   113    63    59   am
   114   191   193    1
   115     7     9   ar
   116     7     6   ar
   117     9    11   ar
   118    59    58    1
   119     5     6    1
   120     5     2    1
   121     6     8   ar
   122   126   125    1
   123   111   113    1
   124    11    10   ar
   125   179   178    1
   126   179   180    1
   127    36    35   ar
   128    36    34   ar
   129     8    10   ar
   130    61    62    1
   131    61    58    1
   132   181   180    2
   133    35    33   ar
   134    54    53    2
   135    58    57    1
   136    25    24   ar
   137    25    23   ar
   138    24    22   ar
   139     1     2    1
   140    56    55    1
   141    34    32   ar
   142     2     3    1
   143    55    52    1
   144     4     3    2
   145    53    52    1
   146    52    51    1
   147    33    31   ar
   148    23    21   ar
   149    22    19   ar
   150    32    31   ar
   151   123   124   ar
   152   123   121   ar
   153    31    30    1
   154   124   122   ar
   155    21    19   ar
   156    21    20   ar
   157    19    17   ar
   158    51    45   am
   159    40    39    2
   160    41    38    1
   161    41    42    1
   162    38    39    1
   163    38    37    1
   164    46    45    2
   165   121   119   ar
   166   122   120   ar
   167    29    28    2
   168    45    44    1
   169    20    18   ar
   170    30    27    1
   171    37    28   am
   172    17    16    1
   173    17    18   ar
   174    28    27    1
   175   119   120   ar
   176   119   118    1
   177    16    13    1
   178    27    26    1
   179   115   114    1
   180   115   118    1
   181   115   116    1
   182    13    14    1
   183    13    12    1
   184    44    47    1
   185    44    43    1
   186    15    14    2
   187    47    48    1
   188   116   117    2
   189    48    49    1
   190    48    50    1
