@<TRIPOS>MOLECULE
tmp/4dqqA02.pdb
 118 111 0 0 0
SMALL
GASTEIGER

@<TRIPOS>ATOM
      1  N        114.1360  -58.1010   27.5610 N.3    25  GLU25      -0.1231
      2  CA       113.0590  -57.1090   27.6140 C.3    25  GLU25       0.1699
      3  C        112.4780  -56.9230   29.0030 C.2    25  GLU25       0.2592
      4  O        111.9700  -57.8540   29.5990 O.2    25  GLU25      -0.2718
      5  CB       111.9410  -57.5090   26.6580 C.3    25  GLU25       0.0402
      6  CG       110.8710  -56.4290   26.4890 C.3    25  GLU25       0.1161
      7  CD       111.2230  -55.4180   25.4270 C.2    25  GLU25       0.3649
      8  OE1      112.4280  -55.2640   25.1280 O.co2  25  GLU25      -0.2457
      9  OE2      110.2980  -54.7720   24.8790 O.co2  25  GLU25      -0.2457
     10  N        112.5680  -55.6930   29.4940 N.am   26  VAL26      -0.1966
     11  CA       112.0480  -55.2990   30.8030 C.3    26  VAL26       0.1727
     12  C        111.0950  -54.1390   30.5330 C.2    26  VAL26       0.2616
     13  O        111.5420  -53.0460   30.1930 O.2    26  VAL26      -0.2715
     14  CB       113.1910  -54.8350   31.7240 C.3    26  VAL26       0.0290
     15  CG1      112.6750  -54.4300   33.1060 C.3    26  VAL26       0.0023
     16  CG2      114.2440  -55.9290   31.8340 C.3    26  VAL26       0.0023
     17  N        109.7990  -54.3980   30.6590 N.am   27  VAL27      -0.1977
     18  CA       108.7630  -53.4330   30.2540 C.3    27  VAL27       0.1596
     19  C        108.4620  -52.4020   31.3300 C.2    27  VAL27       0.2287
     20  O        108.1100  -51.2610   31.0110 O.2    27  VAL27      -0.2864
     21  CB       107.4670  -54.1690   29.8710 C.3    27  VAL27       0.0276
     22  CG1      106.3480  -53.1760   29.5640 C.3    27  VAL27       0.0022
     23  CG2      107.7340  -55.0610   28.6740 C.3    27  VAL27       0.0022
     24  N        108.8620  -49.4470   33.7240 N.3    29  GLU29      -0.1245
     25  CA       109.7530  -48.3020   33.5310 C.3    29  GLU29       0.1567
     26  C        110.9240  -48.3140   34.5450 C.2    29  GLU29       0.2260
     27  O        112.0900  -48.0750   34.1930 O.2    29  GLU29      -0.2867
     28  CB       108.9430  -47.0040   33.5800 C.3    29  GLU29       0.0388
     29  CG       107.8660  -47.0120   32.4960 C.3    29  GLU29       0.1160
     30  CD       107.2400  -45.6570   32.2280 C.2    29  GLU29       0.3649
     31  OE1      107.7530  -44.6350   32.7400 O.co2  29  GLU29      -0.2457
     32  OE2      106.2290  -45.6260   31.4880 O.co2  29  GLU29      -0.2457
     33  N        120.1050  -52.2920   22.9780 N.3    75  PHE75      -0.1227
     34  CA       119.5550  -50.9590   23.1850 C.3    75  PHE75       0.1736
     35  C        119.2380  -50.8370   24.6800 C.2    75  PHE75       0.2595
     36  O        118.4630  -51.6260   25.2200 O.2    75  PHE75      -0.2718
     37  CB       118.2970  -50.7890   22.3230 C.3    75  PHE75       0.0547
     38  CG       117.6400  -49.4400   22.4510 C.ar   75  PHE75      -0.0202
     39  CD1      117.8210  -48.4730   21.4780 C.ar   75  PHE75      -0.0042
     40  CD2      116.8280  -49.1530   23.5450 C.ar   75  PHE75      -0.0042
     41  CE1      117.2000  -47.2410   21.5900 C.ar   75  PHE75      -0.0003
     42  CE2      116.2040  -47.9220   23.6600 C.ar   75  PHE75      -0.0003
     43  CZ       116.3960  -46.9590   22.6780 C.ar   75  PHE75      -0.0000
     44  N        119.8240  -49.8500   25.3580 N.am   76  ASP76      -0.1974
     45  CA       119.6380  -49.6500   26.8000 C.3    76  ASP76       0.1709
     46  C        120.1970  -50.8350   27.5830 C.2    76  ASP76       0.2293
     47  O        119.4750  -51.5480   28.3030 O.2    76  ASP76      -0.2864
     48  CB       118.1780  -49.3870   27.1820 C.3    76  ASP76       0.1436
     49  CG       118.0380  -48.7660   28.5760 C.2    76  ASP76       0.3671
     50  OD1      119.0570  -48.6290   29.3170 O.co2  76  ASP76      -0.2456
     51  OD2      116.8790  -48.4400   28.9330 O.co2  76  ASP76      -0.2456
     52  N        119.6810  -51.0400   31.5240 N.3    79  ARG79      -0.1245
     53  CA       118.3930  -51.6120   31.9350 C.3    79  ARG79       0.1563
     54  C        118.5100  -53.1440   32.0250 C.2    79  ARG79       0.2260
     55  O        118.1070  -53.7740   33.0200 O.2    79  ARG79      -0.2867
     56  CB       117.3090  -51.1600   30.9380 C.3    79  ARG79       0.0307
     57  CG       115.9700  -51.9350   30.9400 C.3    79  ARG79       0.0489
     58  CD       114.9800  -51.3470   29.9400 C.3    79  ARG79       0.2205
     59  NE       114.6290  -49.9970   30.3880 N.pl3  79  ARG79      -0.0865
     60  CZ       113.6350  -49.7120   31.2230 C.cat  79  ARG79       0.5346
     61  NH1      112.8110  -50.6580   31.6600 N.pl3  79  ARG79       0.1354
     62  NH2      113.4810  -48.4630   31.6270 N.pl3  79  ARG79       0.1354
     63  N        113.8270  -43.0580   22.8720 N.3   112  ASP112     -0.1225
     64  CA       113.6940  -43.8960   24.0660 C.3   112  ASP112      0.1805
     65  C        113.1780  -45.2880   23.7360 C.2   112  ASP112      0.2597
     66  O        112.7910  -46.0520   24.6370 O.2   112  ASP112     -0.2718
     67  CB       112.7770  -43.2250   25.0890 C.3   112  ASP112      0.1424
     68  CG       111.3440  -43.1300   24.6140 C.2   112  ASP112      0.3668
     69  OD1      111.0760  -43.3420   23.4120 O.co2 112  ASP112     -0.2456
     70  OD2      110.4850  -42.8080   25.4600 O.co2 112  ASP112     -0.2456
     71  N        113.1790  -45.6290   22.4490 N.am  113  ASP113     -0.1974
     72  CA       112.9670  -47.0110   22.0380 C.3   113  ASP113      0.1709
     73  C        113.6510  -47.2920   20.7070 C.2   113  ASP113      0.2293
     74  O        114.0610  -46.3880   19.9900 O.2   113  ASP113     -0.2864
     75  CB       111.4720  -47.4070   22.0270 C.3   113  ASP113      0.1436
     76  CG       110.6650  -46.7330   20.9350 C.2   113  ASP113      0.3671
     77  OD1      109.4540  -47.0640   20.8360 O.co2 113  ASP113     -0.2456
     78  OD2      111.1940  -45.8850   20.1890 O.co2 113  ASP113     -0.2456
     79  N        107.5780  -49.2990   20.9200 N.3   129  ASP129     -0.1239
     80  CA       107.1850  -50.0810   22.0870 C.3   129  ASP129      0.1674
     81  C        105.7650  -49.7360   22.5300 C.2   129  ASP129      0.2266
     82  O        105.0080  -50.6180   22.9430 O.2   129  ASP129     -0.2867
     83  CB       108.1640  -49.8710   23.2470 C.3   129  ASP129      0.1410
     84  CG       109.4770  -50.5980   23.0540 C.2   129  ASP129      0.3668
     85  OD1      109.5520  -51.5190   22.2150 O.co2 129  ASP129     -0.2456
     86  OD2      110.4420  -50.2550   23.7640 O.co2 129  ASP129     -0.2456
     87  N        102.8560  -52.4810   23.5800 N.3   133  TYR133     -0.1241
     88  CA       102.4840  -52.6460   24.9860 C.3   133  TYR133      0.1605
     89  C        101.2830  -51.8080   25.4360 C.2   133  TYR133      0.2264
     90  O        100.6260  -52.1470   26.4260 O.2   133  TYR133     -0.2867
     91  CB       103.6850  -52.3080   25.8680 C.3   133  TYR133      0.0534
     92  CG       104.8260  -53.2330   25.6090 C.ar  133  TYR133     -0.0201
     93  CD1      106.0460  -52.7530   25.1380 C.ar  133  TYR133     -0.0009
     94  CD2      104.6890  -54.5930   25.8060 C.ar  133  TYR133     -0.0009
     95  CE1      107.0900  -53.6140   24.8730 C.ar  133  TYR133      0.0417
     96  CE2      105.7290  -55.4530   25.5540 C.ar  133  TYR133      0.0417
     97  CZ       106.9210  -54.9620   25.0760 C.ar  133  TYR133      0.1957
     98  OH       107.9390  -55.8600   24.8420 O.3   133  TYR133     -0.2866
     99  N         98.5070  -50.7440   29.6220 N.3   139  ARG139     -0.1245
    100  CA        99.7960  -51.3680   29.3430 C.3   139  ARG139      0.1563
    101  C         99.7930  -52.8570   29.7020 C.2   139  ARG139      0.2260
    102  O         99.4260  -53.2440   30.8210 O.2   139  ARG139     -0.2867
    103  CB       100.9090  -50.6300   30.0890 C.3   139  ARG139      0.0307
    104  CG       102.2850  -50.8100   29.4800 C.3   139  ARG139      0.0489
    105  CD       103.0680  -49.5080   29.5060 C.3   139  ARG139      0.2205
    106  NE       104.4680  -49.7630   29.8210 N.pl3 139  ARG139     -0.0865
    107  CZ       104.9480  -49.8310   31.0580 C.cat 139  ARG139      0.5346
    108  NH1      104.1550  -49.6460   32.1090 N.pl3 139  ARG139      0.1354
    109  NH2      106.2250  -50.0800   31.2460 N.pl3 139  ARG139      0.1354
    110  N        113.1520  -56.0010   17.1420 N.3   154  LYS154     -0.1245
    111  CA       114.0390  -55.0760   17.8470 C.3   154  LYS154      0.1561
    112  C        115.4850  -55.5600   17.7280 C.2   154  LYS154      0.2260
    113  O        116.3890  -54.7640   17.4430 O.2   154  LYS154     -0.2867
    114  CB       113.6120  -54.8900   19.3130 C.3   154  LYS154      0.0271
    115  CG       112.2900  -54.1390   19.4340 C.3   154  LYS154      0.0035
    116  CD       112.1670  -53.3270   20.7180 C.3   154  LYS154      0.0206
    117  CE       112.0590  -54.1900   21.9290 C.3   154  LYS154      0.1093
    118  NZ       111.8820  -53.3000   23.1390 N.3   154  LYS154     -0.1314
@<TRIPOS>BOND
     1   110   111    1
     2   113   112    2
     3   112   111    1
     4   111   114    1
     5   114   115    1
     6   115   116    1
     7    74    73    2
     8    78    76   ar
     9    73    72    1
    10   116   117    1
    11    77    76   ar
    12    79    80    1
    13    76    75    1
    14    39    41   ar
    15    39    38   ar
    16    41    43   ar
    17   117   118    1
    18    75    72    1
    19    72    71    1
    20    80    81    1
    21    80    83    1
    22    85    84   ar
    23    37    38    1
    24    37    34    1
    25    71    65   am
    26    38    40   ar
    27    81    82    2
    28    43    42   ar
    29    63    64    1
    30    33    34    1
    31    84    83    1
    32    84    86   ar
    33    34    35    1
    34    69    68   ar
    35    40    42   ar
    36    87    88    1
    37    65    64    1
    38    65    66    2
    39    64    67    1
    40    68    67    1
    41    68    70   ar
    42    35    36    2
    43    35    44   am
    44    98    97    1
    45    95    97   ar
    46    95    93   ar
    47     9     7   ar
    48    88    89    1
    49    88    91    1
    50    97    96   ar
    51     8     7   ar
    52    93    92   ar
    53    44    45    1
    54     7     6    1
    55    89    90    2
    56    96    94   ar
    57    92    94   ar
    58    92    91    1
    59     6     5    1
    60     5     2    1
    61    45    48    1
    62    45    46    1
    63    48    49    1
    64     1     2    1
    65    46    47    2
    66     2     3    1
    67    49    51   ar
    68    49    50   ar
    69    23    21    1
    70     3    10   am
    71     3     4    2
    72   100    99    1
    73   100   101    1
    74   100   103    1
    75   104   105    1
    76   104   103    1
    77    10    11    1
    78   105   106    1
    79    22    21    1
    80   101   102    2
    81   106   107    2
    82    21    18    1
    83    58    59    1
    84    58    57    1
    85    13    12    2
    86    18    17    1
    87    18    19    1
    88    59    60    2
    89    12    17   am
    90    12    11    1
    91    11    14    1
    92    56    57    1
    93    56    53    1
    94    20    19    2
    95   107   109    1
    96   107   108    1
    97    60    62    1
    98    60    61    1
    99    32    30   ar
   100    52    53    1
   101    14    16    1
   102    14    15    1
   103    53    54    1
   104    54    55    2
   105    30    29    1
   106    30    31   ar
   107    29    28    1
   108    25    28    1
   109    25    24    1
   110    25    26    1
   111    27    26    2
