@<TRIPOS>MOLECULE
tmp/4dqqB00.pdb
 171 165 0 0 0
SMALL
GASTEIGER

@<TRIPOS>ATOM
      1  N        126.6090  -25.0660   -8.5280 N.3   323  ARG323     -0.1245
      2  CA       125.6180  -25.4560   -9.5040 C.3   323  ARG323      0.1563
      3  C        126.0040  -26.7450  -10.2360 C.2   323  ARG323      0.2260
      4  O        127.1910  -27.0990  -10.3220 O.2   323  ARG323     -0.2867
      5  CB       125.4800  -24.3470  -10.5420 C.3   323  ARG323      0.0307
      6  CG       124.6420  -23.1660  -10.0690 C.3   323  ARG323      0.0489
      7  CD       124.3520  -22.2120  -11.2040 C.3   323  ARG323      0.2205
      8  NE       123.3840  -21.1760  -10.8440 N.pl3 323  ARG323     -0.0865
      9  CZ       122.8840  -20.3490  -11.7450 C.cat 323  ARG323      0.5346
     10  NH1      123.2700  -20.4940  -13.0050 N.pl3 323  ARG323      0.1354
     11  NH2      122.0300  -19.3900  -11.3970 N.pl3 323  ARG323      0.1354
     12  N        112.8230  -17.3930  -24.0600 N.3   337  ARG337     -0.1245
     13  CA       112.5560  -15.9540  -23.9810 C.3   337  ARG337      0.1563
     14  C        111.8180  -15.3930  -25.1710 C.2   337  ARG337      0.2260
     15  O        110.9450  -14.5360  -25.0070 O.2   337  ARG337     -0.2867
     16  CB       113.8490  -15.1910  -23.7910 C.3   337  ARG337      0.0307
     17  CG       114.3980  -15.3820  -22.4150 C.3   337  ARG337      0.0489
     18  CD       115.8060  -14.9590  -22.3840 C.3   337  ARG337      0.2205
     19  NE       116.4350  -15.3480  -21.1370 N.pl3 337  ARG337     -0.0865
     20  CZ       117.7440  -15.3560  -20.9520 C.cat 337  ARG337      0.5346
     21  NH1      118.5610  -15.0090  -21.9400 N.pl3 337  ARG337      0.1354
     22  NH2      118.2390  -15.7150  -19.7860 N.pl3 337  ARG337      0.1354
     23  N        109.2200  -24.0110  -10.0490 N.3   361  ASP361     -0.1225
     24  CA       110.3870  -23.1480   -9.9030 C.3   361  ASP361      0.1805
     25  C        110.2860  -22.2900   -8.6620 C.2   361  ASP361      0.2598
     26  O        109.1960  -21.8280   -8.2900 O.2   361  ASP361     -0.2718
     27  CB       110.5520  -22.2680  -11.1440 C.3   361  ASP361      0.1424
     28  CG       109.4510  -21.2430  -11.2920 C.2   361  ASP361      0.3668
     29  OD1      108.3250  -21.6170  -11.6620 O.co2 361  ASP361     -0.2456
     30  OD2      109.6960  -20.0380  -11.0410 O.co2 361  ASP361     -0.2456
     31  N        111.4160  -22.0670   -8.0090 N.am  362  TYR362     -0.1962
     32  CA       111.4880  -21.0850   -6.9500 C.3   362  TYR362      0.1771
     33  C        111.3580  -19.6920   -7.5570 C.2   362  TYR362      0.2620
     34  O        111.9730  -19.3750   -8.5990 O.2   362  TYR362     -0.2715
     35  CB       112.8460  -21.1630   -6.2760 C.3   362  TYR362      0.0574
     36  CG       113.0370  -22.3370   -5.3730 C.ar  362  TYR362     -0.0198
     37  CD1      113.8840  -23.3670   -5.7180 C.ar  362  TYR362     -0.0009
     38  CD2      112.3610  -22.4240   -4.1780 C.ar  362  TYR362     -0.0009
     39  CE1      114.0750  -24.4220   -4.8850 C.ar  362  TYR362      0.0417
     40  CE2      112.5370  -23.4930   -3.3420 C.ar  362  TYR362      0.0417
     41  CZ       113.4130  -24.5050   -3.7120 C.ar  362  TYR362      0.1957
     42  OH       113.5930  -25.5730   -2.8760 O.3   362  TYR362     -0.2866
     43  N        110.5710  -18.8440   -6.9100 N.am  363  SER363     -0.1936
     44  CA       110.4650  -17.4640   -7.3160 C.3   363  SER363      0.2055
     45  C        111.5290  -16.6620   -6.5710 C.2   363  SER363      0.2643
     46  O        111.4830  -16.5210   -5.3490 O.2   363  SER363     -0.2714
     47  CB       109.0870  -16.9100   -6.9580 C.3   363  SER363      0.2130
     48  OG       109.0020  -15.5360   -7.3050 O.3   363  SER363     -0.2179
     49  N        112.4960  -16.1580   -7.3130 N.am  364  GLN364     -0.1963
     50  CA       113.5060  -15.2720   -6.7590 C.3   364  GLN364      0.1733
     51  C        114.2420  -15.8380   -5.5610 C.2   364  GLN364      0.2616
     52  O        114.5230  -15.1390   -4.6130 O.2   364  GLN364     -0.2715
     53  CB       112.8620  -13.9310   -6.4670 C.3   364  GLN364      0.0408
     54  CG       112.3320  -13.3530   -7.7790 C.3   364  GLN364      0.0908
     55  CD       111.3230  -12.2850   -7.6680 C.2   364  GLN364      0.2608
     56  OE1      111.0440  -11.7750   -6.5930 O.2   364  GLN364     -0.2717
     57  NE2      110.7190  -11.9360   -8.8150 N.am  364  GLN364     -0.0878
     58  N        114.6090  -17.1170   -5.6180 N.am  365  ILE365     -0.1963
     59  CA       115.2800  -17.7000   -4.4740 C.3   365  ILE365      0.1727
     60  C        116.6170  -17.0180   -4.1520 C.2   365  ILE365      0.2616
     61  O        116.9560  -16.8390   -2.9810 O.2   365  ILE365     -0.2715
     62  CB       115.4280  -19.2620   -4.5880 C.3   365  ILE365      0.0290
     63  CG1      116.1410  -19.8230   -3.3530 C.3   365  ILE365      0.0022
     64  CG2      116.1740  -19.6560   -5.8300 C.3   365  ILE365      0.0023
     65  CD1      116.0290  -21.3940   -3.2620 C.3   365  ILE365      0.0001
     66  N        117.4190  -16.6660   -5.1510 N.am  366  ALA366     -0.1963
     67  CA       118.7460  -16.1040   -4.7980 C.3   366  ALA366      0.1728
     68  C        118.5890  -14.7720   -4.0480 C.2   366  ALA366      0.2616
     69  O        119.3060  -14.5030   -3.0800 O.2   366  ALA366     -0.2715
     70  CB       119.5890  -15.9210   -5.9980 C.3   366  ALA366      0.0334
     71  N        117.6420  -13.9360   -4.4660 N.am  367  LEU367     -0.1977
     72  CA       117.4530  -12.6520   -3.7540 C.3   367  LEU367      0.1596
     73  C        116.8350  -12.8580   -2.3750 C.2   367  LEU367      0.2287
     74  O        117.1130  -12.0910   -1.4520 O.2   367  LEU367     -0.2864
     75  CB       116.6690  -11.6430   -4.5660 C.3   367  LEU367      0.0297
     76  CG       117.5020  -11.1200   -5.7570 C.3   367  LEU367      0.0022
     77  CD1      116.6680  -10.1600   -6.5550 C.3   367  LEU367      0.0001
     78  CD2      118.8550  -10.4690   -5.3090 C.3   367  LEU367      0.0001
     79  N        111.4160   -7.8770   -9.0950 N.3   390  HIS390     -0.1241
     80  CA       111.7790   -7.3520  -10.4370 C.3   390  HIS390      0.1621
     81  C        110.7040   -6.4600  -10.9660 C.2   390  HIS390      0.2264
     82  O        111.0050   -5.4460  -11.5640 O.2   390  HIS390     -0.2867
     83  CB       112.0380   -8.4740  -11.4260 C.3   390  HIS390      0.0745
     84  CG       113.0820   -9.4140  -10.9530 C.ar  390  HIS390      0.0817
     85  ND1      114.2830   -8.9650  -10.4510 N.ar  390  HIS390     -0.2268
     86  CD2      113.1070  -10.7630  -10.8470 C.ar  390  HIS390      0.1154
     87  CE1      115.0180  -10.0000  -10.0910 C.ar  390  HIS390      0.1986
     88  NE2      114.3270  -11.1040  -10.3180 N.ar  390  HIS390     -0.2212
     89  N        110.3570   -5.6860  -17.1820 N.3   410  ARG410     -0.1245
     90  CA       110.6890   -6.5420  -16.0450 C.3   410  ARG410      0.1563
     91  C        112.0070   -7.2550  -16.3230 C.2   410  ARG410      0.2260
     92  O        112.8100   -7.4920  -15.4210 O.2   410  ARG410     -0.2867
     93  CB       109.5810   -7.5730  -15.8080 C.3   410  ARG410      0.0307
     94  CG       109.7180   -8.3660  -14.5100 C.3   410  ARG410      0.0489
     95  CD       108.7160   -9.5140  -14.4590 C.3   410  ARG410      0.2205
     96  NE       108.8130  -10.2970  -13.2350 N.pl3 410  ARG410     -0.0865
     97  CZ       109.6530  -11.3140  -13.0620 C.cat 410  ARG410      0.5346
     98  NH1      110.4800  -11.6670  -14.0430 N.pl3 410  ARG410      0.1354
     99  NH2      109.6620  -11.9810  -11.9140 N.pl3 410  ARG410      0.1354
    100  N        115.0950   -6.8570  -13.8910 N.3   414  LYS414     -0.1231
    101  CA       115.8060   -7.9990  -13.3270 C.3   414  LYS414      0.1693
    102  C        117.3280   -7.7800  -13.4050 C.2   414  LYS414      0.2591
    103  O        118.0660   -8.0810  -12.4540 O.2   414  LYS414     -0.2718
    104  CB       115.4070   -9.3030  -14.0420 C.3   414  LYS414      0.0285
    105  CG       116.1920  -10.5330  -13.5990 C.3   414  LYS414      0.0035
    106  CD       115.9190  -11.7610  -14.4840 C.3   414  LYS414      0.0206
    107  CE       114.5850  -12.3780  -14.1610 C.3   414  LYS414      0.1093
    108  NZ       114.2180  -13.5550  -14.9940 N.3   414  LYS414     -0.1314
    109  N        117.7910   -7.2480  -14.5330 N.am  415  ALA415     -0.1980
    110  CA       119.2180   -6.9640  -14.7310 C.3   415  ALA415      0.1597
    111  C        119.7730   -5.8520  -13.8160 C.2   415  ALA415      0.2287
    112  O        120.9260   -5.8990  -13.3920 O.2   415  ALA415     -0.2864
    113  CB       119.4880   -6.6380  -16.2090 C.3   415  ALA415      0.0319
    114  N        119.9850   -7.6770  -10.2040 N.3   418  PHE418     -0.1241
    115  CA       121.1530   -8.5580  -10.1120 C.3   418  PHE418      0.1605
    116  C        122.4320   -7.7730  -10.2880 C.2   418  PHE418      0.2264
    117  O        123.4130   -8.0020   -9.5780 O.2   418  PHE418     -0.2867
    118  CB       121.1110   -9.6740  -11.1670 C.3   418  PHE418      0.0534
    119  CG       119.9670  -10.6470  -10.9960 C.ar  418  PHE418     -0.0203
    120  CD1      119.4120  -10.9140   -9.7500 C.ar  418  PHE418     -0.0042
    121  CD2      119.4650  -11.3120  -12.0940 C.ar  418  PHE418     -0.0042
    122  CE1      118.3620  -11.8020   -9.6180 C.ar  418  PHE418     -0.0003
    123  CE2      118.3980  -12.2000  -11.9570 C.ar  418  PHE418     -0.0003
    124  CZ       117.8720  -12.4610  -10.7250 C.ar  418  PHE418     -0.0000
    125  N        125.4950   -7.3620   -7.1690 N.3   422  TYR422     -0.1241
    126  CA       126.7800   -8.0400   -7.3870 C.3   422  TYR422      0.1605
    127  C        127.8890   -7.1360   -7.9630 C.2   422  TYR422      0.2264
    128  O        128.8690   -7.6110   -8.4900 O.2   422  TYR422     -0.2867
    129  CB       126.5940   -9.3410   -8.2060 C.3   422  TYR422      0.0534
    130  CG       125.5690  -10.2600   -7.5740 C.ar  422  TYR422     -0.0201
    131  CD1      125.7530  -10.7520   -6.2790 C.ar  422  TYR422     -0.0009
    132  CD2      124.4050  -10.6000   -8.2360 C.ar  422  TYR422     -0.0009
    133  CE1      124.8080  -11.5630   -5.6750 C.ar  422  TYR422      0.0417
    134  CE2      123.4300  -11.4140   -7.6260 C.ar  422  TYR422      0.0417
    135  CZ       123.6540  -11.9000   -6.3480 C.ar  422  TYR422      0.1957
    136  OH       122.7070  -12.7000   -5.7320 O.3   422  TYR422     -0.2866
    137  N        129.0230  -12.6290   -4.8280 N.3   501  ASN501     -0.1240
    138  CA       128.0410  -13.4560   -5.5290 C.3   501  ASN501      0.1653
    139  C        128.0330  -14.9350   -5.1670 C.2   501  ASN501      0.2266
    140  O        126.9890  -15.5520   -5.1190 O.2   501  ASN501     -0.2867
    141  CB       128.2280  -13.2810   -7.0480 C.3   501  ASN501      0.1155
    142  CG       127.3500  -14.1970   -7.8560 C.2   501  ASN501      0.2627
    143  OD1      127.7690  -15.2590   -8.2810 O.2   501  ASN501     -0.2716
    144  ND2      126.1300  -13.7830   -8.0940 N.am  501  ASN501     -0.0877
    145  N        124.6420  -17.3760   -5.0300 N.3   505  GLN505     -0.1245
    146  CA       124.3950  -18.3850   -6.0610 C.3   505  GLN505      0.1566
    147  C        124.6210  -19.7850   -5.5160 C.2   505  GLN505      0.2260
    148  O        123.8620  -20.7360   -5.8180 O.2   505  GLN505     -0.2867
    149  CB       125.3280  -18.1290   -7.2570 C.3   505  GLN505      0.0367
    150  CG       125.0470  -19.0700   -8.4180 C.3   505  GLN505      0.0905
    151  CD       125.9360  -18.8760   -9.6320 C.2   505  GLN505      0.2608
    152  OE1      126.5550  -19.8350  -10.1090 O.2   505  GLN505     -0.2717
    153  NE2      126.0210  -17.6500  -10.1410 N.am  505  GLN505     -0.0878
    154  N        118.6120  -25.1060  -12.4550 N.3   537  HIS537     -0.1226
    155  CA       119.2010  -24.1550  -11.5060 C.3   537  HIS537      0.1752
    156  C        118.2570  -23.7110  -10.3780 C.2   537  HIS537      0.2596
    157  O        118.6260  -23.8700   -9.2210 O.2   537  HIS537     -0.2718
    158  CB       119.8370  -22.9480  -12.2060 C.3   537  HIS537      0.0759
    159  CG       120.7570  -23.3280  -13.3200 C.ar  537  HIS537      0.0818
    160  ND1      121.8320  -24.1570  -13.1170 N.ar  537  HIS537     -0.2268
    161  CD2      120.7540  -23.0070  -14.6330 C.ar  537  HIS537      0.1154
    162  CE1      122.4690  -24.3200  -14.2630 C.ar  537  HIS537      0.1986
    163  NE2      121.8410  -23.6330  -15.1980 N.ar  537  HIS537     -0.2212
    164  N        117.0750  -23.2320  -10.7100 N.am  538  ASP538     -0.1974
    165  CA       116.0720  -22.8440   -9.7210 C.3   538  ASP538      0.1709
    166  C        114.7280  -23.5060  -10.0290 C.2   538  ASP538      0.2293
    167  O        113.7020  -23.1240   -9.4770 O.2   538  ASP538     -0.2864
    168  CB       115.9090  -21.3110   -9.6290 C.3   538  ASP538      0.1436
    169  CG       115.2730  -20.6860  -10.8680 C.2   538  ASP538      0.3671
    170  OD1      115.1810  -21.3210  -11.9370 O.co2 538  ASP538     -0.2456
    171  OD2      114.8500  -19.5090  -10.7870 O.co2 538  ASP538     -0.2456
@<TRIPOS>BOND
     1    14    15    2
     2    14    13    1
     3    12    13    1
     4    13    16    1
     5    16    17    1
     6    17    18    1
     7    18    19    1
     8    21    20    1
     9    19    20    2
    10    20    22    1
    11    89    90    1
    12    91    90    1
    13    91    92    2
    14   113   110    1
    15    90    93    1
    16    93    94    1
    17   163   161   ar
    18   163   162   ar
    19   108   107    1
    20   110   109    1
    21   110   111    1
    22   161   159   ar
    23   109   102   am
    24    94    95    1
    25   106   107    1
    26   106   105    1
    27    95    96    1
    28   162   160   ar
    29    98    97    1
    30   104   105    1
    31   104   101    1
    32   100   101    1
    33   111   112    2
    34   102   101    1
    35   102   103    2
    36   159   160   ar
    37   159   158    1
    38    96    97    2
    39    97    99    1
    40    10     9    1
    41   154   155    1
    42   158   155    1
    43   121   123   ar
    44   121   119   ar
    45   123   124   ar
    46   170   169   ar
    47     9    11    1
    48     9     8    2
    49    29    28   ar
    50    82    81    2
    51   155   156    1
    52    83    84    1
    53    83    80    1
    54    28    27    1
    55    28    30   ar
    56     7     8    1
    57     7     6    1
    58   118   119    1
    59   118   115    1
    60    27    24    1
    61   119   120   ar
    62    81    80    1
    63    84    86   ar
    64    84    85   ar
    65   169   171   ar
    66   169   168    1
    67    86    88   ar
    68   124   122   ar
    69   164   156   am
    70   164   165    1
    71     5     6    1
    72     5     2    1
    73    85    87   ar
    74    80    79    1
    75   156   157    2
    76     4     3    2
    77    88    87   ar
    78   116   115    1
    79   116   117    2
    80     3     2    1
    81   114   115    1
    82   153   151   am
    83   152   151    2
    84    23    24    1
    85   166   165    1
    86   166   167    2
    87    24    25    1
    88   120   122   ar
    89   165   168    1
    90   151   150    1
    91     2     1    1
    92    57    55   am
    93    25    26    2
    94    25    31   am
    95    34    33    2
    96   128   127    2
    97   150   149    1
    98   143   142    2
    99   132   134   ar
   100   132   130   ar
   101   129   130    1
   102   129   126    1
   103   144   142   am
   104    31    32    1
   105   127   126    1
   106   142   141    1
   107    54    55    1
   108    54    53    1
   109    55    56    2
   110   134   135   ar
   111   130   131   ar
   112    33    32    1
   113    33    43   am
   114   126   125    1
   115    44    47    1
   116    44    43    1
   117    44    45    1
   118    49    50    1
   119    49    45   am
   120    48    47    1
   121   149   146    1
   122   141   138    1
   123    32    35    1
   124    50    53    1
   125    50    51    1
   126    45    46    2
   127    77    76    1
   128   135   136    1
   129   135   133   ar
   130   131   133   ar
   131    35    36    1
   132   146   147    1
   133   146   145    1
   134    70    67    1
   135    64    62    1
   136   148   147    2
   137    76    78    1
   138    76    75    1
   139    37    36   ar
   140    37    39   ar
   141    58    51   am
   142    58    59    1
   143    51    52    2
   144   138   139    1
   145   138   137    1
   146    36    38   ar
   147   139   140    2
   148    66    67    1
   149    66    60   am
   150    39    41   ar
   151    67    68    1
   152    62    59    1
   153    62    63    1
   154    75    72    1
   155    59    60    1
   156    71    68   am
   157    71    72    1
   158    38    40   ar
   159    60    61    2
   160    68    69    2
   161    72    73    1
   162    41    40   ar
   163    41    42    1
   164    63    65    1
   165    73    74    2
