@<TRIPOS>MOLECULE
tmp/4dqqA00.pdb
 90 87 0 0 0
SMALL
GASTEIGER

@<TRIPOS>ATOM
      1  N        131.5420  -42.0020   13.7500 N.3   170  ARG170     -0.1245
      2  CA       132.9230  -41.7950   13.3230 C.3   170  ARG170      0.1563
      3  C        133.0830  -40.5070   12.5170 C.2   170  ARG170      0.2260
      4  O        134.0390  -39.7650   12.7020 O.2   170  ARG170     -0.2867
      5  CB       133.4350  -43.0020   12.5440 C.3   170  ARG170      0.0307
      6  CG       134.9300  -42.9700   12.2620 C.3   170  ARG170      0.0489
      7  CD       135.3900  -44.3110   11.6790 C.3   170  ARG170      0.2205
      8  NE       134.8870  -45.4480   12.4610 N.pl3 170  ARG170     -0.0865
      9  CZ       134.2390  -46.4980   11.9580 C.cat 170  ARG170      0.5346
     10  NH1      134.0030  -46.5960   10.6500 N.pl3 170  ARG170      0.1354
     11  NH2      133.8280  -47.4660   12.7690 N.pl3 170  ARG170      0.1354
     12  N        133.2990  -37.5570   14.6840 N.3   173  GLU173     -0.1231
     13  CA       134.3300  -37.6660   15.7290 C.3   173  GLU173      0.1699
     14  C        133.6820  -37.8410   17.1130 C.2   173  GLU173      0.2592
     15  O        134.0400  -37.1740   18.1210 O.2   173  GLU173     -0.2718
     16  CB       135.3150  -36.4860   15.6870 C.3   173  GLU173      0.0402
     17  CG       136.1660  -36.5150   14.4300 C.3   173  GLU173      0.1161
     18  CD       137.1880  -35.3900   14.3760 C.2   173  GLU173      0.3649
     19  OE1      136.9880  -34.3580   15.0490 O.co2 173  GLU173     -0.2457
     20  OE2      138.1910  -35.5560   13.6490 O.co2 173  GLU173     -0.2457
     21  N        132.7190  -38.7590   17.1510 N.am  174  GLN174     -0.1966
     22  CA       132.0340  -39.1360   18.3990 C.3   174  GLN174      0.1733
     23  C        132.1250  -40.6350   18.7080 C.2   174  GLN174      0.2616
     24  O        131.5150  -41.1030   19.6630 O.2   174  GLN174     -0.2715
     25  CB       130.5590  -38.7370   18.3630 C.3   174  GLN174      0.0408
     26  CG       130.2900  -37.2470   18.3450 C.3   174  GLN174      0.0908
     27  CD       128.8060  -36.9810   18.2070 C.2   174  GLN174      0.2608
     28  OE1      128.1560  -37.5310   17.3250 O.2   174  GLN174     -0.2717
     29  NE2      128.2710  -36.1420   19.0650 N.am  174  GLN174     -0.0878
     30  N        132.8650  -41.4160   17.9170 N.am  175  ASP175     -0.1957
     31  CA       132.9220  -42.8420   18.1950 C.3   175  ASP175      0.1840
     32  C        133.6560  -43.1550   19.4970 C.2   175  ASP175      0.2622
     33  O        133.2890  -44.0970   20.1820 O.2   175  ASP175     -0.2715
     34  CB       133.5280  -43.6490   17.0330 C.3   175  ASP175      0.1450
     35  CG       134.8720  -43.1220   16.5880 C.2   175  ASP175      0.3671
     36  OD1      134.9730  -41.9190   16.2640 O.co2 175  ASP175     -0.2456
     37  OD2      135.8470  -43.9140   16.5950 O.co2 175  ASP175     -0.2456
     38  N        134.6990  -42.3920   19.8290 N.am  176  ARG176     -0.1963
     39  CA       135.4440  -42.6580   21.0510 C.3   176  ARG176      0.1729
     40  C        134.5760  -42.1900   22.2200 C.2   176  ARG176      0.2616
     41  O        134.5770  -42.8100   23.2960 O.2   176  ARG176     -0.2715
     42  CB       136.8180  -41.9610   21.0530 C.3   176  ARG176      0.0348
     43  CG       137.7410  -42.3680   19.9080 C.3   176  ARG176      0.0492
     44  CD       139.0970  -41.6670   20.0540 C.3   176  ARG176      0.2205
     45  NE       139.7130  -42.0310   21.3220 N.pl3 176  ARG176     -0.0865
     46  CZ       140.7620  -41.4280   21.8690 C.cat 176  ARG176      0.5346
     47  NH1      141.3430  -40.3990   21.2640 N.pl3 176  ARG176      0.1354
     48  NH2      141.2300  -41.8670   23.0330 N.pl3 176  ARG176      0.1354
     49  N        133.8280  -41.1030   22.0190 N.am  177  LEU177     -0.1977
     50  CA       132.8730  -40.6400   23.0390 C.3   177  LEU177      0.1596
     51  C        131.8950  -41.7880   23.4130 C.2   177  LEU177      0.2287
     52  O        131.5930  -42.0160   24.5830 O.2   177  LEU177     -0.2864
     53  CB       132.1110  -39.3930   22.5380 C.3   177  LEU177      0.0297
     54  CG       131.0790  -38.7890   23.4890 C.3   177  LEU177      0.0022
     55  CD1      131.8000  -38.3650   24.7650 C.3   177  LEU177      0.0001
     56  CD2      130.3520  -37.6370   22.7880 C.3   177  LEU177      0.0001
     57  N        133.8370  -43.5600   26.5270 N.3   181  LEU181     -0.1245
     58  CA       133.2420  -42.8030   27.6400 C.3   181  LEU181      0.1561
     59  C        131.8510  -43.2870   28.0010 C.2   181  LEU181      0.2260
     60  O        131.6600  -43.8390   29.0830 O.2   181  LEU181     -0.2867
     61  CB       133.2220  -41.2950   27.3730 C.3   181  LEU181      0.0270
     62  CG       132.8750  -40.4550   28.6130 C.3   181  LEU181      0.0019
     63  CD1      134.0820  -39.8320   29.1840 C.3   181  LEU181      0.0001
     64  CD2      131.8470  -39.3670   28.3010 C.3   181  LEU181      0.0001
     65  N        133.8550  -30.1480   24.9110 N.3   470  LEU470     -0.1231
     66  CA       135.2500  -30.5630   24.8510 C.3   470  LEU470      0.1693
     67  C        135.4770  -31.9660   24.2970 C.2   470  LEU470      0.2592
     68  O        136.4640  -32.1830   23.5690 O.2   470  LEU470     -0.2718
     69  CB       135.8860  -30.4750   26.2380 C.3   470  LEU470      0.0284
     70  CG       136.1240  -29.0510   26.7370 C.3   470  LEU470      0.0019
     71  CD1      136.7210  -29.1180   28.1310 C.3   470  LEU470      0.0001
     72  CD2      137.0370  -28.2780   25.7990 C.3   470  LEU470      0.0001
     73  N        134.6140  -32.9170   24.6790 N.am  471  LEU471     -0.1966
     74  CA       134.7640  -34.2970   24.2280 C.3   471  LEU471      0.1728
     75  C        133.8310  -34.6500   23.0680 C.2   471  LEU471      0.2616
     76  O        133.5750  -35.8210   22.8140 O.2   471  LEU471     -0.2715
     77  CB       134.6170  -35.2840   25.3680 C.3   471  LEU471      0.0311
     78  CG       135.5900  -35.1540   26.5540 C.3   471  LEU471      0.0022
     79  CD1      135.4880  -36.3730   27.4970 C.3   471  LEU471      0.0001
     80  CD2      137.0200  -34.9290   26.1080 C.3   471  LEU471      0.0001
     81  N        133.3970  -33.6220   22.3540 N.am  472  HIS472     -0.1973
     82  CA       132.7160  -33.7280   21.0620 C.3   472  HIS472      0.1656
     83  C        131.2470  -34.0760   21.1400 C.2   472  HIS472      0.2291
     84  O        130.6460  -34.4810   20.1370 O.2   472  HIS472     -0.2864
     85  CB       133.4180  -34.7160   20.1350 C.3   472  HIS472      0.0771
     86  CG       134.7680  -34.2620   19.6830 C.ar  472  HIS472      0.0820
     87  ND1      135.4990  -34.9510   18.7400 N.ar  472  HIS472     -0.2267
     88  CD2      135.5070  -33.1770   20.0170 C.ar  472  HIS472      0.1154
     89  CE1      136.6430  -34.3200   18.5270 C.ar  472  HIS472      0.1986
     90  NE2      136.6730  -33.2410   19.2890 N.ar  472  HIS472     -0.2212
@<TRIPOS>BOND
     1    10     9    1
     2     7     6    1
     3     7     8    1
     4     9     8    2
     5     9    11    1
     6     6     5    1
     7     3     4    2
     8     3     2    1
     9     5     2    1
    10     2     1    1
    11    20    18   ar
    12    18    17    1
    13    18    19   ar
    14    17    16    1
    15    12    13    1
    16    16    13    1
    17    13    14    1
    18    36    35   ar
    19    35    37   ar
    20    35    34    1
    21    34    31    1
    22    14    21   am
    23    14    15    2
    24    21    22    1
    25    28    27    2
    26    30    31    1
    27    30    23   am
    28    31    32    1
    29    27    26    1
    30    27    29   am
    31    26    25    1
    32    25    22    1
    33    22    23    1
    34    89    87   ar
    35    89    90   ar
    36    23    24    2
    37    87    86   ar
    38    90    88   ar
    39    32    38   am
    40    32    33    2
    41    86    88   ar
    42    86    85    1
    43    38    39    1
    44    43    44    1
    45    43    42    1
    46    44    45    1
    47    85    82    1
    48    84    83    2
    49    39    42    1
    50    39    40    1
    51    82    83    1
    52    82    81    1
    53    47    46    1
    54    45    46    2
    55    46    48    1
    56    49    40   am
    57    49    50    1
    58    40    41    2
    59    81    75   am
    60    53    50    1
    61    53    54    1
    62    56    54    1
    63    76    75    2
    64    50    51    1
    65    75    74    1
    66    51    52    2
    67    54    55    1
    68    68    67    2
    69    74    73    1
    70    74    77    1
    71    67    73   am
    72    67    66    1
    73    66    65    1
    74    66    69    1
    75    77    78    1
    76    72    70    1
    77    80    78    1
    78    69    70    1
    79    57    58    1
    80    78    79    1
    81    70    71    1
    82    61    58    1
    83    61    62    1
    84    58    59    1
    85    59    60    2
    86    64    62    1
    87    62    63    1
