@<TRIPOS>MOLECULE
tmp/4dqqA03.pdb
 96 89 0 0 0
SMALL
GASTEIGER

@<TRIPOS>ATOM
      1  N        124.5040  -34.0680   30.7340 N.3   319  ARG319     -0.1245
      2  CA       124.3670  -34.4130   32.1390 C.3   319  ARG319      0.1563
      3  C        123.5880  -35.7230   32.2850 C.2   319  ARG319      0.2260
      4  O        122.8450  -36.1410   31.3600 O.2   319  ARG319     -0.2867
      5  CB       123.6250  -33.3040   32.8900 C.3   319  ARG319      0.0307
      6  CG       124.4680  -32.0720   33.1870 C.3   319  ARG319      0.0489
      7  CD       123.7300  -31.2170   34.1920 C.3   319  ARG319      0.2205
      8  NE       124.5900  -30.1900   34.7650 N.pl3 319  ARG319     -0.0865
      9  CZ       124.1830  -29.3870   35.7300 C.cat 319  ARG319      0.5346
     10  NH1      122.9580  -29.5190   36.2300 N.pl3 319  ARG319      0.1354
     11  NH2      124.9900  -28.4670   36.2240 N.pl3 319  ARG319      0.1354
     12  N        120.7780  -26.4260   51.2360 N.3   333  ARG333     -0.1245
     13  CA       120.9940  -24.9910   51.4090 C.3   333  ARG333      0.1563
     14  C        120.5140  -24.4140   52.7290 C.2   333  ARG333      0.2260
     15  O        121.1570  -23.5220   53.2690 O.2   333  ARG333     -0.2867
     16  CB       120.3450  -24.2350   50.2640 C.3   333  ARG333      0.0307
     17  CG       121.0050  -24.5640   48.9650 C.3   333  ARG333      0.0489
     18  CD       120.2650  -23.9500   47.8380 C.3   333  ARG333      0.2205
     19  NE       120.8240  -24.3850   46.5700 N.pl3 333  ARG333     -0.0865
     20  CZ       120.1390  -24.4190   45.4380 C.cat 333  ARG333      0.5346
     21  NH1      118.8640  -24.0740   45.4150 N.pl3 333  ARG333      0.1354
     22  NH2      120.7280  -24.8180   44.3230 N.pl3 333  ARG333      0.1354
     23  N        133.7430  -24.5640   41.4170 N.3   360  GLN360     -0.1245
     24  CA       133.4540  -23.6930   40.2730 C.3   360  GLN360      0.1566
     25  C        133.8690  -24.2910   38.9220 C.2   360  GLN360      0.2260
     26  O        134.5360  -23.6310   38.1310 O.2   360  GLN360     -0.2867
     27  CB       134.1330  -22.3310   40.4610 C.3   360  GLN360      0.0367
     28  CG       133.8410  -21.6800   41.8050 C.3   360  GLN360      0.0905
     29  CD       132.3820  -21.3650   41.9760 C.2   360  GLN360      0.2608
     30  OE1      131.6330  -21.3130   40.9960 O.2   360  GLN360     -0.2717
     31  NE2      131.9580  -21.1550   43.2210 N.am  360  GLN360     -0.0878
     32  N        132.1520  -24.9080   36.2480 N.3   362  ALA362     -0.1245
     33  CA       131.6070  -24.1900   35.0840 C.3   362  ALA362      0.1562
     34  C        132.4150  -22.9510   34.7180 C.2   362  ALA362      0.2260
     35  O        132.6930  -22.6930   33.5500 O.2   362  ALA362     -0.2867
     36  CB       130.1300  -23.8130   35.3380 C.3   362  ALA362      0.0290
     37  N        127.5420  -16.3410   37.6630 N.3   414  PHE414     -0.1241
     38  CA       126.7180  -17.4330   37.1780 C.3   414  PHE414      0.1605
     39  C        125.6690  -16.9550   36.1830 C.2   414  PHE414      0.2264
     40  O        125.4010  -17.6150   35.1780 O.2   414  PHE414     -0.2867
     41  CB       126.0730  -18.1220   38.3590 C.3   414  PHE414      0.0534
     42  CG       127.0630  -18.7690   39.2750 C.ar  414  PHE414     -0.0203
     43  CD1      128.1130  -19.5190   38.7650 C.ar  414  PHE414     -0.0042
     44  CD2      126.9510  -18.6200   40.6460 C.ar  414  PHE414     -0.0042
     45  CE1      129.0220  -20.1110   39.6050 C.ar  414  PHE414     -0.0003
     46  CE2      127.8640  -19.2160   41.4940 C.ar  414  PHE414     -0.0003
     47  CZ       128.8980  -19.9610   40.9710 C.ar  414  PHE414     -0.0000
     48  N        126.8520  -17.2270   32.7810 N.3   417  VAL417     -0.1231
     49  CA       126.8960  -18.5860   32.2680 C.3   417  VAL417      0.1692
     50  C        125.5270  -18.9840   31.6740 C.2   417  VAL417      0.2592
     51  O        125.4320  -19.8720   30.8220 O.2   417  VAL417     -0.2718
     52  CB       127.3700  -19.5380   33.3990 C.3   417  VAL417      0.0266
     53  CG1      127.1790  -20.9770   33.0300 C.3   417  VAL417      0.0020
     54  CG2      128.8620  -19.2410   33.7380 C.3   417  VAL417      0.0020
     55  N        124.4780  -18.2810   32.0870 N.am  418  TYR418     -0.1976
     56  CA       123.1140  -18.5990   31.6500 C.3   418  TYR418      0.1639
     57  C        122.5910  -17.5900   30.6410 C.2   418  TYR418      0.2290
     58  O        121.4610  -17.7100   30.1930 O.2   418  TYR418     -0.2864
     59  CB       122.1350  -18.5830   32.8180 C.3   418  TYR418      0.0560
     60  CG       122.4090  -19.5040   33.9740 C.ar  418  TYR418     -0.0198
     61  CD1      123.1720  -20.6510   33.8240 C.ar  418  TYR418     -0.0009
     62  CD2      121.9030  -19.2250   35.2390 C.ar  418  TYR418     -0.0009
     63  CE1      123.4150  -21.4930   34.8910 C.ar  418  TYR418      0.0417
     64  CE2      122.1490  -20.0530   36.3090 C.ar  418  TYR418      0.0417
     65  CZ       122.8990  -21.1930   36.1380 C.ar  418  TYR418      0.1957
     66  OH       123.1370  -22.0080   37.2330 O.3   418  TYR418     -0.2866
     67  N        125.4590  -21.4460   26.8390 N.3   497  ASN497     -0.1240
     68  CA       125.5810  -22.2720   28.0260 C.3   497  ASN497      0.1653
     69  C        126.0020  -23.7220   27.7770 C.2   497  ASN497      0.2266
     70  O        126.7300  -24.3170   28.5670 O.2   497  ASN497     -0.2867
     71  CB       124.2630  -22.2730   28.8100 C.3   497  ASN497      0.1155
     72  CG       124.3070  -23.2120   30.0000 C.2   497  ASN497      0.2627
     73  OD1      123.8430  -24.3720   29.9420 O.2   497  ASN497     -0.2716
     74  ND2      124.8930  -22.7290   31.0870 N.am  497  ASN497     -0.0877
     75  N        129.5700  -25.0000   28.0270 N.3   500  ILE500     -0.1231
     76  CA       130.0790  -24.8920   29.3850 C.3   500  ILE500      0.1692
     77  C        129.5460  -26.0600   30.2230 C.2   500  ILE500      0.2591
     78  O        130.3070  -26.8770   30.7350 O.2   500  ILE500     -0.2718
     79  CB       129.6820  -23.5500   30.0420 C.3   500  ILE500      0.0266
     80  CG1      130.2200  -22.3730   29.2170 C.3   500  ILE500      0.0019
     81  CG2      130.1940  -23.4900   31.4650 C.3   500  ILE500      0.0020
     82  CD1      129.6770  -21.0250   29.6460 C.3   500  ILE500      0.0001
     83  N        128.2200  -26.1740   30.3160 N.am  501  GLN501     -0.1979
     84  CA       127.6000  -27.2160   31.1180 C.3   501  GLN501      0.1601
     85  C        127.9660  -28.5930   30.6200 C.2   501  GLN501      0.2287
     86  O        128.2030  -29.5240   31.3850 O.2   501  GLN501     -0.2864
     87  CB       126.0690  -27.0490   31.0760 C.3   501  GLN501      0.0394
     88  CG       125.3490  -28.0780   31.9460 C.3   501  GLN501      0.0908
     89  CD       123.8220  -27.9160   32.0060 C.2   501  GLN501      0.2608
     90  OE1      123.1140  -28.8970   31.8420 O.2   501  GLN501     -0.2717
     91  NE2      123.3320  -26.7020   32.2160 N.am  501  GLN501     -0.0878
     92  N        131.5760  -29.5620   31.2880 N.3   504  ALA504     -0.1245
     93  CA       131.6870  -29.9630   32.6930 C.3   504  ALA504      0.1562
     94  C        131.1380  -31.3710   32.9130 C.2   504  ALA504      0.2260
     95  O        131.6840  -32.1320   33.7140 O.2   504  ALA504     -0.2867
     96  CB       130.9940  -28.9450   33.6350 C.3   504  ALA504      0.0290
@<TRIPOS>BOND
     1    67    68    1
     2    69    68    1
     3    69    70    2
     4    68    71    1
     5    75    76    1
     6    71    72    1
     7    80    82    1
     8    80    79    1
     9    76    79    1
    10    76    77    1
    11    73    72    2
    12    72    74   am
    13    79    81    1
    14    58    57    2
    15    77    83   am
    16    77    78    2
    17    83    84    1
    18    85    84    1
    19    85    86    2
    20    57    56    1
    21     1     2    1
    22    51    50    2
    23    87    84    1
    24    87    88    1
    25    92    93    1
    26     4     3    2
    27    56    55    1
    28    56    59    1
    29    50    55   am
    30    50    49    1
    31    90    89    2
    32    88    89    1
    33    89    91   am
    34     2     3    1
    35     2     5    1
    36    49    48    1
    37    49    52    1
    38    93    94    1
    39    93    96    1
    40    59    60    1
    41     5     6    1
    42    94    95    2
    43    53    52    1
    44     6     7    1
    45    52    54    1
    46    35    34    2
    47    61    60   ar
    48    61    63   ar
    49    60    62   ar
    50     7     8    1
    51    34    33    1
    52     8     9    2
    53    63    65   ar
    54    33    36    1
    55    33    32    1
    56    40    39    2
    57    62    64   ar
    58     9    11    1
    59     9    10    1
    60    65    64   ar
    61    65    66    1
    62    39    38    1
    63    38    37    1
    64    38    41    1
    65    26    25    2
    66    41    42    1
    67    43    42   ar
    68    43    45   ar
    69    25    24    1
    70    42    44   ar
    71    45    47   ar
    72    24    27    1
    73    24    23    1
    74    27    28    1
    75    44    46   ar
    76    47    46   ar
    77    30    29    2
    78    28    29    1
    79    29    31   am
    80    22    20    1
    81    21    20    1
    82    20    19    2
    83    19    18    1
    84    18    17    1
    85    17    16    1
    86    16    13    1
    87    12    13    1
    88    13    14    1
    89    14    15    2
