@<TRIPOS>MOLECULE
tmp/4dqwB01.pdb
 131 130 0 0 0
SMALL
GASTEIGER

@<TRIPOS>ATOM
      1  N         -2.6800  -39.5750   51.9780 N.3    94  VAL94      -0.1245
      2  CA        -2.6940  -40.9860   51.6080 C.3    94  VAL94       0.1561
      3  C         -1.3150  -41.5920   51.9080 C.2    94  VAL94       0.2260
      4  O         -0.3220  -41.2400   51.2580 O.2    94  VAL94      -0.2867
      5  CB        -3.0610  -41.1690   50.1270 C.3    94  VAL94       0.0252
      6  CG1       -3.0030  -42.6380   49.7310 C.3    94  VAL94       0.0019
      7  CG2       -4.4430  -40.5990   49.8660 C.3    94  VAL94       0.0019
      8  N          1.3510  -44.7370   51.9230 N.3    96  ASP96      -0.1225
      9  CA         1.6300  -45.8220   50.9520 C.3    96  ASP96       0.1790
     10  C          0.8900  -45.6570   49.5980 C.2    96  ASP96       0.2440
     11  O          0.0160  -46.4610   49.2570 O.2    96  ASP96      -0.2733
     12  CB         1.3120  -47.2080   51.5500 C.3    96  ASP96       0.1423
     13  CG         2.0580  -47.4840   52.8380 C.2    96  ASP96       0.3668
     14  OD1        2.8900  -48.4180   52.8670 O.co2  96  ASP96      -0.2456
     15  OD2        1.7990  -46.7730   53.8290 O.co2  96  ASP96      -0.2456
     16  N          1.2410  -44.6200   48.8180 N.am   97  PRO97      -0.2718
     17  CA         0.6110  -44.4370   47.5020 C.3    97  PRO97       0.1535
     18  C          1.1560  -45.3680   46.4130 C.2    97  PRO97       0.2598
     19  O          2.3160  -45.7590   46.4670 O.2    97  PRO97      -0.2715
     20  CB         0.9370  -42.9810   47.1520 C.3    97  PRO97       0.0310
     21  CG         1.5870  -42.3840   48.3850 C.3    97  PRO97       0.0237
     22  CD         2.1570  -43.5160   49.1420 C.3    97  PRO97       0.0939
     23  N          0.3240  -45.7060   45.4310 N.am   98  VAL98      -0.1978
     24  CA         0.7650  -46.5060   44.2840 C.3    98  VAL98       0.1596
     25  C          1.8140  -45.7250   43.4890 C.2    98  VAL98       0.2287
     26  O          1.6190  -44.5420   43.2260 O.2    98  VAL98      -0.2864
     27  CB        -0.4240  -46.8760   43.3550 C.3    98  VAL98       0.0276
     28  CG1        0.0700  -47.3850   41.9970 C.3    98  VAL98       0.0022
     29  CG2       -1.3330  -47.9050   44.0270 C.3    98  VAL98       0.0022
     30  N         -8.5740  -43.4700   39.0420 N.3   118  PHE118     -0.1227
     31  CA        -7.3990  -42.5990   39.1870 C.3   118  PHE118      0.1736
     32  C         -6.1010  -42.8990   38.3850 C.2   118  PHE118      0.2596
     33  O         -5.6510  -44.0410   38.2890 O.2   118  PHE118     -0.2718
     34  CB        -7.1220  -42.4630   40.7120 C.3   118  PHE118      0.0547
     35  CG        -6.0640  -43.3850   41.2530 C.ar  118  PHE118     -0.0202
     36  CD1       -6.3950  -44.4760   42.0480 C.ar  118  PHE118     -0.0042
     37  CD2       -4.7270  -43.1180   41.0240 C.ar  118  PHE118     -0.0042
     38  CE1       -5.4020  -45.3030   42.5640 C.ar  118  PHE118     -0.0003
     39  CE2       -3.7430  -43.9360   41.5180 C.ar  118  PHE118     -0.0003
     40  CZ        -4.0750  -45.0310   42.2970 C.ar  118  PHE118     -0.0000
     41  N         -5.5350  -41.8350   37.8030 N.am  119  SER119     -0.1938
     42  CA        -4.1740  -41.8160   37.2520 C.3   119  SER119      0.2055
     43  C         -3.3330  -41.0230   38.2410 C.2   119  SER119      0.2644
     44  O         -3.7900  -40.7240   39.3470 O.2   119  SER119     -0.2714
     45  CB        -4.1260  -41.1250   35.8820 C.3   119  SER119      0.2130
     46  OG        -5.0460  -41.6850   34.9600 O.3   119  SER119     -0.2179
     47  N         -2.1160  -40.6570   37.8570 N.am  120  GLY120     -0.1939
     48  CA        -1.2440  -39.9540   38.7830 C.3   120  GLY120      0.2014
     49  C         -0.5450  -40.9650   39.6620 C.2   120  GLY120      0.2639
     50  O         -1.1830  -41.6940   40.4340 O.2   120  GLY120     -0.2714
     51  N          0.7720  -41.0150   39.5160 N.am  121  PHE121     -0.1960
     52  CA         1.5990  -41.9410   40.2500 C.3   121  PHE121      0.1756
     53  C          2.9510  -41.2930   40.5200 C.2   121  PHE121      0.2461
     54  O          3.6690  -40.9660   39.5790 O.2   121  PHE121     -0.2730
     55  CB         1.8260  -43.2080   39.4320 C.3   121  PHE121      0.0574
     56  CG         0.5660  -43.8570   38.9220 C.ar  121  PHE121     -0.0200
     57  CD1        0.1760  -43.6950   37.5920 C.ar  121  PHE121     -0.0042
     58  CD2       -0.2110  -44.6550   39.7570 C.ar  121  PHE121     -0.0042
     59  CE1       -0.9760  -44.3110   37.1040 C.ar  121  PHE121     -0.0003
     60  CE2       -1.3690  -45.2750   39.2790 C.ar  121  PHE121     -0.0003
     61  CZ        -1.7530  -45.1010   37.9500 C.ar  121  PHE121     -0.0000
     62  N          3.3120  -41.1040   41.7980 N.am  122  PRO122     -0.2727
     63  CA         4.6890  -40.7170   42.0680 C.3   122  PRO122      0.1402
     64  C          5.6710  -41.7090   41.4500 C.2   122  PRO122      0.2269
     65  O          5.6030  -42.8950   41.7640 O.2   122  PRO122     -0.2865
     66  CB         4.7740  -40.7800   43.6020 C.3   122  PRO122      0.0296
     67  CG         3.5570  -41.5380   44.0450 C.3   122  PRO122      0.0237
     68  CD         2.5250  -41.1980   43.0380 C.3   122  PRO122      0.0939
     69  N         -2.7110  -30.4560   40.9700 N.3   175  GLU175     -0.1231
     70  CA        -3.7170  -31.1990   41.7500 C.3   175  GLU175      0.1699
     71  C         -3.1390  -32.1250   42.8180 C.2   175  GLU175      0.2592
     72  O         -3.8290  -32.4410   43.7890 O.2   175  GLU175     -0.2718
     73  CB        -4.6270  -32.0140   40.8170 C.3   175  GLU175      0.0402
     74  CG        -5.6670  -31.1690   40.0680 C.3   175  GLU175      0.1161
     75  CD        -6.5530  -31.9810   39.1390 C.2   175  GLU175      0.3649
     76  OE1       -6.2950  -33.1940   38.9630 O.co2 175  GLU175     -0.2457
     77  OE2       -7.5060  -31.3950   38.5700 O.co2 175  GLU175     -0.2457
     78  N         -1.8870  -32.5510   42.6390 N.am  176  LYS176     -0.1980
     79  CA        -1.2370  -33.5060   43.5410 C.3   176  LYS176      0.1596
     80  C         -0.0130  -32.9350   44.2630 C.2   176  LYS176      0.2287
     81  O          0.9380  -32.5080   43.6220 O.2   176  LYS176     -0.2864
     82  CB        -0.8010  -34.7340   42.7430 C.3   176  LYS176      0.0298
     83  CG        -1.9350  -35.7000   42.4080 C.3   176  LYS176      0.0038
     84  CD        -2.5320  -35.4130   41.0620 C.3   176  LYS176      0.0206
     85  CE        -3.8060  -36.1850   40.8710 C.3   176  LYS176      0.1093
     86  NZ        -4.2860  -36.0630   39.4730 N.3   176  LYS176     -0.1314
     87  N          0.9450  -38.9790   49.7170 N.3   189  LEU189     -0.1245
     88  CA         0.2710  -38.2170   48.6520 C.3   189  LEU189      0.1561
     89  C         -0.9710  -37.5200   49.2060 C.2   189  LEU189      0.2260
     90  O         -1.7420  -38.1130   49.9690 O.2   189  LEU189     -0.2867
     91  CB        -0.1260  -39.1440   47.4930 C.3   189  LEU189      0.0270
     92  CG        -0.7970  -38.5250   46.2560 C.3   189  LEU189      0.0019
     93  CD1        0.1490  -37.5880   45.5100 C.3   189  LEU189      0.0001
     94  CD2       -1.3130  -39.6020   45.3120 C.3   189  LEU189      0.0001
     95  N         -4.0570  -34.9300   47.5520 N.3   191  THR191     -0.1203
     96  CA        -4.5830  -34.2080   46.4040 C.3   191  THR191      0.1994
     97  C         -5.4620  -33.0550   46.8790 C.2   191  THR191      0.2618
     98  O         -5.9680  -33.0670   48.0010 O.2   191  THR191     -0.2717
     99  CB        -5.3630  -35.1370   45.4560 C.3   191  THR191      0.1784
    100  OG1       -6.6650  -35.3900   45.9930 O.3   191  THR191     -0.2211
    101  CG2       -4.6170  -36.4630   45.2530 C.3   191  THR191      0.0376
    102  N         -5.6140  -32.0550   46.0170 N.am  192  PHE192     -0.1961
    103  CA        -6.4930  -30.9090   46.2730 C.3   192  PHE192      0.1771
    104  C         -7.8760  -31.4440   46.6250 C.2   192  PHE192      0.2619
    105  O         -8.4770  -31.0660   47.6440 O.2   192  PHE192     -0.2715
    106  CB        -6.5810  -30.0250   45.0210 C.3   192  PHE192      0.0574
    107  CG        -6.8080  -28.5630   45.3100 C.ar  192  PHE192     -0.0200
    108  CD1       -6.0990  -27.5930   44.6100 C.ar  192  PHE192     -0.0042
    109  CD2       -7.7240  -28.1540   46.2680 C.ar  192  PHE192     -0.0042
    110  CE1       -6.2950  -26.2560   44.8630 C.ar  192  PHE192     -0.0003
    111  CE2       -7.9240  -26.8230   46.5250 C.ar  192  PHE192     -0.0003
    112  CZ        -7.2100  -25.8670   45.8220 C.ar  192  PHE192     -0.0000
    113  N         -8.3510  -32.3430   45.7620 N.am  193  ARG193     -0.1963
    114  CA        -9.6100  -33.0740   45.9400 C.3   193  ARG193      0.1729
    115  C         -9.8810  -33.4300   47.4120 C.2   193  ARG193      0.2616
    116  O        -10.9820  -33.1900   47.9180 O.2   193  ARG193     -0.2715
    117  CB        -9.5710  -34.3430   45.0590 C.3   193  ARG193      0.0348
    118  CG       -10.7020  -35.3680   45.2540 C.3   193  ARG193      0.0492
    119  CD       -11.7800  -35.2680   44.1640 C.3   193  ARG193      0.2205
    120  NE       -11.3450  -35.8760   42.8980 N.pl3 193  ARG193     -0.0865
    121  CZ       -11.6640  -37.1030   42.4680 C.cat 193  ARG193      0.5346
    122  NH1      -11.1960  -37.5330   41.2980 N.pl3 193  ARG193      0.1354
    123  NH2      -12.4450  -37.9090   43.1810 N.pl3 193  ARG193      0.1354
    124  N         -8.8560  -33.9500   48.0890 N.am  194  ASP194     -0.1971
    125  CA        -9.0000  -34.5570   49.4170 C.3   194  ASP194      0.1709
    126  C         -9.1790  -33.6050   50.6060 C.2   194  ASP194      0.2293
    127  O         -9.7310  -34.0010   51.6290 O.2   194  ASP194     -0.2864
    128  CB        -7.7780  -35.4340   49.7240 C.3   194  ASP194      0.1436
    129  CG        -7.5590  -36.5410   48.6950 C.2   194  ASP194      0.3671
    130  OD1       -6.9080  -37.5630   49.0370 O.co2 194  ASP194     -0.2456
    131  OD2       -8.0350  -36.3780   47.5440 O.co2 194  ASP194     -0.2456
@<TRIPOS>BOND
     1    46    45    1
     2    45    42    1
     3    59    57   ar
     4    59    61   ar
     5    42    41    1
     6    42    43    1
     7    57    56   ar
     8    41    32   am
     9    47    43   am
    10    47    48    1
    11    61    60   ar
    12    43    44    2
    13    33    32    2
    14    32    31    1
    15    77    75   ar
    16    48    49    1
    17    56    55    1
    18    56    58   ar
    19    76    75   ar
    20    30    31    1
    21    75    74    1
    22    31    34    1
    23    60    58   ar
    24    55    52    1
    25    86    85    1
    26    51    49   am
    27    51    52    1
    28    54    53    2
    29    49    50    2
    30    74    73    1
    31    52    53    1
    32    53    62   am
    33    34    35    1
    34    73    70    1
    35    85    84    1
    36    69    70    1
    37    37    35   ar
    38    37    39   ar
    39    84    83    1
    40    35    36   ar
    41   122   121    1
    42    64    65    2
    43    64    63    1
    44    39    40   ar
    45    70    71    1
    46    62    63    1
    47    62    68    1
    48    28    27    1
    49    36    38   ar
    50    63    66    1
    51    40    38   ar
    52    83    82    1
    53   121   120    2
    54   121   123    1
    55    78    71   am
    56    78    79    1
    57    82    79    1
    58    71    72    2
    59   120   119    1
    60    68    67    1
    61    26    25    2
    62    27    29    1
    63    27    24    1
    64    25    24    1
    65    79    80    1
    66    66    67    1
    67    81    80    2
    68   119   118    1
    69    24    23    1
    70   108   110   ar
    71   108   107   ar
    72   110   112   ar
    73   106   107    1
    74   106   103    1
    75   117   118    1
    76   117   114    1
    77   101    99    1
    78   107   109   ar
    79    94    92    1
    80    23    18   am
    81    99   100    1
    82    99    96    1
    83    93    92    1
    84   113   114    1
    85   113   104   am
    86   112   111   ar
    87   114   115    1
    88   102   103    1
    89   102    97   am
    90    92    91    1
    91   109   111   ar
    92   103   104    1
    93    96    97    1
    94    96    95    1
    95    18    19    2
    96    18    17    1
    97   104   105    2
    98    97    98    2
    99    20    17    1
   100    20    21    1
   101   115   116    2
   102   115   124   am
   103    91    88    1
   104    17    16    1
   105   131   129   ar
   106   124   125    1
   107    21    22    1
   108    88    89    1
   109    88    87    1
   110   129   130   ar
   111   129   128    1
   112    16    22    1
   113    16    10   am
   114    89    90    2
   115    11    10    2
   116   125   128    1
   117   125   126    1
   118    10     9    1
   119     6     5    1
   120     7     5    1
   121     5     2    1
   122   126   127    2
   123     9    12    1
   124     9     8    1
   125     4     3    2
   126    12    13    1
   127     2     3    1
   128     2     1    1
   129    13    14   ar
   130    13    15   ar
