@<TRIPOS>MOLECULE
tmp/4dqwB00.pdb
 125 118 0 0 0
SMALL
GASTEIGER

@<TRIPOS>ATOM
      1  N          6.8680  -37.3960   38.6070 N.3   132  ILE132     -0.1245
      2  CA         5.4320  -37.6990   38.7190 C.3   132  ILE132      0.1561
      3  C          4.7740  -37.8730   37.3160 C.2   132  ILE132      0.2260
      4  O          5.1580  -37.1930   36.3530 O.2   132  ILE132     -0.2867
      5  CB         4.7030  -36.6170   39.5630 C.3   132  ILE132      0.0252
      6  CG1        3.3330  -37.1230   40.0330 C.3   132  ILE132      0.0019
      7  CG2        4.5810  -35.3150   38.7850 C.3   132  ILE132      0.0019
      8  CD1        2.6030  -36.1680   40.9550 C.3   132  ILE132      0.0001
      9  N          0.8950  -38.1400   35.5330 N.3   134  THR134     -0.1203
     10  CA        -0.5420  -37.9940   35.6730 C.3   134  THR134      0.1994
     11  C         -1.2210  -38.0650   34.3090 C.2   134  THR134      0.2618
     12  O         -0.5590  -38.2000   33.2750 O.2   134  THR134     -0.2717
     13  CB        -0.8600  -36.6640   36.3510 C.3   134  THR134      0.1784
     14  OG1       -0.0190  -35.6540   35.7840 O.3   134  THR134     -0.2211
     15  CG2       -0.6030  -36.7510   37.8550 C.3   134  THR134      0.0376
     16  N         -2.5480  -37.9850   34.3260 N.am  135  GLY135     -0.1942
     17  CA        -3.3490  -38.0460   33.1170 C.3   135  GLY135      0.2014
     18  C         -2.9200  -37.1490   31.9660 C.2   135  GLY135      0.2639
     19  O         -3.0430  -37.5340   30.7980 O.2   135  GLY135     -0.2714
     20  N         -2.4230  -35.9540   32.2750 N.am  136  ARG136     -0.1963
     21  CA        -2.0640  -34.9970   31.2170 C.3   136  ARG136      0.1729
     22  C         -0.8120  -35.4380   30.4520 C.2   136  ARG136      0.2616
     23  O         -0.6450  -35.1280   29.2640 O.2   136  ARG136     -0.2715
     24  CB        -1.8850  -33.5860   31.7870 C.3   136  ARG136      0.0348
     25  CG        -3.1330  -33.0490   32.4710 C.3   136  ARG136      0.0492
     26  CD        -3.2840  -31.5480   32.3250 C.3   136  ARG136      0.2205
     27  NE        -4.3420  -31.0350   33.1900 N.pl3 136  ARG136     -0.0865
     28  CZ        -4.8660  -29.8150   33.1030 C.cat 136  ARG136      0.5346
     29  NH1       -4.4420  -28.9610   32.1810 N.pl3 136  ARG136      0.1354
     30  NH2       -5.8280  -29.4500   33.9410 N.pl3 136  ARG136      0.1354
     31  N          0.0440  -36.1920   31.1350 N.am  137  ASP137     -0.1971
     32  CA         1.2840  -36.6940   30.5470 C.3   137  ASP137      0.1709
     33  C          1.0360  -37.8370   29.5640 C.2   137  ASP137      0.2293
     34  O          1.8930  -38.1530   28.7410 O.2   137  ASP137     -0.2864
     35  CB         2.2140  -37.1670   31.6620 C.3   137  ASP137      0.1436
     36  CG         2.3790  -36.1320   32.7620 C.2   137  ASP137      0.3671
     37  OD1        2.7330  -36.5390   33.8830 O.co2 137  ASP137     -0.2456
     38  OD2        2.1350  -34.9220   32.5150 O.co2 137  ASP137     -0.2456
     39  N         -1.7430  -38.3230   27.2870 N.3   139  ARG139     -0.1245
     40  CA        -2.3870  -38.0590   25.9880 C.3   139  ARG139      0.1563
     41  C         -1.3790  -37.9420   24.8270 C.2   139  ARG139      0.2260
     42  O         -1.3550  -36.9370   24.1190 O.2   139  ARG139     -0.2867
     43  CB        -3.2270  -36.7790   26.0720 C.3   139  ARG139      0.0307
     44  CG        -4.5120  -36.9100   26.8830 C.3   139  ARG139      0.0489
     45  CD        -5.3400  -35.6680   26.8500 C.3   139  ARG139      0.2205
     46  NE        -4.7160  -34.3990   27.2560 N.pl3 139  ARG139     -0.0865
     47  CZ        -4.8290  -33.8510   28.4460 C.cat 139  ARG139      0.5346
     48  NH1       -5.5450  -34.4550   29.4240 N.pl3 139  ARG139      0.1354
     49  NH2       -4.1980  -32.7380   28.7340 N.pl3 139  ARG139      0.1354
     50  N          6.7980  -35.8870   34.5590 N.3   148  THR148     -0.1218
     51  CA         7.2730  -34.5980   35.0530 C.3   148  THR148      0.1862
     52  C          8.4060  -34.8450   36.0430 C.2   148  THR148      0.2287
     53  O          8.1820  -35.4490   37.0920 O.2   148  THR148     -0.2866
     54  CB         6.1510  -33.7870   35.7050 C.3   148  THR148      0.1770
     55  OG1        5.3100  -33.2500   34.6760 O.3   148  THR148     -0.2211
     56  CG2        6.7200  -32.6430   36.5340 C.3   148  THR148      0.0375
     57  N         11.6590  -30.1910   38.6240 N.3   152  LYS152     -0.1231
     58  CA        10.4110  -29.4280   38.4120 C.3   152  LYS152      0.1693
     59  C          9.2610  -29.8210   39.3640 C.2   152  LYS152      0.2592
     60  O          8.1390  -29.3630   39.1740 O.2   152  LYS152     -0.2718
     61  CB         9.8940  -29.5970   36.9670 C.3   152  LYS152      0.0285
     62  CG        10.9200  -29.3960   35.8510 C.3   152  LYS152      0.0035
     63  CD        11.2880  -27.9220   35.6550 C.3   152  LYS152      0.0206
     64  CE        12.6410  -27.7460   34.9430 C.3   152  LYS152      0.1093
     65  NZ        12.5060  -27.5080   33.4740 N.3   152  LYS152     -0.1314
     66  N          9.5220  -30.6500   40.3740 N.am  153  LEU153     -0.1966
     67  CA         8.4560  -31.1650   41.2420 C.3   153  LEU153      0.1728
     68  C          8.0780  -30.2170   42.3690 C.2   153  LEU153      0.2616
     69  O          8.9390  -29.5350   42.9360 O.2   153  LEU153     -0.2715
     70  CB         8.8540  -32.5060   41.8570 C.3   153  LEU153      0.0311
     71  CG         8.4840  -33.7310   41.0270 C.3   153  LEU153      0.0022
     72  CD1        9.3730  -33.8210   39.8260 C.3   153  LEU153      0.0001
     73  CD2        8.6130  -34.9790   41.8780 C.3   153  LEU153      0.0001
     74  N          6.7950  -30.2080   42.7220 N.am  154  VAL154     -0.1977
     75  CA         6.3340  -29.3890   43.8340 C.3   154  VAL154      0.1596
     76  C          6.0680  -30.2840   45.0210 C.2   154  VAL154      0.2287
     77  O          5.0870  -31.0190   45.0590 O.2   154  VAL154     -0.2864
     78  CB         5.0980  -28.5520   43.4820 C.3   154  VAL154      0.0276
     79  CG1        4.6690  -27.7070   44.6780 C.3   154  VAL154      0.0022
     80  CG2        5.4150  -27.6600   42.3200 C.3   154  VAL154      0.0022
     81  N         -0.8930  -24.3130   40.2250 N.3   173  ARG173     -0.1231
     82  CA        -2.0020  -24.7230   39.3450 C.3   173  ARG173      0.1694
     83  C         -2.0100  -26.2330   39.0830 C.2   173  ARG173      0.2592
     84  O         -2.3420  -26.6700   37.9740 O.2   173  ARG173     -0.2718
     85  CB        -1.9600  -23.9220   38.0370 C.3   173  ARG173      0.0321
     86  CG        -3.0210  -22.8220   37.9070 C.3   173  ARG173      0.0489
     87  CD        -3.1830  -21.9500   39.1360 C.3   173  ARG173      0.2205
     88  NE        -3.8190  -20.6520   38.8560 N.pl3 173  ARG173     -0.0865
     89  CZ        -3.8480  -19.6280   39.7120 C.cat 173  ARG173      0.5346
     90  NH1       -3.3000  -19.7440   40.9110 N.pl3 173  ARG173      0.1354
     91  NH2       -4.4190  -18.4790   39.3780 N.pl3 173  ARG173      0.1354
     92  N         -1.6770  -27.0000   40.1360 N.am  174  ILE174     -0.1966
     93  CA        -1.5710  -28.4760   40.1030 C.3   174  ILE174      0.1727
     94  C         -2.4950  -29.1480   41.1350 C.2   174  ILE174      0.2616
     95  O         -2.9750  -28.4970   42.0680 O.2   174  ILE174     -0.2715
     96  CB        -0.1130  -28.9830   40.3570 C.3   174  ILE174      0.0290
     97  CG1        0.4530  -28.4350   41.6730 C.3   174  ILE174      0.0022
     98  CG2        0.8080  -28.6340   39.1890 C.3   174  ILE174      0.0023
     99  CD1        1.5270  -29.3420   42.2710 C.3   174  ILE174      0.0001
    100  N         -2.7110  -30.4560   40.9700 N.am  175  GLU175     -0.1963
    101  CA        -3.7170  -31.1990   41.7500 C.3   175  GLU175      0.1733
    102  C         -3.1390  -32.1250   42.8180 C.2   175  GLU175      0.2616
    103  O         -3.8290  -32.4410   43.7890 O.2   175  GLU175     -0.2715
    104  CB        -4.6270  -32.0140   40.8170 C.3   175  GLU175      0.0429
    105  CG        -5.6670  -31.1690   40.0680 C.3   175  GLU175      0.1163
    106  CD        -6.5530  -31.9810   39.1390 C.2   175  GLU175      0.3649
    107  OE1       -6.2950  -33.1940   38.9630 O.co2 175  GLU175     -0.2457
    108  OE2       -7.5060  -31.3950   38.5700 O.co2 175  GLU175     -0.2457
    109  N         -1.8870  -32.5510   42.6390 N.am  176  LYS176     -0.1977
    110  CA        -1.2370  -33.5060   43.5410 C.3   176  LYS176      0.1596
    111  C         -0.0130  -32.9350   44.2630 C.2   176  LYS176      0.2287
    112  O          0.9380  -32.5080   43.6220 O.2   176  LYS176     -0.2864
    113  CB        -0.8010  -34.7340   42.7430 C.3   176  LYS176      0.0298
    114  CG        -1.9350  -35.7000   42.4080 C.3   176  LYS176      0.0038
    115  CD        -2.5320  -35.4130   41.0620 C.3   176  LYS176      0.0206
    116  CE        -3.8060  -36.1850   40.8710 C.3   176  LYS176      0.1093
    117  NZ        -4.2860  -36.0630   39.4730 N.3   176  LYS176     -0.1314
    118  N          3.1570  -33.9530   46.5840 N.3   178  LEU178     -0.1245
    119  CA         4.0130  -35.0290   47.0650 C.3   178  LEU178      0.1561
    120  C          4.5850  -34.6200   48.4230 C.2   178  LEU178      0.2260
    121  O          5.2930  -33.6050   48.5280 O.2   178  LEU178     -0.2867
    122  CB         5.1490  -35.2880   46.0690 C.3   178  LEU178      0.0270
    123  CG         4.7600  -35.7680   44.6630 C.3   178  LEU178      0.0019
    124  CD1        5.7210  -35.2460   43.6000 C.3   178  LEU178      0.0001
    125  CD2        4.6900  -37.2840   44.6160 C.3   178  LEU178      0.0001
@<TRIPOS>BOND
     1    42    41    2
     2    41    40    1
     3    40    43    1
     4    40    39    1
     5    43    44    1
     6    45    44    1
     7    45    46    1
     8    46    47    2
     9    47    49    1
    10    47    48    1
    11    34    33    2
    12    23    22    2
    13    33    32    1
    14    22    31   am
    15    22    21    1
    16    32    31    1
    17    32    35    1
    18    19    18    2
    19    21    24    1
    20    21    20    1
    21    35    36    1
    22    24    25    1
    23    18    20   am
    24    18    17    1
    25    29    28    1
    26    26    25    1
    27    26    27    1
    28    38    36   ar
    29    36    37   ar
    30    28    27    2
    31    28    30    1
    32    17    16    1
    33    12    11    2
    34    65    64    1
    35    11    16   am
    36    11    10    1
    37    50    51    1
    38    55    54    1
    39    64    63    1
    40    51    54    1
    41    51    52    1
    42     9    10    1
    43    63    62    1
    44    10    13    1
    45    54    56    1
    46    14    13    1
    47    62    61    1
    48    52    53    2
    49    13    15    1
    50     4     3    2
    51    61    58    1
    52     3     2    1
    53    86    85    1
    54    86    87    1
    55    84    83    2
    56    85    82    1
    57    58    57    1
    58    58    59    1
    59   108   106   ar
    60     1     2    1
    61     2     5    1
    62     7     5    1
    63    88    87    1
    64    88    89    2
    65   107   106   ar
    66    83    82    1
    67    83    92   am
    68   106   105    1
    69    60    59    2
    70    98    96    1
    71    82    81    1
    72    59    66   am
    73    91    89    1
    74   117   116    1
    75     5     6    1
    76    89    90    1
    77    72    71    1
    78     6     8    1
    79   105   104    1
    80    93    92    1
    81    93    96    1
    82    93    94    1
    83    96    97    1
    84    66    67    1
    85   104   101    1
    86   116   115    1
    87   100    94   am
    88   100   101    1
    89    71    70    1
    90    71    73    1
    91   115   114    1
    92    94    95    2
    93    67    70    1
    94    67    68    1
    95    97    99    1
    96   101   102    1
    97    80    78    1
    98    68    74   am
    99    68    69    2
   100   114   113    1
   101   109   102   am
   102   109   110    1
   103    74    75    1
   104   113   110    1
   105   102   103    2
   106    78    75    1
   107    78    79    1
   108   110   111    1
   109   124   123    1
   110   112   111    2
   111    75    76    1
   112   125   123    1
   113   123   122    1
   114    76    77    2
   115   122   119    1
   116   118   119    1
   117   119   120    1
   118   120   121    2
