@<TRIPOS>MOLECULE
tmp/4dr9D00.pdb
 140 135 0 0 0
SMALL
GASTEIGER

@<TRIPOS>ATOM
      1  N         34.1190   69.8300   32.2570 N.3    53  ALA53      -0.1231
      2  CA        33.1250   70.3070   31.2910 C.3    53  ALA53       0.1694
      3  C         32.0440   71.1010   31.9680 C.2    53  ALA53       0.2592
      4  O         30.9880   71.2910   31.3890 O.2    53  ALA53      -0.2718
      5  CB        32.5080   69.1490   30.5230 C.3    53  ALA53       0.0304
      6  N         32.2870   71.5150   33.2080 N.am   54  ASP54      -0.1960
      7  CA        31.3900   72.3960   33.9620 C.3    54  ASP54       0.1840
      8  C         30.0070   71.7690   34.2210 C.2    54  ASP54       0.2623
      9  O         28.9910   72.4340   34.1300 O.2    54  ASP54      -0.2715
     10  CB        31.2720   73.7830   33.2970 C.3    54  ASP54       0.1450
     11  CG        32.6130   74.5750   33.2940 C.2    54  ASP54       0.3671
     12  OD1       33.3160   74.6560   34.3220 O.co2  54  ASP54      -0.2456
     13  OD2       32.9910   75.1220   32.2380 O.co2  54  ASP54      -0.2456
     14  N         29.9790   70.4780   34.5470 N.am   55  GLY55      -0.1940
     15  CA        28.7190   69.8160   34.8470 C.3    55  GLY55       0.2014
     16  C         28.5360   69.6590   36.3330 C.2    55  GLY55       0.2639
     17  O         29.5300   69.7180   37.1090 O.2    55  GLY55      -0.2714
     18  N         27.2760   69.4410   36.7320 N.am   56  ILE56      -0.1963
     19  CA        26.9410   69.0900   38.1330 C.3    56  ILE56       0.1727
     20  C         26.5700   67.6130   38.2410 C.2    56  ILE56       0.2616
     21  O         26.2420   67.1520   39.3010 O.2    56  ILE56      -0.2715
     22  CB        25.8160   69.9800   38.7440 C.3    56  ILE56       0.0290
     23  CG1       24.5020   69.8110   37.9740 C.3    56  ILE56       0.0022
     24  CG2       26.2380   71.4520   38.7110 C.3    56  ILE56       0.0023
     25  CD1       23.3350   70.5730   38.5740 C.3    56  ILE56       0.0001
     26  N         26.6130   66.8810   37.1230 N.am   57  GLY57      -0.1955
     27  CA        26.3410   65.4390   37.1250 C.3    57  GLY57       0.1869
     28  C         26.9050   64.8060   35.8620 C.2    57  GLY57       0.2309
     29  O         27.1190   65.4960   34.8570 O.2    57  GLY57      -0.2863
     30  N         27.4320   58.5850   28.9390 N.3    62  GLN62      -0.1245
     31  CA        27.8970   59.8470   28.3200 C.3    62  GLN62       0.1566
     32  C         29.3800   59.8050   27.9960 C.2    62  GLN62       0.2260
     33  O         29.8530   60.5500   27.1050 O.2    62  GLN62      -0.2867
     34  CB        27.6820   61.0550   29.2340 C.3    62  GLN62       0.0367
     35  CG        26.2410   61.4230   29.4360 C.3    62  GLN62       0.0905
     36  CD        26.0980   62.6360   30.2970 C.2    62  GLN62       0.2608
     37  OE1       26.0450   62.5490   31.5470 O.2    62  GLN62      -0.2717
     38  NE2       26.0430   63.8010   29.6540 N.am   62  GLN62      -0.0878
     39  N         14.6320   75.1380   32.7540 N.3   102  GLN102     -0.1231
     40  CA        15.6280   75.0410   31.6960 C.3   102  GLN102      0.1698
     41  C         16.6990   74.0020   32.0650 C.2   102  GLN102      0.2592
     42  O         17.1930   73.9710   33.1950 O.2   102  GLN102     -0.2718
     43  CB        16.2240   76.4360   31.4370 C.3   102  GLN102      0.0381
     44  CG        17.1270   76.5260   30.2180 C.3   102  GLN102      0.0905
     45  CD        16.5320   77.3270   29.0680 C.2   102  GLN102      0.2608
     46  OE1       15.4020   77.0930   28.6150 O.2   102  GLN102     -0.2717
     47  NE2       17.2980   78.2860   28.5920 N.am  102  GLN102     -0.0878
     48  N         17.0270   73.1260   31.1150 N.am  103  GLU103     -0.1966
     49  CA        18.1200   72.2040   31.2700 C.3   103  GLU103      0.1733
     50  C         19.0820   72.2760   30.0950 C.2   103  GLU103      0.2617
     51  O         18.6750   72.6010   28.9920 O.2   103  GLU103     -0.2715
     52  CB        17.6200   70.7650   31.3540 C.3   103  GLU103      0.0429
     53  CG        16.8900   70.4950   32.6420 C.3   103  GLU103      0.1163
     54  CD        16.4360   69.0640   32.7790 C.2   103  GLU103      0.3649
     55  OE1       17.1180   68.1540   32.2440 O.co2 103  GLU103     -0.2457
     56  OE2       15.3840   68.8560   33.4280 O.co2 103  GLU103     -0.2457
     57  N         20.3480   71.9740   30.3740 N.am  104  GLY104     -0.1940
     58  CA        21.3030   71.5880   29.3460 C.3   104  GLY104      0.2014
     59  C         21.9500   70.2640   29.7320 C.2   104  GLY104      0.2639
     60  O         21.6920   69.7540   30.8250 O.2   104  GLY104     -0.2714
     61  N         22.8330   69.7660   28.8640 N.am  105  CYS105     -0.1953
     62  CA        23.4600   68.4720   29.0030 C.3   105  CYS105      0.1843
     63  C         24.8700   68.5140   28.4190 C.2   105  CYS105      0.2625
     64  O         25.1040   69.1310   27.3760 O.2   105  CYS105     -0.2714
     65  CB        22.5840   67.4310   28.3170 C.3   105  CYS105      0.0997
     66  SG        23.2190   65.7600   28.2310 S.3   105  CYS105     -0.0797
     67  N         25.8100   67.8910   29.1070 N.am  106  LEU106     -0.1977
     68  CA        27.2030   67.7950   28.6110 C.3   106  LEU106      0.1596
     69  C         27.2860   67.0740   27.2700 C.2   106  LEU106      0.2287
     70  O         28.1970   67.3270   26.4960 O.2   106  LEU106     -0.2864
     71  CB        28.1100   67.1090   29.6380 C.3   106  LEU106      0.0297
     72  CG        28.2710   67.8410   30.9700 C.3   106  LEU106      0.0022
     73  CD1       29.2090   67.0320   31.8760 C.3   106  LEU106      0.0001
     74  CD2       28.7810   69.2530   30.7140 C.3   106  LEU106      0.0001
     75  N         19.8520   74.6540   25.5220 N.3   112  TYR112     -0.1241
     76  CA        19.0730   74.8370   26.7600 C.3   112  TYR112      0.1605
     77  C         17.5970   74.9400   26.4150 C.2   112  TYR112      0.2264
     78  O         17.2010   75.8170   25.6710 O.2   112  TYR112     -0.2867
     79  CB        19.5010   76.1330   27.4960 C.3   112  TYR112      0.0534
     80  CG        20.9290   76.0870   27.8130 C.ar  112  TYR112     -0.0201
     81  CD1       21.3670   75.3790   28.9130 C.ar  112  TYR112     -0.0009
     82  CD2       21.8720   76.6680   26.9730 C.ar  112  TYR112     -0.0009
     83  CE1       22.7130   75.2470   29.1900 C.ar  112  TYR112      0.0417
     84  CE2       23.2170   76.5480   27.2520 C.ar  112  TYR112      0.0417
     85  CZ        23.6210   75.8290   28.3600 C.ar  112  TYR112      0.1957
     86  OH        24.9590   75.6900   28.6650 O.3   112  TYR112     -0.2866
     87  N         16.8930   71.2690   42.5230 N.3   140  LEU140     -0.1245
     88  CA        17.9110   70.9770   41.5050 C.3   140  LEU140      0.1561
     89  C         18.4340   69.5390   41.6030 C.2   140  LEU140      0.2260
     90  O         18.6470   68.8850   40.5840 O.2   140  LEU140     -0.2867
     91  CB        19.0800   71.9750   41.5660 C.3   140  LEU140      0.0270
     92  CG        20.1860   71.8500   40.5000 C.3   140  LEU140      0.0019
     93  CD1       19.5570   71.8660   39.1350 C.3   140  LEU140      0.0001
     94  CD2       21.1510   73.0400   40.6560 C.3   140  LEU140      0.0001
     95  N         16.0170   67.1440   39.9960 N.3   143  ARG143     -0.1231
     96  CA        16.0430   67.3340   38.5430 C.3   143  ARG143      0.1694
     97  C         17.3010   66.6570   37.9720 C.2   143  ARG143      0.2592
     98  O         17.2450   65.9470   36.9600 O.2   143  ARG143     -0.2718
     99  CB        15.9960   68.8440   38.2110 C.3   143  ARG143      0.0321
    100  CG        16.0070   69.2150   36.7350 C.3   143  ARG143      0.0489
    101  CD        15.6130   70.6820   36.5380 C.3   143  ARG143      0.2205
    102  NE        14.1840   70.8830   36.7990 N.pl3 143  ARG143     -0.0865
    103  CZ        13.1850   70.5730   35.9470 C.cat 143  ARG143      0.5346
    104  NH1       13.4080   70.1190   34.7210 N.pl3 143  ARG143      0.1354
    105  NH2       11.9310   70.8030   36.3090 N.pl3 143  ARG143      0.1354
    106  N         18.4320   66.8850   38.6390 N.am  144  CYS144     -0.1970
    107  CA        19.7090   66.3370   38.1920 C.3   144  CYS144      0.1712
    108  C         19.6450   64.8150   38.2430 C.2   144  CYS144      0.2296
    109  O         20.0350   64.1570   37.3140 O.2   144  CYS144     -0.2864
    110  CB        20.8700   66.8690   39.0340 C.3   144  CYS144      0.0983
    111  SG        22.4510   66.1540   38.5280 S.3   144  CYS144     -0.0798
    112  N         17.4320   63.5560   35.3330 N.3   147  HIS147     -0.1226
    113  CA        18.2080   63.7330   34.0920 C.3   147  HIS147      0.1752
    114  C         19.2340   62.6290   33.9400 C.2   147  HIS147      0.2595
    115  O         19.3610   62.0520   32.8620 O.2   147  HIS147     -0.2718
    116  CB        18.8820   65.1040   34.1510 C.3   147  HIS147      0.0759
    117  CG        19.7160   65.4760   32.9450 C.ar  147  HIS147      0.0818
    118  ND1       19.3870   66.5000   32.1270 N.ar  147  HIS147     -0.2268
    119  CD2       20.9530   65.0380   32.5380 C.ar  147  HIS147      0.1154
    120  CE1       20.3430   66.6480   31.2050 C.ar  147  HIS147      0.1986
    121  NE2       21.3160   65.7640   31.4690 N.ar  147  HIS147     -0.2212
    122  N         19.9840   62.3210   35.0200 N.am  148  GLU148     -0.1979
    123  CA        21.0260   61.2800   34.9610 C.3   148  GLU148      0.1602
    124  C         20.4110   59.8800   34.8830 C.2   148  GLU148      0.2287
    125  O         20.9230   59.0300   34.1570 O.2   148  GLU148     -0.2864
    126  CB        21.9690   61.3030   36.1580 C.3   148  GLU148      0.0415
    127  CG        22.6750   62.5830   36.4720 C.3   148  GLU148      0.1163
    128  CD        23.4700   63.1790   35.3440 C.2   148  GLU148      0.3649
    129  OE1       23.8250   62.5000   34.3400 O.co2 148  GLU148     -0.2457
    130  OE2       23.7640   64.3890   35.4690 O.co2 148  GLU148     -0.2457
    131  N         19.6120   59.2050   31.3040 N.3   151  HIS151     -0.1241
    132  CA        20.8210   58.7390   30.6000 C.3   151  HIS151      0.1621
    133  C         21.0470   57.2250   30.7450 C.2   151  HIS151      0.2264
    134  O         21.4370   56.5670   29.7670 O.2   151  HIS151     -0.2867
    135  CB        22.0910   59.4910   31.0510 C.3   151  HIS151      0.0745
    136  CG        22.2770   60.8510   30.4310 C.ar  151  HIS151      0.0817
    137  ND1       22.4750   61.0340   29.1100 N.ar  151  HIS151     -0.2268
    138  CD2       22.4180   62.1010   31.0210 C.ar  151  HIS151      0.1154
    139  CE1       22.6950   62.3620   28.8760 C.ar  151  HIS151      0.1986
    140  NE2       22.6350   63.0060   30.0340 N.ar  151  HIS151     -0.2212
@<TRIPOS>BOND
     1    75    76    1
     2    78    77    2
     3    77    76    1
     4    70    69    2
     5    76    79    1
     6    82    84   ar
     7    82    80   ar
     8    33    32    2
     9    84    85   ar
    10    69    68    1
    11    64    63    2
    12    79    80    1
    13    80    81   ar
    14    32    31    1
    15    66    65    1
    16    65    62    1
    17    31    30    1
    18    31    34    1
    19    85    86    1
    20    85    83   ar
    21    63    62    1
    22    63    67   am
    23    47    45   am
    24    68    67    1
    25    68    71    1
    26    46    45    2
    27    61    62    1
    28    61    59   am
    29   139   137   ar
    30   139   140   ar
    31    81    83   ar
    32    51    50    2
    33    45    44    1
    34   137   136   ar
    35    34    35    1
    36    58    59    1
    37    58    57    1
    38    35    36    1
    39    71    72    1
    40    38    36   am
    41    59    60    2
    42   134   133    2
    43   140   138   ar
    44    50    57   am
    45    50    49    1
    46    44    43    1
    47    36    37    2
    48   136   138   ar
    49   136   135    1
    50     5     2    1
    51   132   133    1
    52   132   135    1
    53   132   131    1
    54    74    72    1
    55    72    73    1
    56    48    49    1
    57    48    41   am
    58   120   121   ar
    59   120   118   ar
    60    49    52    1
    61     2     3    1
    62     2     1    1
    63    52    53    1
    64     4     3    2
    65    43    40    1
    66   121   119   ar
    67    40    41    1
    68    40    39    1
    69     3     6   am
    70    41    42    2
    71   118   117   ar
    72    13    11   ar
    73    55    54   ar
    74   119   117   ar
    75    53    54    1
    76    54    56   ar
    77   115   114    2
    78   117   116    1
    79     6     7    1
    80    11    10    1
    81    11    12   ar
    82    10     7    1
    83   114   113    1
    84   114   122   am
    85     7     8    1
    86   113   116    1
    87   113   112    1
    88     9     8    2
    89   125   124    2
    90     8    14   am
    91   129   128   ar
    92    14    15    1
    93   104   103    1
    94    15    16    1
    95    29    28    2
    96   124   123    1
    97   123   122    1
    98   123   126    1
    99   128   130   ar
   100   128   127    1
   101    28    27    1
   102   103   105    1
   103   103   102    2
   104   126   127    1
   105    16    18   am
   106    16    17    2
   107   101   100    1
   108   101   102    1
   109    18    19    1
   110   100    99    1
   111    98    97    2
   112    26    27    1
   113    26    20   am
   114   109   108    2
   115    97    96    1
   116    97   106   am
   117    23    25    1
   118    23    22    1
   119    19    20    1
   120    19    22    1
   121   107   108    1
   122   107   106    1
   123   107   110    1
   124    99    96    1
   125    20    21    2
   126   111   110    1
   127    96    95    1
   128    24    22    1
   129    93    92    1
   130    92    94    1
   131    92    91    1
   132    90    89    2
   133    88    91    1
   134    88    89    1
   135    88    87    1
