@<TRIPOS>MOLECULE
tmp/4drhA00.pdb
 158 157 0 0 0
SMALL
GASTEIGER

@<TRIPOS>ATOM
      1  N        -15.8110   17.3150    4.8910 N.3    49  TYR49      -0.1241
      2  CA       -16.0850   16.6800    3.6140 C.3    49  TYR49       0.1605
      3  C        -15.6620   15.2130    3.5690 C.2    49  TYR49       0.2264
      4  O        -14.8430   14.7320    4.3660 O.2    49  TYR49      -0.2867
      5  CB       -15.4170   17.4510    2.4630 C.3    49  TYR49       0.0534
      6  CG       -13.9300   17.1750    2.3550 C.ar   49  TYR49      -0.0201
      7  CD1      -13.4350   16.2130    1.4670 C.ar   49  TYR49      -0.0009
      8  CD2      -13.0140   17.8510    3.1650 C.ar   49  TYR49      -0.0009
      9  CE1      -12.0750   15.9400    1.3870 C.ar   49  TYR49       0.0417
     10  CE2      -11.6570   17.5870    3.0790 C.ar   49  TYR49       0.0417
     11  CZ       -11.1920   16.6430    2.1890 C.ar   49  TYR49       0.1957
     12  OH        -9.8230   16.3960    2.1340 O.3    49  TYR49      -0.2866
     13  N        -12.0580    7.8350   -1.5840 N.3    59  PHE59      -0.1227
     14  CA       -10.6720    8.2890   -1.6510 C.3    59  PHE59       0.1736
     15  C        -10.3530    9.2590   -0.5310 C.2    59  PHE59       0.2595
     16  O         -9.1950    9.5800   -0.3270 O.2    59  PHE59      -0.2718
     17  CB       -10.3270    8.8960   -3.0240 C.3    59  PHE59       0.0547
     18  CG       -11.1330   10.1290   -3.3850 C.ar   59  PHE59      -0.0202
     19  CD1      -10.7980   11.3800   -2.8630 C.ar   59  PHE59      -0.0042
     20  CD2      -12.1950   10.0460   -4.2780 C.ar   59  PHE59      -0.0042
     21  CE1      -11.5250   12.5180   -3.2080 C.ar   59  PHE59      -0.0003
     22  CE2      -12.9320   11.1870   -4.6310 C.ar   59  PHE59      -0.0003
     23  CZ       -12.6010   12.4190   -4.0880 C.ar   59  PHE59      -0.0000
     24  N        -11.3760    9.7320    0.1860 N.am   60  ASP60      -0.1974
     25  CA       -11.1440   10.6000    1.3360 C.3    60  ASP60       0.1709
     26  C        -12.2350   10.4200    2.3720 C.2    60  ASP60       0.2293
     27  O        -13.3940   10.7480    2.1160 O.2    60  ASP60      -0.2864
     28  CB       -11.0260   12.0810    0.9060 C.3    60  ASP60       0.1436
     29  CG       -10.3890   12.9450    1.9740 C.2    60  ASP60       0.3671
     30  OD1      -10.8550   12.9230    3.1260 O.co2  60  ASP60      -0.2456
     31  OD2       -9.4050   13.6450    1.6770 O.co2  60  ASP60      -0.2456
     32  N        -11.6240   13.4380    6.8170 N.3    63  HIS63      -0.1241
     33  CA       -11.9050   14.8700    7.0470 C.3    63  HIS63       0.1621
     34  C        -13.3970   15.2310    7.2470 C.2    63  HIS63       0.2264
     35  O        -13.8030   16.3730    6.9870 O.2    63  HIS63      -0.2867
     36  CB       -11.3290   15.7210    5.9080 C.3    63  HIS63       0.0745
     37  CG        -9.9020   15.4030    5.5820 C.ar   63  HIS63       0.0817
     38  ND1       -8.8380   15.9950    6.2350 N.ar   63  HIS63      -0.2268
     39  CD2       -9.3610   14.5450    4.6830 C.ar   63  HIS63       0.1154
     40  CE1       -7.7060   15.5160    5.7490 C.ar   63  HIS63       0.1986
     41  NE2       -7.9950   14.6300    4.8120 N.ar   63  HIS63      -0.2212
     42  N        -11.7250   21.1370    7.5800 N.3    69  PHE69      -0.1227
     43  CA       -10.7450   21.3480    6.5510 C.3    69  PHE69       0.1736
     44  C        -10.8770   22.8230    6.2140 C.2    69  PHE69       0.2595
     45  O        -11.9840   23.3140    6.0660 O.2    69  PHE69      -0.2718
     46  CB       -11.0230   20.4480    5.3400 C.3    69  PHE69       0.0547
     47  CG       -10.2740   20.8530    4.1050 C.ar   69  PHE69      -0.0202
     48  CD1       -8.9070   20.5850    3.9800 C.ar   69  PHE69      -0.0042
     49  CD2      -10.9310   21.5080    3.0560 C.ar   69  PHE69      -0.0042
     50  CE1       -8.2300   20.9560    2.8450 C.ar   69  PHE69      -0.0003
     51  CE2      -10.2560   21.8830    1.9210 C.ar   69  PHE69      -0.0003
     52  CZ        -8.9110   21.6180    1.8090 C.ar   69  PHE69      -0.0000
     53  N         -9.7430   23.5190    6.1210 N.am   70  VAL70      -0.1966
     54  CA        -9.7180   24.9480    5.8240 C.3    70  VAL70       0.1727
     55  C         -9.0720   25.1570    4.4720 C.2    70  VAL70       0.2616
     56  O         -8.1210   24.4620    4.1220 O.2    70  VAL70      -0.2715
     57  CB        -8.8700   25.7530    6.8640 C.3    70  VAL70       0.0290
     58  CG1       -9.3540   27.1810    6.9530 C.3    70  VAL70       0.0023
     59  CG2       -8.9590   25.1380    8.2060 C.3    70  VAL70       0.0023
     60  N         -9.5890   26.1290    3.7210 N.am   71  PHE71      -0.1974
     61  CA        -8.9640   26.6170    2.4790 C.3    71  PHE71       0.1639
     62  C         -9.4200   28.0360    2.1640 C.2    71  PHE71       0.2290
     63  O        -10.4400   28.4940    2.7020 O.2    71  PHE71      -0.2864
     64  CB        -9.2560   25.6610    1.3020 C.3    71  PHE71       0.0560
     65  CG       -10.6700   25.7440    0.7550 C.ar   71  PHE71      -0.0200
     66  CD1      -10.9180   26.4070   -0.4370 C.ar   71  PHE71      -0.0042
     67  CD2      -11.7330   25.1240    1.4160 C.ar   71  PHE71      -0.0042
     68  CE1      -12.2190   26.4700   -0.9800 C.ar   71  PHE71      -0.0003
     69  CE2      -13.0450   25.1750    0.8910 C.ar   71  PHE71      -0.0003
     70  CZ       -13.2860   25.8560   -0.3100 C.ar   71  PHE71      -0.0000
     71  N         -7.7770   29.0520   -6.5770 N.3    76  GLY76      -0.1210
     72  CA        -7.1280   27.9100   -7.2220 C.3    76  GLY76       0.1956
     73  C         -6.2800   27.0730   -6.2650 C.2    76  GLY76       0.2612
     74  O         -5.3750   26.3660   -6.6920 O.2    76  GLY76      -0.2717
     75  N         -6.5670   27.1480   -4.9690 N.am   77  GLN77      -0.1965
     76  CA        -5.9140   26.2840   -3.9880 C.3    77  GLN77       0.1733
     77  C         -6.4540   24.8690   -4.0580 C.2    77  GLN77       0.2616
     78  O         -5.7470   23.9000   -3.7460 O.2    77  GLN77      -0.2715
     79  CB        -6.1500   26.8020   -2.5650 C.3    77  GLN77       0.0408
     80  CG        -4.9110   27.3230   -1.9200 C.3    77  GLN77       0.0908
     81  CD        -5.1960   28.0800   -0.6600 C.2    77  GLN77       0.2608
     82  OE1       -4.5540   29.0840   -0.3960 O.2    77  GLN77      -0.2717
     83  NE2       -6.1710   27.6100    0.1250 N.am   77  GLN77      -0.0878
     84  N         -7.7390   24.7890   -4.3960 N.am   78  VAL78      -0.1963
     85  CA        -8.4790   23.5470   -4.5230 C.3    78  VAL78       0.1727
     86  C         -8.9990   23.4060   -5.9540 C.2    78  VAL78       0.2616
     87  O         -9.0240   24.3750   -6.7010 O.2    78  VAL78      -0.2715
     88  CB        -9.6420   23.4960   -3.4910 C.3    78  VAL78       0.0290
     89  CG1       -9.0810   23.5120   -2.0830 C.3    78  VAL78       0.0023
     90  CG2      -10.6240   24.6640   -3.6920 C.3    78  VAL78       0.0023
     91  N         -9.4100   22.2010   -6.3370 N.am   79  ILE79      -0.1977
     92  CA       -10.0240   21.9770   -7.6590 C.3    79  ILE79       0.1596
     93  C        -11.1640   22.9600   -7.9790 C.2    79  ILE79       0.2287
     94  O        -11.8530   23.4650   -7.0680 O.2    79  ILE79      -0.2864
     95  CB       -10.5150   20.5170   -7.8240 C.3    79  ILE79       0.0276
     96  CG1      -11.5940   20.1810   -6.7610 C.3    79  ILE79       0.0022
     97  CG2       -9.3190   19.5800   -7.8230 C.3    79  ILE79       0.0022
     98  CD1      -12.3000   18.8260   -6.9500 C.3    79  ILE79       0.0001
     99  N        -14.8620   22.7430   -6.4180 N.3    82  TRP82      -0.1241
    100  CA       -15.0080   23.3140   -5.0620 C.3    82  TRP82       0.1605
    101  C        -15.0470   24.8200   -5.0290 C.2    82  TRP82       0.2264
    102  O        -15.8020   25.3820   -4.2490 O.2    82  TRP82      -0.2867
    103  CB       -13.8650   22.8740   -4.1260 C.3    82  TRP82       0.0550
    104  CG       -14.0710   21.5570   -3.4560 C.ar   82  TRP82       0.0003
    105  CD1      -14.3420   20.3490   -4.0560 C.ar   82  TRP82       0.0946
    106  CD2      -14.0110   21.3030   -2.0420 C.ar   82  TRP82       0.0152
    107  NE1      -14.4450   19.3540   -3.0930 N.ar   82  TRP82      -0.2442
    108  CE2      -14.2360   19.9110   -1.8530 C.ar   82  TRP82       0.0810
    109  CE3      -13.7710   22.1120   -0.9130 C.ar   82  TRP82       0.0012
    110  CZ2      -14.2340   19.3180   -0.5730 C.ar   82  TRP82       0.0191
    111  CZ3      -13.7690   21.5190    0.3460 C.ar   82  TRP82       0.0001
    112  CH2      -14.0070   20.1390    0.5020 C.ar   82  TRP82       0.0015
    113  N         -9.4500   16.7410  -11.6620 N.3   105  TYR105     -0.1241
    114  CA        -8.0260   16.4270  -11.8950 C.3   105  TYR105      0.1605
    115  C         -7.6740   16.0520  -13.3550 C.2   105  TYR105      0.2264
    116  O         -6.5420   15.6290  -13.6310 O.2   105  TYR105     -0.2867
    117  CB        -7.5190   15.3480  -10.9010 C.3   105  TYR105      0.0534
    118  CG        -7.6090   15.7930   -9.4550 C.ar  105  TYR105     -0.0201
    119  CD1       -6.6000   16.5840   -8.8710 C.ar  105  TYR105     -0.0009
    120  CD2       -8.7000   15.4420   -8.6820 C.ar  105  TYR105     -0.0009
    121  CE1       -6.7050   17.0060   -7.5510 C.ar  105  TYR105      0.0417
    122  CE2       -8.8260   15.8550   -7.3650 C.ar  105  TYR105      0.0417
    123  CZ        -7.8350   16.6390   -6.8060 C.ar  105  TYR105      0.1957
    124  OH        -7.9820   17.0400   -5.5020 O.3   105  TYR105     -0.2866
    125  N         -4.7970   12.2270  -10.0080 N.3   110  SER110     -0.1217
    126  CA        -3.9670   12.4660   -8.8470 C.3   110  SER110      0.1889
    127  C         -3.7940   11.0620   -8.2300 C.2   110  SER110      0.2288
    128  O         -4.3470   10.7430   -7.1690 O.2   110  SER110     -0.2866
    129  CB        -4.6610   13.4670   -7.9070 C.3   110  SER110      0.2089
    130  OG        -3.7490   14.0850   -7.0150 O.3   110  SER110     -0.2183
    131  N         -4.6970    7.6850   -5.4870 N.3   113  LYS113     -0.1231
    132  CA        -6.1100    7.8650   -5.1440 C.3   113  LYS113      0.1693
    133  C         -7.0360    8.1820   -6.3280 C.2   113  LYS113      0.2591
    134  O         -8.1280    7.6010   -6.4360 O.2   113  LYS113     -0.2718
    135  CB        -6.3070    8.9450   -4.0620 C.3   113  LYS113      0.0285
    136  CG        -5.9850    8.5000   -2.6440 C.3   113  LYS113      0.0035
    137  CD        -6.2470    9.6730   -1.7200 C.3   113  LYS113      0.0206
    138  CE        -6.2480    9.2880   -0.2560 C.3   113  LYS113      0.1093
    139  NZ        -6.8270   10.4510    0.5080 N.3   113  LYS113     -0.1314
    140  N         -6.6280    9.1250   -7.1780 N.am  114  ILE114     -0.1980
    141  CA        -7.4930    9.5980   -8.2690 C.3   114  ILE114      0.1595
    142  C         -6.9630    9.1780   -9.6440 C.2   114  ILE114      0.2287
    143  O         -5.9140    9.6450  -10.0750 O.2   114  ILE114     -0.2864
    144  CB        -7.7340   11.1450   -8.2550 C.3   114  ILE114      0.0276
    145  CG1       -7.9720   11.6860   -6.8290 C.3   114  ILE114      0.0022
    146  CG2       -8.8550   11.5410   -9.2580 C.3   114  ILE114      0.0022
    147  CD1       -9.3000   11.3250   -6.2030 C.3   114  ILE114      0.0001
    148  N        -18.3440   14.4820   -3.9100 N.3   122  PHE122     -0.1241
    149  CA       -18.0790   14.9750   -2.5610 C.3   122  PHE122      0.1605
    150  C        -19.3610   15.2350   -1.8020 C.2   122  PHE122      0.2264
    151  O        -20.3250   15.7290   -2.3670 O.2   122  PHE122     -0.2867
    152  CB       -17.3210   16.3060   -2.6010 C.3   122  PHE122      0.0534
    153  CG       -15.9190   16.1890   -3.1000 C.ar  122  PHE122     -0.0203
    154  CD1      -14.8670   15.9280   -2.2060 C.ar  122  PHE122     -0.0042
    155  CD2      -15.6340   16.3720   -4.4610 C.ar  122  PHE122     -0.0042
    156  CE1      -13.5450   15.8350   -2.6800 C.ar  122  PHE122     -0.0003
    157  CE2      -14.3330   16.2800   -4.9390 C.ar  122  PHE122     -0.0003
    158  CZ       -13.2720   16.0110   -4.0530 C.ar  122  PHE122     -0.0000
@<TRIPOS>BOND
     1   116   115    2
     2   115   114    1
     3   114   113    1
     4   114   117    1
     5   117   118    1
     6   143   142    2
     7   125   126    1
     8   142   141    1
     9   118   119   ar
    10   118   120   ar
    11   146   144    1
    12   119   121   ar
    13   126   127    1
    14   126   129    1
    15   120   122   ar
    16   141   144    1
    17   141   140    1
    18   144   145    1
    19   127   128    2
    20    93    92    1
    21    93    94    2
    22   129   130    1
    23    95    97    1
    24    95    92    1
    25    95    96    1
    26    92    91    1
    27   121   123   ar
    28   122   123   ar
    29    72    71    1
    30    72    73    1
    31   140   133   am
    32    98    96    1
    33   145   147    1
    34   123   124    1
    35    87    86    2
    36    74    73    2
    37   134   133    2
    38    99   100    1
    39    91    86   am
    40   133   132    1
    41    73    75   am
    42    86    85    1
    43   131   132    1
    44   132   135    1
    45   100   101    1
    46   100   103    1
    47   101   102    2
    48    75    76    1
    49   157   155   ar
    50   157   158   ar
    51    22    20   ar
    52    22    23   ar
    53    85    84    1
    54    85    88    1
    55   155   153   ar
    56    84    77   am
    57    20    18   ar
    58   103   104    1
    59    23    21   ar
    60   135   136    1
    61    77    76    1
    62    77    78    2
    63   105   104   ar
    64   105   107   ar
    65   158   156   ar
    66    76    79    1
    67   148   149    1
    68    90    88    1
    69    88    89    1
    70   104   106   ar
    71    18    17    1
    72    18    19   ar
    73    21    19   ar
    74   153   152    1
    75   153   154   ar
    76   107   108   ar
    77    17    14    1
    78   156   154   ar
    79   136   137    1
    80   152   149    1
    81    79    80    1
    82   149   150    1
    83   151   150    2
    84   106   108   ar
    85   106   109   ar
    86    80    81    1
    87   108   110   ar
    88   137   138    1
    89    14    13    1
    90    14    15    1
    91    68    66   ar
    92    68    70   ar
    93   109   111   ar
    94    81    82    2
    95    81    83   am
    96   110   112   ar
    97    15    16    2
    98    15    24   am
    99    66    65   ar
   100    70    69   ar
   101   138   139    1
   102    24    25    1
   103   111   112   ar
   104    65    64    1
   105    65    67   ar
   106    69    67   ar
   107    28    25    1
   108    28    29    1
   109    64    61    1
   110    25    26    1
   111     9     7   ar
   112     9    11   ar
   113     7     6   ar
   114    31    29   ar
   115    52    51   ar
   116    52    50   ar
   117    51    49   ar
   118    29    30   ar
   119    27    26    2
   120    12    11    1
   121    62    61    1
   122    62    63    2
   123    11    10   ar
   124     6     5    1
   125     6     8   ar
   126     5     2    1
   127    61    60    1
   128    50    48   ar
   129    49    47   ar
   130    10     8   ar
   131     3     2    1
   132     3     4    2
   133     2     1    1
   134    60    55   am
   135    48    47   ar
   136    47    46    1
   137    56    55    2
   138    55    54    1
   139    39    41   ar
   140    39    37   ar
   141    41    40   ar
   142    46    43    1
   143    37    36    1
   144    37    38   ar
   145    40    38   ar
   146    54    53    1
   147    54    57    1
   148    36    33    1
   149    45    44    2
   150    53    44   am
   151    44    43    1
   152    43    42    1
   153    32    33    1
   154    57    58    1
   155    57    59    1
   156    35    34    2
   157    33    34    1
