@<TRIPOS>MOLECULE
tmp/4drkA00.pdb
 155 153 0 0 0
SMALL
GASTEIGER

@<TRIPOS>ATOM
      1  N         25.3460  -17.3490   20.9830 N.3    45  TYR45      -0.1241
      2  CA        26.1670  -17.7760   22.1060 C.3    45  TYR45       0.1605
      3  C         26.0240  -19.2500   22.4390 C.2    45  TYR45       0.2264
      4  O         25.0070  -19.8900   22.0880 O.2    45  TYR45      -0.2867
      5  CB        25.8640  -16.9290   23.3650 C.3    45  TYR45       0.0534
      6  CG        24.5110  -17.2650   23.9820 C.ar   45  TYR45      -0.0201
      7  CD1       24.3960  -18.2150   24.9910 C.ar   45  TYR45      -0.0009
      8  CD2       23.3470  -16.6450   23.5290 C.ar   45  TYR45      -0.0009
      9  CE1       23.1470  -18.5330   25.5460 C.ar   45  TYR45       0.0417
     10  CE2       22.1020  -16.9440   24.1030 C.ar   45  TYR45       0.0417
     11  CZ        22.0180  -17.8720   25.1070 C.ar   45  TYR45       0.1957
     12  OH        20.7770  -18.1510   25.6530 O.3    45  TYR45      -0.2866
     13  N         24.6520  -25.6620   29.1870 N.3    55  PHE55      -0.1227
     14  CA        23.3220  -25.2550   29.6490 C.3    55  PHE55       0.1736
     15  C         22.4450  -24.5600   28.5920 C.2    55  PHE55       0.2595
     16  O         21.2440  -24.5950   28.7350 O.2    55  PHE55      -0.2718
     17  CB        23.3300  -24.4630   30.9760 C.3    55  PHE55       0.0547
     18  CG        24.1460  -23.1720   30.9450 C.ar   55  PHE55      -0.0202
     19  CD1       23.6330  -22.0310   30.3510 C.ar   55  PHE55      -0.0042
     20  CD2       25.4270  -23.1110   31.5170 C.ar   55  PHE55      -0.0042
     21  CE1       24.3730  -20.8380   30.3280 C.ar   55  PHE55      -0.0003
     22  CE2       26.1700  -21.9190   31.5140 C.ar   55  PHE55      -0.0003
     23  CZ        25.6210  -20.7770   30.9170 C.ar   55  PHE55      -0.0000
     24  N         23.0310  -23.9540   27.5460 N.am   56  ASP56      -0.1974
     25  CA        22.2010  -23.3730   26.4760 C.3    56  ASP56       0.1709
     26  C         23.0350  -23.0040   25.2670 C.2    56  ASP56       0.2293
     27  O         24.2230  -22.7490   25.3990 O.2    56  ASP56      -0.2864
     28  CB        21.4430  -22.1290   26.9690 C.3    56  ASP56       0.1436
     29  CG        20.2770  -21.7740   26.0780 C.2    56  ASP56       0.3671
     30  OD1       19.5890  -22.6980   25.5760 O.co2  56  ASP56      -0.2456
     31  OD2       20.0170  -20.5750   25.8830 O.co2  56  ASP56      -0.2456
     32  N         20.1540  -14.1560   19.8670 N.3    65  PHE65      -0.1241
     33  CA        19.6840  -13.5930   21.1300 C.3    65  PHE65       0.1605
     34  C         19.8310  -12.0640   21.0310 C.2    65  PHE65       0.2264
     35  O         20.8980  -11.5510   20.6220 O.2    65  PHE65      -0.2867
     36  CB        20.4890  -14.1850   22.2960 C.3    65  PHE65       0.0534
     37  CG        20.1350  -13.5870   23.6460 C.ar   65  PHE65      -0.0203
     38  CD1       19.0580  -14.1100   24.3770 C.ar   65  PHE65      -0.0042
     39  CD2       20.8720  -12.5350   24.1920 C.ar   65  PHE65      -0.0042
     40  CE1       18.7060  -13.5680   25.6040 C.ar   65  PHE65      -0.0003
     41  CE2       20.5030  -11.9790   25.4420 C.ar   65  PHE65      -0.0003
     42  CZ        19.4220  -12.5140   26.1420 C.ar   65  PHE65      -0.0000
     43  N         19.3090   -8.1970   22.9120 N.3    67  PHE67      -0.1241
     44  CA        19.0980   -7.4580   24.1710 C.3    67  PHE67       0.1605
     45  C         19.5650   -6.0130   24.0300 C.2    67  PHE67       0.2264
     46  O         20.2670   -5.6480   23.0700 O.2    67  PHE67      -0.2867
     47  CB        19.7500   -8.1670   25.3860 C.3    67  PHE67       0.0534
     48  CG        21.2610   -8.0920   25.4190 C.ar   67  PHE67      -0.0203
     49  CD1       21.9200   -7.1810   26.2850 C.ar   67  PHE67      -0.0042
     50  CD2       22.0160   -8.9380   24.6180 C.ar   67  PHE67      -0.0042
     51  CE1       23.3180   -7.1300   26.3390 C.ar   67  PHE67      -0.0003
     52  CE2       23.4240   -8.8700   24.6380 C.ar   67  PHE67      -0.0003
     53  CZ        24.0650   -7.9820   25.5140 C.ar   67  PHE67      -0.0000
     54  N         21.3640   -3.5840   32.4030 N.3    72  GLY72      -0.1210
     55  CA        21.1110   -4.6020   33.4130 C.3    72  GLY72       0.1956
     56  C         20.0040   -5.5630   33.0200 C.2    72  GLY72       0.2612
     57  O         19.2710   -6.0630   33.9150 O.2    72  GLY72      -0.2717
     58  N         19.8820   -5.8260   31.7160 N.am   73  GLN73      -0.1965
     59  CA        18.8960   -6.7840   31.1490 C.3    73  GLN73       0.1733
     60  C         19.4490   -8.1870   31.0650 C.2    73  GLN73       0.2616
     61  O         18.7270   -9.1220   30.7120 O.2    73  GLN73      -0.2715
     62  CB        18.4850   -6.4230   29.7030 C.3    73  GLN73       0.0408
     63  CG        17.6840   -5.1930   29.5460 C.3    73  GLN73       0.0908
     64  CD        17.0870   -4.9990   28.1440 C.2    73  GLN73       0.2608
     65  OE1       17.3490   -5.7610   27.1430 O.2    73  GLN73      -0.2717
     66  NE2       16.2580   -3.9790   28.0610 N.am   73  GLN73      -0.0878
     67  N         20.7520   -8.3110   31.3220 N.am   74  VAL74      -0.1963
     68  CA        21.4800   -9.5830   31.2400 C.3    74  VAL74       0.1727
     69  C         22.4850   -9.5760   32.3720 C.2    74  VAL74       0.2616
     70  O         22.6880   -8.5400   32.9940 O.2    74  VAL74      -0.2715
     71  CB        22.2600   -9.7690   29.8870 C.3    74  VAL74       0.0290
     72  CG1       21.2690   -9.9140   28.7260 C.3    74  VAL74       0.0023
     73  CG2       23.2270   -8.6010   29.6460 C.3    74  VAL74       0.0023
     74  N         23.1060  -10.7080   32.6880 N.am   75  ILE75      -0.1963
     75  CA        24.1070  -10.7610   33.7880 C.3    75  ILE75       0.1727
     76  C         25.2390   -9.7320   33.5680 C.2    75  ILE75       0.2616
     77  O         25.5400   -9.2970   32.4330 O.2    75  ILE75      -0.2715
     78  CB        24.7350  -12.1760   33.9720 C.3    75  ILE75       0.0290
     79  CG1       25.3400  -12.7150   32.6610 C.3    75  ILE75       0.0022
     80  CG2       23.6840  -13.1420   34.5340 C.3    75  ILE75       0.0023
     81  CD1       26.2160  -14.0150   32.8710 C.3    75  ILE75       0.0001
     82  N         25.8600   -9.3360   34.6840 N.am   76  LYS76      -0.1977
     83  CA        26.8640   -8.2490   34.6620 C.3    76  LYS76       0.1596
     84  C         27.9790   -8.5790   33.6540 C.2    76  LYS76       0.2287
     85  O         28.3940   -7.7190   32.8840 O.2    76  LYS76      -0.2864
     86  CB        27.4320   -7.9690   36.0680 C.3    76  LYS76       0.0298
     87  CG        26.3900   -7.6660   37.1320 C.3    76  LYS76       0.0038
     88  CD        27.0980   -7.5900   38.4860 C.3    76  LYS76       0.0206
     89  CE        26.1420   -7.8900   39.6300 C.3    76  LYS76       0.1093
     90  NZ        25.8350   -9.3270   39.7460 N.3    76  LYS76      -0.1314
     91  N         27.9500  -10.0830   30.8880 N.3    78  TRP78      -0.1241
     92  CA        27.5380   -9.8050   29.5180 C.3    78  TRP78       0.1605
     93  C         27.4880   -8.3030   29.2050 C.2    78  TRP78       0.2264
     94  O         27.9710   -7.8730   28.1320 O.2    78  TRP78      -0.2867
     95  CB        26.1800  -10.4710   29.2370 C.3    78  TRP78       0.0550
     96  CG        26.2900  -11.8640   28.6730 C.ar   78  TRP78       0.0003
     97  CD1       26.8900  -12.9670   29.2620 C.ar   78  TRP78       0.0946
     98  CD2       25.7140  -12.3100   27.4560 C.ar   78  TRP78       0.0152
     99  NE1       26.7680  -14.0570   28.4290 N.ar   78  TRP78      -0.2442
    100  CE2       26.0310  -13.6910   27.3250 C.ar   78  TRP78       0.0810
    101  CE3       24.9660  -11.6720   26.4460 C.ar   78  TRP78       0.0012
    102  CZ2       25.6180  -14.4620   26.2120 C.ar   78  TRP78       0.0191
    103  CZ3       24.5420  -12.4390   25.3410 C.ar   78  TRP78       0.0001
    104  CH2       24.8800  -13.8150   25.2270 C.ar   78  TRP78       0.0015
    105  N         27.8690  -13.1880   37.4650 N.3   100  ALA100     -0.1231
    106  CA        26.8660  -14.0560   36.8620 C.3   100  ALA100      0.1694
    107  C         25.6800  -14.2140   37.8160 C.2   100  ALA100      0.2592
    108  O         25.0430  -13.2000   38.1190 O.2   100  ALA100     -0.2718
    109  CB        27.4810  -15.3780   36.4450 C.3   100  ALA100      0.0304
    110  N         25.3910  -15.4340   38.2850 N.am  101  TYR101     -0.1976
    111  CA        24.1760  -15.6710   39.1020 C.3   101  TYR101      0.1639
    112  C         24.4070  -15.8240   40.6040 C.2   101  TYR101      0.2290
    113  O         23.4740  -16.0790   41.3580 O.2   101  TYR101     -0.2864
    114  CB        23.4100  -16.8840   38.5650 C.3   101  TYR101      0.0560
    115  CG        22.9320  -16.6960   37.1660 C.ar  101  TYR101     -0.0198
    116  CD1       21.6890  -16.0960   36.9190 C.ar  101  TYR101     -0.0009
    117  CD2       23.7140  -17.1390   36.0740 C.ar  101  TYR101     -0.0009
    118  CE1       21.2350  -15.9310   35.6050 C.ar  101  TYR101      0.0417
    119  CE2       23.2890  -16.9490   34.7460 C.ar  101  TYR101      0.0417
    120  CZ        22.0450  -16.3640   34.5260 C.ar  101  TYR101      0.1957
    121  OH        21.5890  -16.1410   33.2470 O.3   101  TYR101     -0.2866
    122  N         20.6890  -19.8690   38.8630 N.3   106  SER106     -0.1217
    123  CA        19.5620  -19.7980   37.9230 C.3   106  SER106      0.1889
    124  C         19.0640  -21.2440   37.8640 C.2   106  SER106      0.2288
    125  O         19.2900  -21.9710   36.9000 O.2   106  SER106     -0.2866
    126  CB        19.9660  -19.2720   36.5410 C.3   106  SER106      0.2089
    127  OG        18.7840  -18.8450   35.8260 O.3   106  SER106     -0.2183
    128  N         19.3630  -25.1330   36.1290 N.3   109  LYS109     -0.1231
    129  CA        20.4460  -25.3500   35.1600 C.3   109  LYS109      0.1693
    130  C         21.7300  -24.7480   35.7090 C.2   109  LYS109      0.2591
    131  O         22.8120  -25.2720   35.4540 O.2   109  LYS109     -0.2718
    132  CB        20.1280  -24.6970   33.8190 C.3   109  LYS109      0.0285
    133  CG        19.0710  -25.4230   32.9650 C.3   109  LYS109      0.0035
    134  CD        18.8900  -24.6770   31.6540 C.3   109  LYS109      0.0206
    135  CE        17.7970  -25.2760   30.7860 C.3   109  LYS109      0.1093
    136  NZ        17.7500  -24.5330   29.4990 N.3   109  LYS109     -0.1314
    137  N         21.6270  -23.6640   36.4700 N.am  110  ILE110     -0.1980
    138  CA        22.8530  -23.0080   36.9650 C.3   110  ILE110      0.1595
    139  C         22.8500  -23.0210   38.4870 C.2   110  ILE110      0.2287
    140  O         22.0060  -22.4130   39.1250 O.2   110  ILE110     -0.2864
    141  CB        23.0140  -21.6200   36.3930 C.3   110  ILE110      0.0276
    142  CG1       23.2150  -21.7490   34.8670 C.3   110  ILE110      0.0022
    143  CG2       24.2600  -20.8920   37.0240 C.3   110  ILE110      0.0022
    144  CD1       23.2880  -20.4770   34.1120 C.3   110  ILE110      0.0001
    145  N         31.1600  -18.5690   28.4420 N.3   118  PHE118     -0.1241
    146  CA        30.3440  -18.2930   27.2610 C.3   118  PHE118      0.1605
    147  C         31.2130  -18.0900   26.0380 C.2   118  PHE118      0.2264
    148  O         32.2400  -17.4200   26.1020 O.2   118  PHE118     -0.2867
    149  CB        29.5100  -17.0160   27.4140 C.3   118  PHE118      0.0534
    150  CG        28.3680  -17.1280   28.3710 C.ar  118  PHE118     -0.0203
    151  CD1       27.1230  -17.5490   27.9230 C.ar  118  PHE118     -0.0042
    152  CD2       28.5310  -16.7590   29.6940 C.ar  118  PHE118     -0.0042
    153  CE1       26.0370  -17.6450   28.7960 C.ar  118  PHE118     -0.0003
    154  CE2       27.4190  -16.8480   30.5830 C.ar  118  PHE118     -0.0003
    155  CZ        26.1790  -17.2820   30.1200 C.ar  118  PHE118     -0.0000
@<TRIPOS>BOND
     1    32    33    1
     2    35    34    2
     3     1     2    1
     4    34    33    1
     5    33    36    1
     6     4     3    2
     7     2     3    1
     8     2     5    1
     9    36    37    1
    10    43    44    1
    11    46    45    2
    12     5     6    1
    13     8     6   ar
    14     8    10   ar
    15    37    39   ar
    16    37    38   ar
    17     6     7   ar
    18    45    44    1
    19    10    11   ar
    20    44    47    1
    21    39    41   ar
    22    38    40   ar
    23    50    52   ar
    24    50    48   ar
    25    52    53   ar
    26     7     9   ar
    27    11     9   ar
    28    11    12    1
    29   104   103   ar
    30   104   102   ar
    31    26    27    2
    32    26    25    1
    33   103   101   ar
    34    47    48    1
    35    48    49   ar
    36    41    42   ar
    37    53    51   ar
    38    30    29   ar
    39    40    42   ar
    40    31    29   ar
    41   147   148    2
    42   147   146    1
    43    29    28    1
    44   102   100   ar
    45    49    51   ar
    46   101    98   ar
    47    25    28    1
    48    25    24    1
    49    65    64    2
    50   146   149    1
    51   146   145    1
    52   100    98   ar
    53   100    99   ar
    54   149   150    1
    55    98    96   ar
    56    24    15   am
    57   151   150   ar
    58   151   153   ar
    59    66    64   am
    60    94    93    2
    61    64    63    1
    62   150   152   ar
    63    99    97   ar
    64    15    16    2
    65    15    14    1
    66    96    95    1
    67    96    97   ar
    68    72    71    1
    69   153   155   ar
    70    13    14    1
    71    93    92    1
    72    95    92    1
    73   136   135    1
    74    92    91    1
    75    63    62    1
    76    73    71    1
    77    14    17    1
    78   152   154   ar
    79    62    59    1
    80    71    68    1
    81   155   154   ar
    82    21    19   ar
    83    21    23   ar
    84    19    18   ar
    85    61    60    2
    86   135   134    1
    87    23    22   ar
    88    18    17    1
    89    18    20   ar
    90    60    59    1
    91    60    67   am
    92    59    58    1
    93    68    67    1
    94    68    69    1
    95    22    20   ar
    96   134   133    1
    97    58    56   am
    98    69    74   am
    99    69    70    2
   100    54    55    1
   101    77    76    2
   102    79    81    1
   103    79    78    1
   104    74    75    1
   105    85    84    2
   106   133   132    1
   107    56    55    1
   108    56    57    2
   109   121   120    1
   110    76    75    1
   111    76    82   am
   112    84    83    1
   113    75    78    1
   114   132   129    1
   115    78    80    1
   116   144   142    1
   117   120   119   ar
   118   120   118   ar
   119    83    82    1
   120    83    86    1
   121   119   117   ar
   122   142   141    1
   123   129   130    1
   124   129   128    1
   125   131   130    2
   126   118   116   ar
   127   130   137   am
   128   127   126    1
   129    86    87    1
   130   117   115   ar
   131   141   138    1
   132   141   143    1
   133   109   106    1
   134   137   138    1
   135   126   123    1
   136   106   105    1
   137   106   107    1
   138   125   124    2
   139   116   115   ar
   140   138   139    1
   141    87    88    1
   142   115   114    1
   143   107   108    2
   144   107   110   am
   145   124   123    1
   146   123   122    1
   147   110   111    1
   148    88    89    1
   149   139   140    2
   150   114   111    1
   151   111   112    1
   152    89    90    1
   153   112   113    2
