@<TRIPOS>MOLECULE
tmp/4drmA00.pdb
 162 161 0 0 0
SMALL
GASTEIGER

@<TRIPOS>ATOM
      1  N         23.6980    9.6350  -11.6610 N.3    45  TYR45      -0.1241
      2  CA        23.7710   11.1140  -11.7540 C.3    45  TYR45       0.1605
      3  C         22.6980   11.6810  -12.6730 C.2    45  TYR45       0.2264
      4  O         22.1900   11.0040  -13.5970 O.2    45  TYR45      -0.2867
      5  CB        25.1650   11.6130  -12.2320 C.3    45  TYR45       0.0534
      6  CG        25.4320   11.3210  -13.6900 C.ar   45  TYR45      -0.0201
      7  CD1       25.1750   12.2890  -14.6860 C.ar   45  TYR45      -0.0009
      8  CD2       25.9300   10.0790  -14.0870 C.ar   45  TYR45      -0.0009
      9  CE1       25.3960   11.9890  -16.0610 C.ar   45  TYR45       0.0417
     10  CE2       26.1560    9.7860  -15.4260 C.ar   45  TYR45       0.0417
     11  CZ        25.8880   10.7360  -16.4090 C.ar   45  TYR45       0.1957
     12  OH        26.1420   10.3890  -17.7220 O.3    45  TYR45      -0.2866
     13  N         20.9500   17.8020  -19.5120 N.3    55  PHE55      -0.1227
     14  CA        21.7780   17.2290  -20.5740 C.3    55  PHE55       0.1736
     15  C         21.9990   15.7250  -20.4910 C.2    55  PHE55       0.2595
     16  O         22.3040   15.1040  -21.5040 O.2    55  PHE55      -0.2718
     17  CB        23.1110   17.9830  -20.7910 C.3    55  PHE55       0.0547
     18  CG        24.0430   17.9900  -19.6030 C.ar   55  PHE55      -0.0202
     19  CD1       24.8920   16.9000  -19.3140 C.ar   55  PHE55      -0.0042
     20  CD2       24.1180   19.1280  -18.7800 C.ar   55  PHE55      -0.0042
     21  CE1       25.7970   16.9760  -18.2080 C.ar   55  PHE55      -0.0003
     22  CE2       25.0200   19.1910  -17.7020 C.ar   55  PHE55      -0.0003
     23  CZ        25.8320   18.1110  -17.4130 C.ar   55  PHE55      -0.0000
     24  N         21.8560   15.1420  -19.2920 N.am   56  ASP56      -0.1974
     25  CA        21.9870   13.6830  -19.1790 C.3    56  ASP56       0.1709
     26  C         21.5100   13.1410  -17.8490 C.2    56  ASP56       0.2293
     27  O         21.4400   13.8760  -16.8500 O.2    56  ASP56      -0.2864
     28  CB        23.4490   13.2500  -19.3910 C.3    56  ASP56       0.1436
     29  CG        23.5900   11.7970  -19.8470 C.2    56  ASP56       0.3671
     30  OD1       22.5940   11.1710  -20.2540 O.co2  56  ASP56      -0.2456
     31  OD2       24.7240   11.2850  -19.8390 O.co2  56  ASP56      -0.2456
     32  N         26.6770    4.6890  -13.9400 N.3    65  PHE65      -0.1227
     33  CA        27.9100    5.1300  -14.5790 C.3    65  PHE65       0.1736
     34  C         29.0940    4.6360  -13.7580 C.2    65  PHE65       0.2595
     35  O         29.1200    4.7790  -12.5320 O.2    65  PHE65      -0.2718
     36  CB        27.9240    6.6710  -14.6610 C.3    65  PHE65       0.0547
     37  CG        29.1290    7.2310  -15.3730 C.ar   65  PHE65      -0.0202
     38  CD1       29.1560    7.3130  -16.7730 C.ar   65  PHE65      -0.0042
     39  CD2       30.2130    7.7110  -14.6470 C.ar   65  PHE65      -0.0042
     40  CE1       30.2940    7.8460  -17.4310 C.ar   65  PHE65      -0.0003
     41  CE2       31.3360    8.2350  -15.2960 C.ar   65  PHE65      -0.0003
     42  CZ        31.3710    8.2940  -16.6770 C.ar   65  PHE65      -0.0000
     43  N         30.0650    4.0320  -14.4430 N.am   66  VAL66      -0.1966
     44  CA        31.1940    3.3590  -13.7950 C.3    66  VAL66       0.1727
     45  C         32.5180    3.9140  -14.3150 C.2    66  VAL66       0.2616
     46  O         32.7250    4.0460  -15.5250 O.2    66  VAL66      -0.2715
     47  CB        31.1420    1.8230  -14.0600 C.3    66  VAL66       0.0290
     48  CG1       32.2970    1.1050  -13.3720 C.3    66  VAL66       0.0023
     49  CG2       29.7710    1.2190  -13.6420 C.3    66  VAL66       0.0023
     50  N         33.4160    4.2580  -13.3970 N.am   67  PHE67      -0.1974
     51  CA        34.7380    4.7350  -13.7860 C.3    67  PHE67       0.1639
     52  C         35.7790    4.4560  -12.7050 C.2    67  PHE67       0.2290
     53  O         35.4360    4.0840  -11.5810 O.2    67  PHE67      -0.2864
     54  CB        34.7070    6.2380  -14.1500 C.3    67  PHE67       0.0560
     55  CG        34.5490    7.1910  -12.9730 C.ar   67  PHE67      -0.0200
     56  CD1       35.6430    7.9390  -12.5180 C.ar   67  PHE67      -0.0042
     57  CD2       33.2990    7.3770  -12.3610 C.ar   67  PHE67      -0.0042
     58  CE1       35.5110    8.8380  -11.4690 C.ar   67  PHE67      -0.0003
     59  CE2       33.1370    8.2840  -11.3080 C.ar   67  PHE67      -0.0003
     60  CZ        34.2610    9.0110  -10.8520 C.ar   67  PHE67      -0.0000
     61  N         41.7900   10.6420  -14.2810 N.3    72  GLY72      -0.1210
     62  CA        41.5180   11.5050  -15.4230 C.3    72  GLY72       0.1956
     63  C         40.5910   10.8630  -16.4610 C.2    72  GLY72       0.2612
     64  O         40.6670   11.1930  -17.6690 O.2    72  GLY72      -0.2717
     65  N         39.7000    9.9640  -16.0210 N.am   73  GLN73      -0.1965
     66  CA        38.7190    9.3420  -16.9280 C.3    73  GLN73       0.1733
     67  C         37.4610   10.1760  -17.0660 C.2    73  GLN73       0.2616
     68  O         36.6130    9.8940  -17.9270 O.2    73  GLN73      -0.2715
     69  CB        38.3230    7.9370  -16.4460 C.3    73  GLN73       0.0408
     70  CG        39.4660    6.9370  -16.4940 C.3    73  GLN73       0.0908
     71  CD        39.0730    5.5070  -16.0990 C.2    73  GLN73       0.2608
     72  OE1       37.9070    5.2040  -15.7730 O.2    73  GLN73      -0.2717
     73  NE2       40.0640    4.6070  -16.1380 N.am   73  GLN73      -0.0878
     74  N         37.3170   11.1770  -16.1910 N.am   74  VAL74      -0.1963
     75  CA        36.1560   12.0550  -16.1520 C.3    74  VAL74       0.1727
     76  C         36.6840   13.4810  -15.9610 C.2    74  VAL74       0.2616
     77  O         37.8660   13.6630  -15.6510 O.2    74  VAL74      -0.2715
     78  CB        35.2050   11.7300  -14.9610 C.3    74  VAL74       0.0290
     79  CG1       34.5040   10.3660  -15.1850 C.3    74  VAL74       0.0023
     80  CG2       35.9830   11.7660  -13.6220 C.3    74  VAL74       0.0023
     81  N         35.8090   14.4720  -16.1100 N.am   75  ILE75      -0.1963
     82  CA        36.1740   15.8770  -15.8570 C.3    75  ILE75       0.1727
     83  C         36.7130   16.0890  -14.4470 C.2    75  ILE75       0.2616
     84  O         36.4030   15.3310  -13.5130 O.2    75  ILE75      -0.2715
     85  CB        35.0090   16.8750  -16.1590 C.3    75  ILE75       0.0290
     86  CG1       33.7660   16.5170  -15.3510 C.3    75  ILE75       0.0022
     87  CG2       34.6700   16.8620  -17.6750 C.3    75  ILE75       0.0023
     88  CD1       32.6510   17.5760  -15.3990 C.3    75  ILE75       0.0001
     89  N         37.5500   17.1210  -14.3000 N.am   76  LYS76      -0.1977
     90  CA        38.2760   17.3410  -13.0490 C.3    76  LYS76       0.1596
     91  C         37.3270   17.4700  -11.8690 C.2    76  LYS76       0.2287
     92  O         37.6010   16.9000  -10.8020 O.2    76  LYS76      -0.2864
     93  CB        39.1810   18.5920  -13.1760 C.3    76  LYS76       0.0298
     94  CG        40.3570   18.4400  -14.0930 C.3    76  LYS76       0.0038
     95  CD        41.0560   19.7890  -14.2140 C.3    76  LYS76       0.0206
     96  CE        42.2490   19.7450  -15.1580 C.3    76  LYS76       0.1093
     97  NZ        43.0960   20.9840  -14.9810 N.3    76  LYS76      -0.1314
     98  N         34.6270   16.0360  -11.2310 N.3    78  TRP78      -0.1241
     99  CA        34.1370   14.7280  -10.7820 C.3    78  TRP78       0.1605
    100  C         35.2060   13.9050  -10.0460 C.2    78  TRP78       0.2264
    101  O         34.9020   13.2450   -9.0160 O.2    78  TRP78      -0.2867
    102  CB        33.5870   13.9380  -11.9500 C.3    78  TRP78       0.0550
    103  CG        32.1200   14.0750  -12.1670 C.ar   78  TRP78       0.0003
    104  CD1       31.4080   15.2070  -12.4470 C.ar   78  TRP78       0.0946
    105  CD2       31.1870   12.9930  -12.1660 C.ar   78  TRP78       0.0152
    106  NE1       30.0610   14.9000  -12.5980 N.ar   78  TRP78      -0.2442
    107  CE2       29.9090   13.5430  -12.4280 C.ar   78  TRP78       0.0810
    108  CE3       31.3110   11.6080  -11.9700 C.ar   78  TRP78       0.0012
    109  CZ2       28.7560   12.7520  -12.5260 C.ar   78  TRP78       0.0191
    110  CZ3       30.1660   10.8180  -12.0430 C.ar   78  TRP78       0.0001
    111  CH2       28.9010   11.3920  -12.3330 C.ar   78  TRP78       0.0015
    112  N         35.5580   21.5650  -15.8140 N.3   100  ALA100     -0.1231
    113  CA        34.5960   20.8160  -16.6430 C.3   100  ALA100      0.1694
    114  C         35.0870   20.8310  -18.0960 C.2   100  ALA100      0.2592
    115  O         36.1820   20.3140  -18.3330 O.2   100  ALA100     -0.2718
    116  CB        33.1540   21.3780  -16.4310 C.3   100  ALA100      0.0304
    117  N         34.3400   21.4090  -19.0390 N.am  101  TYR101     -0.1976
    118  CA        34.7110   21.3440  -20.4770 C.3   101  TYR101      0.1639
    119  C         35.3670   22.6120  -21.0110 C.2   101  TYR101      0.2290
    120  O         35.6380   22.7080  -22.2160 O.2   101  TYR101     -0.2864
    121  CB        33.5000   20.9760  -21.3190 C.3   101  TYR101      0.0560
    122  CG        32.9850   19.5920  -20.9750 C.ar  101  TYR101     -0.0198
    123  CD1       33.5620   18.4760  -21.5520 C.ar  101  TYR101     -0.0009
    124  CD2       31.9150   19.4130  -20.0970 C.ar  101  TYR101     -0.0009
    125  CE1       33.1070   17.1780  -21.2580 C.ar  101  TYR101      0.0417
    126  CE2       31.4450   18.1160  -19.7910 C.ar  101  TYR101      0.0417
    127  CZ        32.0330   17.0170  -20.3840 C.ar  101  TYR101      0.1957
    128  OH        31.5630   15.7460  -20.0900 O.3   101  TYR101     -0.2866
    129  N         31.4540   20.6040  -25.2600 N.3   106  SER106     -0.1217
    130  CA        31.3670   19.2200  -25.6920 C.3   106  SER106      0.1889
    131  C         30.1400   19.1170  -26.5810 C.2   106  SER106      0.2288
    132  O         29.0240   19.0430  -26.0970 O.2   106  SER106     -0.2866
    133  CB        31.2710   18.2870  -24.4780 C.3   106  SER106      0.2089
    134  OG        31.3690   16.9190  -24.8830 O.3   106  SER106     -0.2183
    135  N         25.7900   19.0700  -26.9090 N.3   109  LYS109     -0.1231
    136  CA        24.9730   19.5510  -25.8020 C.3   109  LYS109      0.1693
    137  C         25.6090   20.6190  -24.9160 C.2   109  LYS109      0.2591
    138  O         24.8910   21.4320  -24.3150 O.2   109  LYS109     -0.2718
    139  CB        24.5720   18.3740  -24.9180 C.3   109  LYS109      0.0285
    140  CG        23.6200   17.3900  -25.6130 C.3   109  LYS109      0.0035
    141  CD        23.2310   16.2910  -24.6230 C.3   109  LYS109      0.0206
    142  CE        22.4800   15.1380  -25.2750 C.3   109  LYS109      0.1093
    143  NZ        22.3900   14.0660  -24.2580 N.3   109  LYS109     -0.1314
    144  N         26.9290   20.6030  -24.7870 N.am  110  ILE110     -0.1980
    145  CA        27.5880   21.5250  -23.8320 C.3   110  ILE110      0.1595
    146  C         28.2900   22.6850  -24.5440 C.2   110  ILE110      0.2287
    147  O         29.2190   22.4500  -25.2990 O.2   110  ILE110     -0.2864
    148  CB        28.6440   20.7900  -22.9370 C.3   110  ILE110      0.0276
    149  CG1       28.1090   19.4650  -22.3670 C.3   110  ILE110      0.0022
    150  CG2       29.1880   21.7200  -21.8260 C.3   110  ILE110      0.0022
    151  CD1       26.9800   19.6300  -21.4540 C.3   110  ILE110      0.0001
    152  N         25.4300   18.9970  -11.2080 N.3   118  PHE118     -0.1241
    153  CA        25.1400   17.5690  -11.1000 C.3   118  PHE118      0.1605
    154  C         24.5460   17.2100   -9.7410 C.2   118  PHE118      0.2264
    155  O         24.9640   17.7600   -8.6800 O.2   118  PHE118     -0.2867
    156  CB        26.4070   16.6960  -11.2780 C.3   118  PHE118      0.0534
    157  CG        27.0260   16.7270  -12.6490 C.ar  118  PHE118     -0.0203
    158  CD1       26.7100   15.7500  -13.5700 C.ar  118  PHE118     -0.0042
    159  CD2       27.9860   17.6770  -12.9920 C.ar  118  PHE118     -0.0042
    160  CE1       27.2990   15.7470  -14.8420 C.ar  118  PHE118     -0.0003
    161  CE2       28.5890   17.6710  -14.2480 C.ar  118  PHE118     -0.0003
    162  CZ        28.2500   16.6990  -15.1710 C.ar  118  PHE118     -0.0000
@<TRIPOS>BOND
     1   135   136    1
     2   131   132    2
     3   131   130    1
     4   136   139    1
     5   136   137    1
     6   130   129    1
     7   130   133    1
     8   140   139    1
     9   140   141    1
    10   147   146    2
    11   142   141    1
    12   142   143    1
    13   137   144   am
    14   137   138    2
    15   134   133    1
    16   144   145    1
    17   146   145    1
    18   145   148    1
    19   148   149    1
    20   148   150    1
    21   149   151    1
    22   120   119    2
    23   123   125   ar
    24   123   122   ar
    25    16    15    2
    26   121   122    1
    27   121   118    1
    28   125   127   ar
    29   119   118    1
    30   122   124   ar
    31    17    14    1
    32    17    18    1
    33    14    15    1
    34    14    13    1
    35    15    24   am
    36   118   117    1
    37   127   128    1
    38   127   126   ar
    39    30    29   ar
    40   124   126   ar
    41    29    31   ar
    42    29    28    1
    43    18    19   ar
    44    18    20   ar
    45    28    25    1
    46    19    21   ar
    47    24    25    1
    48    25    26    1
    49   117   114   am
    50    20    22   ar
    51   115   114    2
    52    21    23   ar
    53   114   113    1
    54    68    67    2
    55    26    27    2
    56    12    11    1
    57    22    23   ar
    58    87    85    1
    59    64    63    2
    60    40    38   ar
    61    40    42   ar
    62    67    66    1
    63    67    74   am
    64    66    69    1
    65    66    65    1
    66    38    37   ar
    67    42    41   ar
    68   113   116    1
    69   113   112    1
    70    70    69    1
    71    70    71    1
    72    63    65   am
    73    63    62    1
    74    11     9   ar
    75    11    10   ar
    76    74    75    1
    77    85    82    1
    78    85    86    1
    79    75    76    1
    80    75    78    1
    81    73    71   am
    82    81    76   am
    83    81    82    1
    84    71    72    2
    85     9     7   ar
    86    76    77    2
    87    82    83    1
    88    46    45    2
    89    10     8   ar
    90    62    61    1
    91    88    86    1
    92    37    36    1
    93    37    39   ar
    94    41    39   ar
    95    79    78    1
    96   162   160   ar
    97   162   161   ar
    98    96    97    1
    99    96    95    1
   100    78    80    1
   101   160   158   ar
   102     7     6   ar
   103    36    33    1
   104    33    32    1
   105    33    34    1
   106    83    89   am
   107    83    84    2
   108    43    44    1
   109    43    34   am
   110    45    44    1
   111    45    50   am
   112    89    90    1
   113   161   159   ar
   114    95    94    1
   115    54    51    1
   116    54    55    1
   117    94    93    1
   118     8     6   ar
   119    47    44    1
   120    47    49    1
   121    47    48    1
   122    51    50    1
   123    51    52    1
   124    34    35    2
   125     6     5    1
   126     4     3    2
   127   158   157   ar
   128    93    90    1
   129    90    91    1
   130   159   157   ar
   131    55    56   ar
   132    55    57   ar
   133    52    53    2
   134     3     2    1
   135   157   156    1
   136   106   104   ar
   137   106   107   ar
   138   109   107   ar
   139   109   111   ar
   140    56    58   ar
   141   104   103   ar
   142   107   105   ar
   143    57    59   ar
   144   111   110   ar
   145     5     2    1
   146   103   105   ar
   147   103   102    1
   148   105   108   ar
   149   110   108   ar
   150   102    99    1
   151    91    92    2
   152     2     1    1
   153    58    60   ar
   154    59    60   ar
   155   156   153    1
   156    98    99    1
   157   152   153    1
   158   153   154    1
   159    99   100    1
   160   100   101    2
   161   154   155    2
