@<TRIPOS>MOLECULE
tmp/4droA00.pdb
 166 163 0 0 0
SMALL
GASTEIGER

@<TRIPOS>ATOM
      1  N         23.7530    9.7550  -11.6350 N.3    45  TYR45      -0.1241
      2  CA        23.8310   11.2110  -11.6770 C.3    45  TYR45       0.1605
      3  C         22.7910   11.7830  -12.5920 C.2    45  TYR45       0.2264
      4  O         22.2900   11.1120  -13.5030 O.2    45  TYR45      -0.2867
      5  CB        25.2240   11.7040  -12.1370 C.3    45  TYR45       0.0534
      6  CG        25.4980   11.4190  -13.5990 C.ar   45  TYR45      -0.0201
      7  CD1       25.1910   12.3530  -14.5890 C.ar   45  TYR45      -0.0009
      8  CD2       26.0100   10.1950  -14.0080 C.ar   45  TYR45      -0.0009
      9  CE1       25.3970   12.0550  -15.9540 C.ar   45  TYR45       0.0417
     10  CE2       26.2200    9.9070  -15.3620 C.ar   45  TYR45       0.0417
     11  CZ        25.9140   10.8430  -16.3250 C.ar   45  TYR45       0.1957
     12  OH        26.1460   10.5240  -17.6490 O.3    45  TYR45      -0.2866
     13  N         21.0870   17.8770  -19.4400 N.3    55  PHE55      -0.1227
     14  CA        21.8930   17.3590  -20.5310 C.3    55  PHE55       0.1736
     15  C         22.0860   15.8710  -20.4870 C.2    55  PHE55       0.2595
     16  O         22.3150   15.2870  -21.5350 O.2    55  PHE55      -0.2718
     17  CB        23.2110   18.1010  -20.7280 C.3    55  PHE55       0.0547
     18  CG        24.1470   18.0580  -19.5490 C.ar   55  PHE55      -0.0202
     19  CD1       25.0000   16.9690  -19.3080 C.ar   55  PHE55      -0.0042
     20  CD2       24.2300   19.1390  -18.7010 C.ar   55  PHE55      -0.0042
     21  CE1       25.8760   16.9910  -18.2410 C.ar   55  PHE55      -0.0003
     22  CE2       25.0970   19.1260  -17.6360 C.ar   55  PHE55      -0.0003
     23  CZ        25.9210   18.0640  -17.4190 C.ar   55  PHE55      -0.0000
     24  N         22.0110   15.2320  -19.3140 N.am   56  ASP56      -0.1974
     25  CA        22.1580   13.7810  -19.2520 C.3    56  ASP56       0.1709
     26  C         21.7910   13.2700  -17.8710 C.2    56  ASP56       0.2293
     27  O         21.8720   13.9840  -16.8760 O.2    56  ASP56      -0.2864
     28  CB        23.6000   13.3940  -19.5730 C.3    56  ASP56       0.1436
     29  CG        23.7450   11.9880  -20.0990 C.2    56  ASP56       0.3671
     30  OD1       23.3450   11.6880  -21.2540 O.co2  56  ASP56      -0.2456
     31  OD2       24.3360   11.1770  -19.4010 O.co2  56  ASP56      -0.2456
     32  N         18.9960    5.5470  -18.1390 N.3    61  ARG61      -0.1245
     33  CA        19.6120    4.4200  -18.8180 C.3    61  ARG61       0.1563
     34  C         19.4310    3.1160  -18.0470 C.2    61  ARG61       0.2260
     35  O         19.8150    2.0580  -18.5460 O.2    61  ARG61      -0.2867
     36  CB        21.1080    4.6730  -19.0640 C.3    61  ARG61       0.0307
     37  CG        21.3930    5.7660  -20.0800 C.3    61  ARG61       0.0489
     38  CD        22.8500    5.8290  -20.4740 C.3    61  ARG61       0.2205
     39  NE        23.7600    6.2810  -19.4040 N.pl3  61  ARG61      -0.0865
     40  CZ        24.1120    7.5450  -19.1770 C.cat  61  ARG61       0.5346
     41  NH1       23.5500    8.5100  -19.8700 N.pl3  61  ARG61       0.1354
     42  NH2       25.0100    7.8300  -18.2430 N.pl3  61  ARG61       0.1354
     43  N         26.8550    4.8060  -13.9780 N.3    65  PHE65      -0.1241
     44  CA        28.0600    5.2580  -14.6380 C.3    65  PHE65       0.1605
     45  C         29.2360    4.7380  -13.8140 C.2    65  PHE65       0.2264
     46  O         29.2730    4.8990  -12.5960 O.2    65  PHE65      -0.2867
     47  CB        28.0360    6.7830  -14.7390 C.3    65  PHE65       0.0534
     48  CG        29.2060    7.3520  -15.4690 C.ar   65  PHE65      -0.0203
     49  CD1       29.1830    7.4830  -16.8550 C.ar   65  PHE65      -0.0042
     50  CD2       30.3220    7.7820  -14.7770 C.ar   65  PHE65      -0.0042
     51  CE1       30.2640    8.0170  -17.5270 C.ar   65  PHE65      -0.0003
     52  CE2       31.4170    8.3080  -15.4520 C.ar   65  PHE65      -0.0003
     53  CZ        31.3960    8.4160  -16.8170 C.ar   65  PHE65      -0.0000
     54  N         33.5030    4.3120  -13.4470 N.3    67  PHE67      -0.1241
     55  CA        34.8400    4.7770  -13.8530 C.3    67  PHE67       0.1605
     56  C         35.8430    4.5090  -12.7620 C.2    67  PHE67       0.2264
     57  O         35.4740    4.1430  -11.6450 O.2    67  PHE67      -0.2867
     58  CB        34.8260    6.2690  -14.2350 C.3    67  PHE67       0.0534
     59  CG        34.6340    7.2250  -13.0900 C.ar   67  PHE67      -0.0203
     60  CD1       35.6940    7.9610  -12.5770 C.ar   67  PHE67      -0.0042
     61  CD2       33.3680    7.4480  -12.5680 C.ar   67  PHE67      -0.0042
     62  CE1       35.4950    8.8780  -11.5420 C.ar   67  PHE67      -0.0003
     63  CE2       33.1830    8.3550  -11.5500 C.ar   67  PHE67      -0.0003
     64  CZ        34.2620    9.0570  -11.0360 C.ar   67  PHE67      -0.0000
     65  N         41.7370   10.7320  -14.2850 N.3    72  GLY72      -0.1210
     66  CA        41.4590   11.5980  -15.4270 C.3    72  GLY72       0.1956
     67  C         40.5230   10.9690  -16.4360 C.2    72  GLY72       0.2612
     68  O         40.5820   11.3090  -17.6270 O.2    72  GLY72      -0.2717
     69  N         39.6660   10.0540  -15.9910 N.am   73  GLN73      -0.1965
     70  CA        38.6650    9.4580  -16.8810 C.3    73  GLN73       0.1733
     71  C         37.3940   10.2670  -17.0040 C.2    73  GLN73       0.2616
     72  O         36.5460    9.9700  -17.8160 O.2    73  GLN73      -0.2715
     73  CB        38.3150    8.0450  -16.4350 C.3    73  GLN73       0.0408
     74  CG        39.5030    7.1240  -16.5100 C.3    73  GLN73       0.0908
     75  CD        39.2210    5.6940  -16.1280 C.2    73  GLN73       0.2608
     76  OE1       38.0800    5.3030  -15.7680 O.2    73  GLN73      -0.2717
     77  NE2       40.2630    4.8650  -16.2440 N.am   73  GLN73      -0.0878
     78  N         37.2560   11.2630  -16.1400 N.am   74  VAL74      -0.1963
     79  CA        36.1190   12.1650  -16.0840 C.3    74  VAL74       0.1727
     80  C         36.6530   13.5750  -15.8650 C.2    74  VAL74       0.2616
     81  O         37.8510   13.7760  -15.5690 O.2    74  VAL74      -0.2715
     82  CB        35.1780   11.7890  -14.9080 C.3    74  VAL74       0.0290
     83  CG1       34.5120   10.4360  -15.1490 C.3    74  VAL74       0.0023
     84  CG2       35.9550   11.7920  -13.5640 C.3    74  VAL74       0.0023
     85  N         35.7690   14.5610  -16.0090 N.am   75  ILE75      -0.1963
     86  CA        36.1410   15.9500  -15.7580 C.3    75  ILE75       0.1727
     87  C         36.6900   16.1300  -14.3440 C.2    75  ILE75       0.2616
     88  O         36.3880   15.3760  -13.4110 O.2    75  ILE75      -0.2715
     89  CB        34.9750   16.9280  -16.0170 C.3    75  ILE75       0.0290
     90  CG1       33.7170   16.5740  -15.1960 C.3    75  ILE75       0.0022
     91  CG2       34.6800   16.9550  -17.5100 C.3    75  ILE75       0.0023
     92  CD1       32.6570   17.6730  -15.1690 C.3    75  ILE75       0.0001
     93  N         37.5300   17.1480  -14.1910 N.am   76  LYS76      -0.1977
     94  CA        38.2610   17.3460  -12.9360 C.3    76  LYS76       0.1596
     95  C         37.3250   17.4490  -11.7490 C.2    76  LYS76       0.2287
     96  O         37.6020   16.8830  -10.6870 O.2    76  LYS76      -0.2864
     97  CB        39.1290   18.5920  -13.0240 C.3    76  LYS76       0.0298
     98  CG        40.3010   18.4880  -13.9860 C.3    76  LYS76       0.0038
     99  CD        40.9530   19.8370  -14.1960 C.3    76  LYS76       0.0206
    100  CE        42.2120   19.7650  -15.0310 C.3    76  LYS76       0.1093
    101  NZ        42.9330   21.0730  -14.9580 N.3    76  LYS76      -0.1314
    102  N         34.6090   16.0330  -11.1270 N.3    78  TRP78      -0.1241
    103  CA        34.1460   14.7200  -10.6950 C.3    78  TRP78       0.1605
    104  C         35.2290   13.9220   -9.9780 C.2    78  TRP78       0.2264
    105  O         34.9420   13.2600   -8.9740 O.2    78  TRP78      -0.2867
    106  CB        33.5980   13.9210  -11.8830 C.3    78  TRP78       0.0550
    107  CG        32.1450   14.0830  -12.1300 C.ar   78  TRP78       0.0003
    108  CD1       31.4460   15.2220  -12.3370 C.ar   78  TRP78       0.0946
    109  CD2       31.2130   13.0270  -12.1440 C.ar   78  TRP78       0.0152
    110  NE1       30.1040   14.9240  -12.5270 N.ar   78  TRP78      -0.2442
    111  CE2       29.9510   13.5740  -12.3990 C.ar   78  TRP78       0.0810
    112  CE3       31.3400   11.6590  -11.9720 C.ar   78  TRP78       0.0012
    113  CZ2       28.8070   12.7830  -12.5060 C.ar   78  TRP78       0.0191
    114  CZ3       30.2190   10.8610  -12.0570 C.ar   78  TRP78       0.0001
    115  CH2       28.9570   11.4260  -12.3280 C.ar   78  TRP78       0.0015
    116  N         35.5590   21.5460  -15.6730 N.3   100  ALA100     -0.1231
    117  CA        34.5980   20.8110  -16.5010 C.3   100  ALA100      0.1694
    118  C         35.0890   20.8210  -17.9480 C.2   100  ALA100      0.2592
    119  O         36.1900   20.2810  -18.2080 O.2   100  ALA100     -0.2718
    120  CB        33.1710   21.3550  -16.3040 C.3   100  ALA100      0.0304
    121  N         34.3560   21.4240  -18.8960 N.am  101  TYR101     -0.1976
    122  CA        34.7080   21.3310  -20.3240 C.3   101  TYR101      0.1639
    123  C         35.3440   22.6040  -20.8530 C.2   101  TYR101      0.2290
    124  O         35.6170   22.6980  -22.0660 O.2   101  TYR101     -0.2864
    125  CB        33.4930   20.9480  -21.1510 C.3   101  TYR101      0.0560
    126  CG        32.9770   19.5810  -20.8370 C.ar  101  TYR101     -0.0198
    127  CD1       33.5410   18.4560  -21.4180 C.ar  101  TYR101     -0.0009
    128  CD2       31.9420   19.4040  -19.9310 C.ar  101  TYR101     -0.0009
    129  CE1       33.0710   17.1860  -21.1240 C.ar  101  TYR101      0.0417
    130  CE2       31.4770   18.1340  -19.6270 C.ar  101  TYR101      0.0417
    131  CZ        32.0650   17.0260  -20.2190 C.ar  101  TYR101      0.1957
    132  OH        31.6280   15.7480  -19.9700 O.3   101  TYR101     -0.2866
    133  N         31.3190   20.4530  -24.9360 N.3   106  SER106     -0.1217
    134  CA        31.1910   19.0630  -25.3290 C.3   106  SER106      0.1889
    135  C         30.0540   19.0190  -26.3240 C.2   106  SER106      0.2288
    136  O         28.9080   19.1650  -25.9530 O.2   106  SER106     -0.2866
    137  CB        30.9490   18.1630  -24.1190 C.3   106  SER106      0.2089
    138  OG        30.9860   16.8030  -24.5360 O.3   106  SER106     -0.2183
    139  N         25.7410   19.3340  -26.8750 N.3   109  LYS109     -0.1231
    140  CA        24.8720   19.7920  -25.7730 C.3   109  LYS109      0.1693
    141  C         25.4800   20.8020  -24.8070 C.2   109  LYS109      0.2591
    142  O         24.7530   21.6400  -24.2780 O.2   109  LYS109     -0.2718
    143  CB        24.3410   18.6190  -24.9450 C.3   109  LYS109      0.0285
    144  CG        23.3580   17.7090  -25.6780 C.3   109  LYS109      0.0035
    145  CD        22.8160   16.6860  -24.7020 C.3   109  LYS109      0.0206
    146  CE        21.7690   15.7660  -25.3210 C.3   109  LYS109      0.1093
    147  NZ        21.1470   14.9280  -24.2520 N.3   109  LYS109     -0.1314
    148  N         26.7870   20.7220  -24.5680 N.am  110  ILE110     -0.1980
    149  CA        27.3950   21.5770  -23.5330 C.3   110  ILE110      0.1595
    150  C         28.1600   22.6740  -24.2240 C.2   110  ILE110      0.2287
    151  O         29.1100   22.4090  -24.9690 O.2   110  ILE110     -0.2864
    152  CB        28.2980   20.7820  -22.5680 C.3   110  ILE110      0.0276
    153  CG1       27.4570   19.7220  -21.8390 C.3   110  ILE110      0.0022
    154  CG2       29.0050   21.7020  -21.5800 C.3   110  ILE110      0.0022
    155  CD1       28.2690   18.8150  -20.8950 C.3   110  ILE110      0.0001
    156  N         25.4920   19.0770  -11.0570 N.3   118  PHE118     -0.1241
    157  CA        25.2020   17.6490  -10.9800 C.3   118  PHE118      0.1605
    158  C         24.6080   17.2920   -9.6260 C.2   118  PHE118      0.2264
    159  O         25.0440   17.7970   -8.5770 O.2   118  PHE118     -0.2867
    160  CB        26.4840   16.7950  -11.1320 C.3   118  PHE118      0.0534
    161  CG        27.0870   16.7820  -12.5170 C.ar  118  PHE118     -0.0203
    162  CD1       26.7040   15.8460  -13.4700 C.ar  118  PHE118     -0.0042
    163  CD2       28.0670   17.7040  -12.8700 C.ar  118  PHE118     -0.0042
    164  CE1       27.3130   15.7880  -14.7340 C.ar  118  PHE118     -0.0003
    165  CE2       28.6780   17.6440  -14.1210 C.ar  118  PHE118     -0.0003
    166  CZ        28.2740   16.7210  -15.0670 C.ar  118  PHE118     -0.0000
@<TRIPOS>BOND
     1   139   140    1
     2   135   136    2
     3   135   134    1
     4   140   143    1
     5   140   141    1
     6   144   143    1
     7   144   145    1
     8   134   133    1
     9   134   137    1
    10   146   145    1
    11   146   147    1
    12   151   150    2
    13   141   148   am
    14   141   142    2
    15   148   149    1
    16   138   137    1
    17   150   149    1
    18   149   152    1
    19   152   153    1
    20   152   154    1
    21   124   123    2
    22   153   155    1
    23    16    15    2
    24   127   129   ar
    25   127   126   ar
    26    30    29   ar
    27   125   126    1
    28   125   122    1
    29   129   131   ar
    30   123   122    1
    31   126   128   ar
    32    17    14    1
    33    17    18    1
    34    14    15    1
    35    14    13    1
    36    15    24   am
    37    38    37    1
    38    38    39    1
    39   122   121    1
    40   131   132    1
    41   131   130   ar
    42    29    28    1
    43    29    31   ar
    44    37    36    1
    45   128   130   ar
    46    41    40    1
    47    28    25    1
    48    18    19   ar
    49    18    20   ar
    50    39    40    2
    51    24    25    1
    52    19    21   ar
    53    25    26    1
    54    40    42    1
    55    36    33    1
    56   121   118   am
    57    33    32    1
    58    33    34    1
    59    20    22   ar
    60    35    34    2
    61    21    23   ar
    62   119   118    2
    63   118   117    1
    64    26    27    2
    65    72    71    2
    66    12    11    1
    67    22    23   ar
    68    68    67    2
    69    51    49   ar
    70    51    53   ar
    71    91    89    1
    72    71    70    1
    73    71    78   am
    74    70    73    1
    75    70    69    1
    76    49    48   ar
    77    53    52   ar
    78    74    73    1
    79    74    75    1
    80   117   120    1
    81   117   116    1
    82    67    69   am
    83    67    66    1
    84    11     9   ar
    85    11    10   ar
    86    77    75   am
    87    78    79    1
    88    75    76    2
    89    79    80    1
    90    79    82    1
    91    89    86    1
    92    89    90    1
    93    85    80   am
    94    85    86    1
    95     9     7   ar
    96    80    81    2
    97    86    87    1
    98    48    50   ar
    99    48    47    1
   100    52    50   ar
   101    66    65    1
   102    10     8   ar
   103    90    92    1
   104    83    82    1
   105   166   164   ar
   106   166   165   ar
   107   100   101    1
   108   100    99    1
   109    82    84    1
   110    47    44    1
   111   164   162   ar
   112    44    43    1
   113    44    45    1
   114     7     6   ar
   115    87    93   am
   116    87    88    2
   117    58    55    1
   118    58    59    1
   119    99    98    1
   120    93    94    1
   121   165   163   ar
   122     8     6   ar
   123    98    97    1
   124    55    54    1
   125    55    56    1
   126    45    46    2
   127     6     5    1
   128     4     3    2
   129   162   161   ar
   130    59    60   ar
   131    59    61   ar
   132    97    94    1
   133    94    95    1
   134   163   161   ar
   135    56    57    2
   136     3     2    1
   137    60    62   ar
   138    61    63   ar
   139   110   111   ar
   140   110   108   ar
   141   161   160    1
   142   113   111   ar
   143   113   115   ar
   144   111   109   ar
   145   108   107   ar
   146   115   114   ar
   147   109   107   ar
   148   109   112   ar
   149     5     2    1
   150   107   106    1
   151   114   112   ar
   152   106   103    1
   153    95    96    2
   154     2     1    1
   155    63    64   ar
   156    62    64   ar
   157   160   157    1
   158   102   103    1
   159   156   157    1
   160   157   158    1
   161   103   104    1
   162   104   105    2
   163   158   159    2
