@<TRIPOS>MOLECULE
tmp/4drqA00.pdb
 163 161 0 0 0
SMALL
GASTEIGER

@<TRIPOS>ATOM
      1  N          2.4890  -17.8760  -11.3470 N.3    45  TYR45      -0.1241
      2  CA         2.5850  -16.4420  -11.4420 C.3    45  TYR45       0.1605
      3  C          1.5870  -15.8700  -12.4210 C.2    45  TYR45       0.2264
      4  O          1.0530  -16.5540  -13.2990 O.2    45  TYR45      -0.2867
      5  CB         3.9880  -16.0020  -11.8990 C.3    45  TYR45       0.0534
      6  CG         4.2890  -16.3230  -13.3530 C.ar   45  TYR45      -0.0201
      7  CD1        4.1800  -15.3520  -14.3410 C.ar   45  TYR45      -0.0009
      8  CD2        4.6810  -17.6050  -13.7370 C.ar   45  TYR45      -0.0009
      9  CE1        4.4460  -15.6660  -15.6870 C.ar   45  TYR45       0.0417
     10  CE2        4.9600  -17.9080  -15.0550 C.ar   45  TYR45       0.0417
     11  CZ         4.8170  -16.9470  -16.0300 C.ar   45  TYR45       0.1957
     12  OH         5.1110  -17.3060  -17.3240 O.3    45  TYR45      -0.2866
     13  N         -0.3440   -9.9450  -19.1920 N.3    55  PHE55      -0.1227
     14  CA         0.3860  -10.4490  -20.3510 C.3    55  PHE55       0.1736
     15  C          0.7920  -11.9090  -20.2290 C.2    55  PHE55       0.2595
     16  O          1.1830  -12.5110  -21.2310 O.2    55  PHE55      -0.2718
     17  CB         1.6010   -9.5620  -20.7010 C.3    55  PHE55       0.0547
     18  CG         2.7190   -9.6160  -19.6940 C.ar   55  PHE55      -0.0202
     19  CD1        3.7260  -10.5590  -19.8020 C.ar   55  PHE55      -0.0042
     20  CD2        2.7550   -8.7270  -18.6290 C.ar   55  PHE55      -0.0042
     21  CE1        4.7380  -10.5970  -18.8770 C.ar   55  PHE55      -0.0003
     22  CE2        3.7820   -8.7690  -17.7030 C.ar   55  PHE55      -0.0003
     23  CZ         4.7680   -9.7220  -17.8290 C.ar   55  PHE55      -0.0000
     24  N          0.7340  -12.5060  -19.0420 N.am   56  ASP56      -0.1974
     25  CA         1.0770  -13.9100  -18.9180 C.3    56  ASP56       0.1709
     26  C          0.5100  -14.4440  -17.6050 C.2    56  ASP56       0.2293
     27  O          0.2730  -13.6970  -16.6510 O.2    56  ASP56      -0.2864
     28  CB         2.6080  -14.0520  -18.9300 C.3    56  ASP56       0.1436
     29  CG         3.1060  -15.4390  -19.2140 C.2    56  ASP56       0.3671
     30  OD1        2.3110  -16.3310  -19.5390 O.co2  56  ASP56      -0.2456
     31  OD2        4.3470  -15.6370  -19.1300 O.co2  56  ASP56      -0.2456
     32  N         -2.3730  -21.8900  -17.7570 N.3    61  ARG61      -0.1245
     33  CA        -1.8040  -23.0610  -18.4380 C.3    61  ARG61       0.1563
     34  C         -1.9720  -24.3560  -17.6520 C.2    61  ARG61       0.2260
     35  O         -1.6140  -25.4190  -18.1500 O.2    61  ARG61      -0.2867
     36  CB        -0.3070  -22.8510  -18.7130 C.3    61  ARG61       0.0307
     37  CG        -0.0190  -21.8410  -19.7770 C.3    61  ARG61       0.0489
     38  CD         1.4530  -21.7860  -20.1590 C.3    61  ARG61       0.2205
     39  NE         2.3030  -21.2520  -19.1070 N.pl3  61  ARG61      -0.0865
     40  CZ         2.6870  -20.0010  -18.9710 C.cat  61  ARG61       0.5346
     41  NH1        2.2920  -19.1070  -19.8560 N.pl3  61  ARG61       0.1354
     42  NH2        3.4740  -19.6620  -17.9470 N.pl3  61  ARG61       0.1354
     43  N          5.5690  -22.8620  -13.6430 N.3    65  PHE65      -0.1227
     44  CA         6.7900  -22.5110  -14.3290 C.3    65  PHE65       0.1736
     45  C          7.9650  -22.9830  -13.4880 C.2    65  PHE65       0.2595
     46  O          7.9930  -22.7450  -12.2730 O.2    65  PHE65      -0.2718
     47  CB         6.8160  -21.0020  -14.5440 C.3    65  PHE65       0.0547
     48  CG         8.0040  -20.5300  -15.3010 C.ar   65  PHE65      -0.0202
     49  CD1        8.0550  -20.6290  -16.6790 C.ar   65  PHE65      -0.0042
     50  CD2        9.0870  -19.9740  -14.6590 C.ar   65  PHE65      -0.0042
     51  CE1        9.1810  -20.2050  -17.3890 C.ar   65  PHE65      -0.0003
     52  CE2       10.2080  -19.5570  -15.3610 C.ar   65  PHE65      -0.0003
     53  CZ        10.2540  -19.6690  -16.7120 C.ar   65  PHE65      -0.0000
     54  N          8.9230  -23.6490  -14.1230 N.am   66  VAL66      -0.1966
     55  CA        10.0030  -24.3200  -13.4290 C.3    66  VAL66       0.1727
     56  C         11.3140  -23.7860  -13.9860 C.2    66  VAL66       0.2616
     57  O         11.5080  -23.7240  -15.1990 O.2    66  VAL66      -0.2715
     58  CB         9.8910  -25.8490  -13.6060 C.3    66  VAL66       0.0290
     59  CG1       10.9970  -26.5650  -12.8540 C.3    66  VAL66       0.0023
     60  CG2        8.5280  -26.3450  -13.1460 C.3    66  VAL66       0.0023
     61  N         12.2250  -23.3950  -13.1040 N.am   67  PHE67      -0.1974
     62  CA        13.5300  -22.9180  -13.5550 C.3    67  PHE67       0.1639
     63  C         14.5720  -23.1780  -12.4840 C.2    67  PHE67       0.2290
     64  O         14.2420  -23.4980  -11.3510 O.2    67  PHE67      -0.2864
     65  CB        13.4950  -21.4290  -13.9910 C.3    67  PHE67       0.0560
     66  CG        13.2950  -20.4310  -12.8690 C.ar   67  PHE67      -0.0200
     67  CD1       14.3670  -19.6990  -12.3740 C.ar   67  PHE67      -0.0042
     68  CD2       12.0350  -20.2030  -12.3280 C.ar   67  PHE67      -0.0042
     69  CE1       14.1970  -18.7590  -11.3810 C.ar   67  PHE67      -0.0003
     70  CE2       11.8700  -19.2460  -11.3480 C.ar   67  PHE67      -0.0003
     71  CZ        12.9470  -18.5290  -10.8720 C.ar   67  PHE67      -0.0000
     72  N         18.2500  -17.6810  -16.0530 N.3    73  GLN73      -0.1231
     73  CA        17.2520  -18.3040  -16.9220 C.3    73  GLN73       0.1698
     74  C         16.0030  -17.4710  -17.0400 C.2    73  GLN73       0.2592
     75  O         15.1670  -17.7200  -17.9100 O.2    73  GLN73      -0.2718
     76  CB        16.8820  -19.6870  -16.4270 C.3    73  GLN73       0.0381
     77  CG        18.0220  -20.6350  -16.5140 C.3    73  GLN73       0.0905
     78  CD        17.6850  -22.0350  -16.0490 C.2    73  GLN73       0.2608
     79  OE1       16.5860  -22.3270  -15.5720 O.2    73  GLN73      -0.2717
     80  NE2       18.6570  -22.9280  -16.2010 N.am   73  GLN73      -0.0878
     81  N         15.8750  -16.4960  -16.1420 N.am   74  VAL74      -0.1966
     82  CA        14.7380  -15.6040  -16.0530 C.3    74  VAL74       0.1727
     83  C         15.2710  -14.1880  -15.8960 C.2    74  VAL74       0.2616
     84  O         16.4730  -13.9750  -15.7030 O.2    74  VAL74      -0.2715
     85  CB        13.8530  -15.9520  -14.8310 C.3    74  VAL74       0.0290
     86  CG1       13.1740  -17.3080  -15.0420 C.3    74  VAL74       0.0023
     87  CG2       14.6790  -15.9440  -13.5300 C.3    74  VAL74       0.0023
     88  N         14.3920  -13.1980  -15.9690 N.am   75  ILE75      -0.1977
     89  CA        14.8090  -11.8090  -15.7470 C.3    75  ILE75       0.1596
     90  C         15.4420  -11.6370  -14.3570 C.2    75  ILE75       0.2287
     91  O         15.1460  -12.3740  -13.4030 O.2    75  ILE75      -0.2864
     92  CB        13.6460  -10.8000  -15.9630 C.3    75  ILE75       0.0276
     93  CG1       12.4590  -11.1060  -15.0560 C.3    75  ILE75       0.0022
     94  CG2       13.2430  -10.7630  -17.4340 C.3    75  ILE75       0.0022
     95  CD1       11.4040  -10.0510  -15.1000 C.3    75  ILE75       0.0001
     96  N         13.3920  -11.6540  -11.1570 N.3    78  TRP78      -0.1241
     97  CA        12.9210  -12.9470  -10.6880 C.3    78  TRP78       0.1605
     98  C         14.0160  -13.7130   -9.9610 C.2    78  TRP78       0.2264
     99  O         13.7520  -14.3260   -8.9200 O.2    78  TRP78      -0.2867
    100  CB        12.3790  -13.7740  -11.8450 C.3    78  TRP78       0.0550
    101  CG        10.9250  -13.5790  -12.1100 C.ar   78  TRP78       0.0003
    102  CD1       10.2210  -12.4230  -12.3020 C.ar   78  TRP78       0.0946
    103  CD2       10.0010  -14.6450  -12.2210 C.ar   78  TRP78       0.0152
    104  NE1        8.9010  -12.7260  -12.5250 N.ar   78  TRP78      -0.2442
    105  CE2        8.7410  -14.0850  -12.4740 C.ar   78  TRP78       0.0810
    106  CE3       10.1190  -16.0280  -12.0870 C.ar   78  TRP78       0.0012
    107  CZ2        7.6020  -14.8690  -12.5850 C.ar   78  TRP78       0.0191
    108  CZ3        9.0080  -16.8050  -12.2050 C.ar   78  TRP78       0.0001
    109  CH2        7.7650  -16.2390  -12.4570 C.ar   78  TRP78       0.0015
    110  N         13.3000   -6.3460  -19.0740 N.3   101  TYR101     -0.1241
    111  CA        13.6570   -6.4010  -20.4960 C.3   101  TYR101      0.1605
    112  C         14.2470   -5.1070  -21.0400 C.2   101  TYR101      0.2264
    113  O         14.5200   -5.0240  -22.2480 O.2   101  TYR101     -0.2867
    114  CB        12.4510   -6.8700  -21.3400 C.3   101  TYR101      0.0534
    115  CG        12.0510   -8.2660  -20.9790 C.ar  101  TYR101     -0.0201
    116  CD1       12.7090   -9.3540  -21.5430 C.ar  101  TYR101     -0.0009
    117  CD2       11.0420   -8.5170  -20.0570 C.ar  101  TYR101     -0.0009
    118  CE1       12.3740  -10.6490  -21.2000 C.ar  101  TYR101      0.0417
    119  CE2       10.7060   -9.8170  -19.7040 C.ar  101  TYR101      0.0417
    120  CZ        11.3830  -10.8580  -20.2740 C.ar  101  TYR101      0.1957
    121  OH        11.0540  -12.1500  -19.9150 O.3   101  TYR101     -0.2866
    122  N         10.4870   -7.1820  -25.2940 N.3   106  SER106     -0.1202
    123  CA        10.4610   -8.5520  -25.7800 C.3   106  SER106      0.2020
    124  C          9.1670   -8.7320  -26.5400 C.2   106  SER106      0.2618
    125  O          8.0830   -8.8400  -25.9760 O.2   106  SER106     -0.2717
    126  CB        10.5910   -9.5790  -24.6700 C.3   106  SER106      0.2103
    127  OG        10.7630  -10.8760  -25.2380 O.3   106  SER106     -0.2182
    128  N          9.3260   -8.7120  -27.8670 N.am  107  LEU107     -0.1979
    129  CA         8.2260   -8.7540  -28.8150 C.3   107  LEU107      0.1596
    130  C          7.6150  -10.1420  -28.8580 C.2   107  LEU107      0.2287
    131  O          8.3340  -11.1350  -28.7770 O.2   107  LEU107     -0.2864
    132  CB         8.7110   -8.4210  -30.2360 C.3   107  LEU107      0.0297
    133  CG         9.1310   -6.9950  -30.5820 C.3   107  LEU107      0.0022
    134  CD1        9.6440   -6.9090  -32.0200 C.3   107  LEU107      0.0001
    135  CD2        7.9690   -6.0660  -30.3700 C.3   107  LEU107      0.0001
    136  N          4.8890   -9.0050  -26.7540 N.3   109  LYS109     -0.1231
    137  CA         4.0730   -8.5690  -25.6170 C.3   109  LYS109      0.1693
    138  C          4.6360   -7.4040  -24.7810 C.2   109  LYS109      0.2591
    139  O          3.8730   -6.5950  -24.2370 O.2   109  LYS109     -0.2718
    140  CB         3.8050   -9.7580  -24.6850 C.3   109  LYS109      0.0285
    141  CG         3.0300  -10.9220  -25.3020 C.3   109  LYS109      0.0035
    142  CD         2.6250  -11.9230  -24.2200 C.3   109  LYS109      0.0206
    143  CE         1.7970  -13.0730  -24.7830 C.3   109  LYS109      0.1093
    144  NZ         1.3820  -14.0410  -23.7270 N.3   109  LYS109     -0.1314
    145  N          5.9580   -7.2960  -24.6840 N.am  110  ILE110     -0.1980
    146  CA         6.5630   -6.4090  -23.6900 C.3   110  ILE110      0.1595
    147  C          7.2290   -5.2310  -24.3880 C.2   110  ILE110      0.2287
    148  O          8.1780   -5.4220  -25.1520 O.2   110  ILE110     -0.2864
    149  CB         7.5320   -7.1770  -22.7700 C.3   110  ILE110      0.0276
    150  CG1        6.7190   -8.2720  -22.0330 C.3   110  ILE110      0.0022
    151  CG2        8.2200   -6.2400  -21.7780 C.3   110  ILE110      0.0022
    152  CD1        7.5220   -9.1930  -21.2000 C.3   110  ILE110      0.0001
    153  N          4.3570   -8.5430  -11.0400 N.3   118  PHE118     -0.1241
    154  CA         4.0550   -9.9640  -10.9100 C.3   118  PHE118      0.1605
    155  C          3.4480  -10.2830   -9.5620 C.2   118  PHE118      0.2264
    156  O          3.8630   -9.7310   -8.5310 O.2   118  PHE118     -0.2867
    157  CB         5.3050  -10.8370  -11.0490 C.3   118  PHE118      0.0534
    158  CG         5.9580  -10.7730  -12.3930 C.ar  118  PHE118     -0.0203
    159  CD1        5.5730  -11.6370  -13.4190 C.ar  118  PHE118     -0.0042
    160  CD2        6.9640   -9.8650  -12.6410 C.ar  118  PHE118     -0.0042
    161  CE1        6.1830  -11.5990  -14.6710 C.ar  118  PHE118     -0.0003
    162  CE2        7.5730   -9.8130  -13.9030 C.ar  118  PHE118     -0.0003
    163  CZ         7.2070  -10.7080  -14.8990 C.ar  118  PHE118     -0.0000
@<TRIPOS>BOND
     1   134   133    1
     2   133   135    1
     3   133   132    1
     4   132   129    1
     5   130   129    1
     6   130   131    2
     7   129   128    1
     8   128   124   am
     9   136   137    1
    10   124   125    2
    11   124   123    1
    12   123   122    1
    13   123   126    1
    14   137   138    1
    15   137   140    1
    16   141   140    1
    17   141   142    1
    18   127   126    1
    19   148   147    2
    20   143   142    1
    21   143   144    1
    22   138   145   am
    23   138   139    2
    24   145   146    1
    25   147   146    1
    26   146   149    1
    27   149   150    1
    28   149   151    1
    29   113   112    2
    30   150   152    1
    31   116   118   ar
    32   116   115   ar
    33   114   115    1
    34   114   111    1
    35    16    15    2
    36   118   120   ar
    37   112   111    1
    38   115   117   ar
    39    17    14    1
    40    17    18    1
    41   111   110    1
    42    14    15    1
    43    14    13    1
    44   120   121    1
    45   120   119   ar
    46    15    24   am
    47    38    37    1
    48    38    39    1
    49   117   119   ar
    50    41    40    1
    51    19    18   ar
    52    19    21   ar
    53    37    36    1
    54    18    20   ar
    55    30    29   ar
    56    29    31   ar
    57    29    28    1
    58    39    40    2
    59    24    25    1
    60    40    42    1
    61    28    25    1
    62    25    26    1
    63    21    23   ar
    64    36    33    1
    65    20    22   ar
    66    33    32    1
    67    33    34    1
    68    35    34    2
    69    75    74    2
    70    23    22   ar
    71    26    27    2
    72    94    92    1
    73    51    53   ar
    74    51    49   ar
    75    12    11    1
    76    74    73    1
    77    74    81   am
    78    73    76    1
    79    73    72    1
    80    53    52   ar
    81    49    48   ar
    82    77    76    1
    83    77    78    1
    84    80    78   am
    85    81    82    1
    86    82    83    1
    87    82    85    1
    88    78    79    2
    89    11     9   ar
    90    11    10   ar
    91    88    83   am
    92    88    89    1
    93    92    89    1
    94    92    93    1
    95    83    84    2
    96    89    90    1
    97     9     7   ar
    98    52    50   ar
    99    48    50   ar
   100    48    47    1
   101    57    56    2
   102    95    93    1
   103    10     8   ar
   104    86    85    1
   105   163   161   ar
   106   163   162   ar
   107    85    87    1
   108   161   159   ar
   109    47    44    1
   110    90    91    2
   111     7     6   ar
   112    44    43    1
   113    44    45    1
   114    54    45   am
   115    54    55    1
   116    65    62    1
   117    65    66    1
   118    56    55    1
   119    56    61   am
   120   162   160   ar
   121     8     6   ar
   122    58    55    1
   123    58    60    1
   124    58    59    1
   125    62    61    1
   126    62    63    1
   127    45    46    2
   128   159   158   ar
   129     6     5    1
   130     4     3    2
   131    66    67   ar
   132    66    68   ar
   133   160   158   ar
   134   107   105   ar
   135   107   109   ar
   136   104   105   ar
   137   104   102   ar
   138    63    64    2
   139   105   103   ar
   140   109   108   ar
   141     3     2    1
   142   158   157    1
   143    67    69   ar
   144    68    70   ar
   145   102   101   ar
   146   103   101   ar
   147   103   106   ar
   148   108   106   ar
   149   101   100    1
   150     5     2    1
   151   100    97    1
   152     2     1    1
   153    69    71   ar
   154    70    71   ar
   155    96    97    1
   156   157   154    1
   157   153   154    1
   158   154   155    1
   159    97    98    1
   160    98    99    2
   161   155   156    2
