@<TRIPOS>MOLECULE
tmp/4druA00.pdb
 167 162 0 0 0
SMALL
GASTEIGER

@<TRIPOS>ATOM
      1  N         72.6760   -4.6800  -33.5910 N.3    21  LEU21      -0.1245
      2  CA        73.9600   -5.0520  -34.1930 C.3    21  LEU21       0.1561
      3  C         73.8060   -5.1610  -35.7150 C.2    21  LEU21       0.2260
      4  O         72.6960   -5.3960  -36.2090 O.2    21  LEU21      -0.2867
      5  CB        74.4800   -6.3790  -33.6220 C.3    21  LEU21       0.0270
      6  CG        75.1890   -6.3320  -32.2670 C.3    21  LEU21       0.0019
      7  CD1       75.6620   -7.7160  -31.8580 C.3    21  LEU21       0.0001
      8  CD2       76.3690   -5.3800  -32.3050 C.3    21  LEU21       0.0001
      9  N         72.8110  -15.4820  -30.6140 N.3    23  HIS23      -0.1226
     10  CA        71.5610  -14.7660  -30.8850 C.3    23  HIS23       0.1752
     11  C         71.7560  -13.2480  -30.7210 C.2    23  HIS23       0.2596
     12  O         71.7890  -12.7260  -29.5950 O.2    23  HIS23      -0.2718
     13  CB        70.4140  -15.2570  -29.9750 C.3    23  HIS23       0.0759
     14  CG        70.3440  -16.7490  -29.8140 C.ar   23  HIS23       0.0818
     15  ND1       70.7990  -17.6310  -30.7710 N.ar   23  HIS23      -0.2268
     16  CD2       69.8500  -17.5100  -28.8080 C.ar   23  HIS23       0.1154
     17  CE1       70.6050  -18.8690  -30.3530 C.ar   23  HIS23       0.1986
     18  NE2       70.0300  -18.8230  -29.1650 N.ar   23  HIS23      -0.2212
     19  N         71.8880  -12.5520  -31.8530 N.am   24  HIS24      -0.1975
     20  CA        72.1530  -11.1010  -31.8650 C.3    24  HIS24       0.1656
     21  C         70.8760  -10.2460  -31.8750 C.2    24  HIS24       0.2291
     22  O         70.9390   -9.0410  -31.6260 O.2    24  HIS24      -0.2864
     23  CB        73.0860  -10.7110  -33.0360 C.3    24  HIS24       0.0771
     24  CG        72.5100  -10.9510  -34.4050 C.ar   24  HIS24       0.0820
     25  ND1       72.5890  -12.1700  -35.0460 N.ar   24  HIS24      -0.2267
     26  CD2       71.8800  -10.1150  -35.2660 C.ar   24  HIS24       0.1154
     27  CE1       72.0140  -12.0810  -36.2330 C.ar   24  HIS24       0.1986
     28  NE2       71.5770  -10.8450  -36.3920 N.ar   24  HIS24      -0.2212
     29  N         68.8090  -10.4170  -29.6940 N.3    26  MET26      -0.1230
     30  CA        68.6080  -10.1760  -28.2710 C.3    26  MET26       0.1702
     31  C         69.3250   -8.9160  -27.7750 C.2    26  MET26       0.2592
     32  O         68.9480   -8.3710  -26.7410 O.2    26  MET26      -0.2718
     33  CB        69.0930  -11.3870  -27.4750 C.3    26  MET26       0.0401
     34  CG        68.4760  -12.6910  -27.9400 C.3    26  MET26       0.0596
     35  SD        68.5520  -13.9850  -26.6960 S.3    26  MET26      -0.1393
     36  CE        67.5250  -15.2420  -27.4730 C.3    26  MET26       0.0692
     37  N         70.3510   -8.4650  -28.5030 N.am   27  VAL27      -0.1980
     38  CA        71.1080   -7.2680  -28.1180 C.3    27  VAL27       0.1595
     39  C         70.5710   -6.0040  -28.8020 C.2    27  VAL27       0.2287
     40  O         70.2260   -6.0170  -29.9850 O.2    27  VAL27      -0.2864
     41  CB        72.6470   -7.4210  -28.3670 C.3    27  VAL27       0.0276
     42  CG1       72.9840   -7.5360  -29.8320 C.3    27  VAL27       0.0022
     43  CG2       73.4130   -6.2580  -27.7720 C.3    27  VAL27       0.0022
     44  N         70.5390   -6.7530  -23.2070 N.3   136  CYS136     -0.1235
     45  CA        69.9140   -7.9250  -23.7870 C.3   136  CYS136      0.1677
     46  C         68.4320   -7.9170  -23.3820 C.2   136  CYS136      0.2270
     47  O         68.0930   -7.5360  -22.2520 O.2   136  CYS136     -0.2867
     48  CB        70.6180   -9.1920  -23.2800 C.3   136  CYS136      0.0956
     49  SG        69.8760  -10.7660  -23.8040 S.3   136  CYS136     -0.0801
     50  N         78.4910   -9.3640  -21.3540 N.3   378  LEU378     -0.1231
     51  CA        78.7560  -10.1300  -22.5660 C.3   378  LEU378      0.1693
     52  C         78.0920   -9.5080  -23.8000 C.2   378  LEU378      0.2591
     53  O         78.6670   -9.5120  -24.9010 O.2   378  LEU378     -0.2718
     54  CB        78.2790  -11.5820  -22.4060 C.3   378  LEU378      0.0284
     55  CG        78.9660  -12.4670  -21.3560 C.3   378  LEU378      0.0019
     56  CD1       78.4230  -13.8820  -21.4470 C.3   378  LEU378      0.0001
     57  CD2       80.4660  -12.4800  -21.5110 C.3   378  LEU378      0.0001
     58  N         76.8700   -9.0120  -23.6100 N.am  379  ALA379     -0.1980
     59  CA        76.1710   -8.2260  -24.6280 C.3   379  ALA379      0.1597
     60  C         77.0060   -7.0220  -25.0520 C.2   379  ALA379      0.2287
     61  O         77.2160   -6.7740  -26.2400 O.2   379  ALA379     -0.2864
     62  CB        74.8250   -7.7410  -24.0840 C.3   379  ALA379      0.0319
     63  N         80.1790   -6.5170  -24.5590 N.3   381  ALA381     -0.1231
     64  CA        81.3630   -7.0550  -25.1920 C.3   381  ALA381      0.1694
     65  C         81.0950   -7.3980  -26.6490 C.2   381  ALA381      0.2591
     66  O         81.9340   -7.1300  -27.5040 O.2   381  ALA381     -0.2718
     67  CB        81.8400   -8.2890  -24.4490 C.3   381  ALA381      0.0304
     68  N         79.9430   -8.0040  -26.9330 N.am  382  ALA382     -0.1980
     69  CA        79.5980   -8.3700  -28.3140 C.3   382  ALA382      0.1597
     70  C         79.4750   -7.1330  -29.1850 C.2   382  ALA382      0.2287
     71  O         80.0120   -7.0980  -30.2880 O.2   382  ALA382     -0.2864
     72  CB        78.3110   -9.1690  -28.3650 C.3   382  ALA382      0.0319
     73  N         82.8250   -5.5480  -29.9440 N.3   385  THR385     -0.1218
     74  CA        83.5450   -6.3210  -30.9520 C.3   385  THR385      0.1862
     75  C         83.1600   -5.8450  -32.3500 C.2   385  THR385      0.2287
     76  O         84.0220   -5.6070  -33.1960 O.2   385  THR385     -0.2866
     77  CB        83.2150   -7.8260  -30.8370 C.3   385  THR385      0.1770
     78  OG1       83.6360   -8.3030  -29.5580 O.3   385  THR385     -0.2211
     79  CG2       83.9080   -8.6420  -31.9280 C.3   385  THR385      0.0375
     80  N         85.8120  -16.5390  -20.8460 N.3   410  ILE410     -0.1231
     81  CA        85.2300  -16.0010  -22.0610 C.3   410  ILE410      0.1692
     82  C         85.8610  -14.6660  -22.4720 C.2   410  ILE410      0.2591
     83  O         86.3900  -14.5340  -23.5770 O.2   410  ILE410     -0.2718
     84  CB        83.7270  -15.8080  -21.8580 C.3   410  ILE410      0.0266
     85  CG1       83.0820  -17.1300  -21.4040 C.3   410  ILE410      0.0019
     86  CG2       83.0720  -15.3040  -23.1420 C.3   410  ILE410      0.0020
     87  CD1       81.8640  -16.9200  -20.5130 C.3   410  ILE410      0.0001
     88  N         85.7970  -13.6890  -21.5750 N.am  411  LEU411     -0.1980
     89  CA        86.2200  -12.3110  -21.8720 C.3   411  LEU411      0.1596
     90  C         87.7160  -12.2030  -22.1780 C.2   411  LEU411      0.2287
     91  O         88.1030  -11.5750  -23.1640 O.2   411  LEU411     -0.2864
     92  CB        85.8510  -11.3730  -20.7220 C.3   411  LEU411      0.0297
     93  CG        84.7040  -10.3750  -20.8770 C.3   411  LEU411      0.0022
     94  CD1       83.5260  -10.9370  -21.6400 C.3   411  LEU411      0.0001
     95  CD2       84.2680   -9.8790  -19.4940 C.3   411  LEU411      0.0001
     96  N         88.3930  -14.3220  -25.4750 N.3   414  HIS414     -0.1226
     97  CA        87.8410  -13.6630  -26.6570 C.3   414  HIS414      0.1752
     98  C         88.6890  -12.4540  -27.0560 C.2   414  HIS414      0.2596
     99  O         89.2190  -12.3950  -28.1590 O.2   414  HIS414     -0.2718
    100  CB        86.3820  -13.2390  -26.4130 C.3   414  HIS414      0.0759
    101  CG        85.7670  -12.4590  -27.5410 C.ar  414  HIS414      0.0818
    102  ND1       85.4110  -13.0360  -28.7420 N.ar  414  HIS414     -0.2268
    103  CD2       85.4130  -11.1500  -27.6340 C.ar  414  HIS414      0.1154
    104  CE1       84.8800  -12.1140  -29.5300 C.ar  414  HIS414      0.1986
    105  NE2       84.8620  -10.9620  -28.8800 N.ar  414  HIS414     -0.2212
    106  N         88.8380  -11.5010  -26.1510 N.am  415  PHE415     -0.1976
    107  CA        89.4870  -10.2490  -26.5150 C.3   415  PHE415      0.1639
    108  C         90.9860  -10.3860  -26.7340 C.2   415  PHE415      0.2290
    109  O         91.5290   -9.7330  -27.6270 O.2   415  PHE415     -0.2864
    110  CB        89.1250   -9.1420  -25.5380 C.3   415  PHE415      0.0560
    111  CG        87.7180   -8.6580  -25.7060 C.ar  415  PHE415     -0.0200
    112  CD1       87.3830   -7.8340  -26.7690 C.ar  415  PHE415     -0.0042
    113  CD2       86.7200   -9.0560  -24.8310 C.ar  415  PHE415     -0.0042
    114  CE1       86.0830   -7.4010  -26.9440 C.ar  415  PHE415     -0.0003
    115  CE2       85.4190   -8.6290  -24.9960 C.ar  415  PHE415     -0.0003
    116  CZ        85.0960   -7.7950  -26.0530 C.ar  415  PHE415     -0.0000
    117  N         72.2520  -16.6760  -24.8180 N.3   478  LEU478     -0.1231
    118  CA        72.8470  -15.6920  -25.7270 C.3   478  LEU478      0.1693
    119  C         73.4220  -16.3330  -26.9820 C.2   478  LEU478      0.2593
    120  O         73.8720  -15.6330  -27.8850 O.2   478  LEU478     -0.2718
    121  CB        73.9660  -14.9100  -24.9960 C.3   478  LEU478      0.0284
    122  CG        73.7330  -13.5520  -24.3340 C.3   478  LEU478      0.0019
    123  CD1       72.3100  -13.3520  -23.8560 C.3   478  LEU478      0.0001
    124  CD2       74.7330  -13.3440  -23.1760 C.3   478  LEU478      0.0001
    125  N         73.4040  -17.6620  -27.0420 N.am  479  GLY479     -0.1942
    126  CA        73.9590  -18.3960  -28.1710 C.3   479  GLY479      0.2014
    127  C         75.4770  -18.4830  -28.1680 C.2   479  GLY479      0.2639
    128  O         76.0830  -18.7380  -29.2090 O.2   479  GLY479     -0.2714
    129  N         76.0900  -18.2770  -26.9980 N.am  480  VAL480     -0.1963
    130  CA        77.5490  -18.3130  -26.8530 C.3   480  VAL480      0.1712
    131  C         77.9910  -19.7680  -26.6590 C.2   480  VAL480      0.2458
    132  O         77.3150  -20.5540  -25.9800 O.2   480  VAL480     -0.2730
    133  CB        78.0300  -17.4010  -25.6790 C.3   480  VAL480      0.0289
    134  CG1       79.5520  -17.3920  -25.5690 C.3   480  VAL480      0.0023
    135  CG2       77.5360  -16.0040  -25.8760 C.3   480  VAL480      0.0023
    136  N         79.0930  -20.1630  -27.3110 N.am  481  PRO481     -0.2727
    137  CA        79.6240  -21.4920  -27.0410 C.3   481  PRO481      0.1402
    138  C         79.8380  -21.7870  -25.5370 C.2   481  PRO481      0.2269
    139  O         80.1510  -20.8750  -24.7580 O.2   481  PRO481     -0.2865
    140  CB        80.9580  -21.4900  -27.8010 C.3   481  PRO481      0.0296
    141  CG        80.7630  -20.5050  -28.8990 C.3   481  PRO481      0.0237
    142  CD        79.8780  -19.4460  -28.3330 C.3   481  PRO481      0.0939
    143  N         85.4480  -22.6050  -24.7800 N.3   486  TRP486     -0.1241
    144  CA        86.3190  -21.5310  -24.3120 C.3   486  TRP486      0.1605
    145  C         87.6480  -22.0410  -23.7470 C.2   486  TRP486      0.2264
    146  O         88.6730  -21.3660  -23.8730 O.2   486  TRP486     -0.2867
    147  CB        85.5750  -20.6890  -23.3030 C.3   486  TRP486      0.0550
    148  CG        84.5150  -19.9100  -23.9600 C.ar  486  TRP486      0.0003
    149  CD1       83.1700  -20.0950  -23.8480 C.ar  486  TRP486      0.0946
    150  CD2       84.7040  -18.8290  -24.8820 C.ar  486  TRP486      0.0152
    151  NE1       82.5030  -19.1550  -24.6090 N.ar  486  TRP486     -0.2442
    152  CE2       83.4210  -18.3770  -25.2650 C.ar  486  TRP486      0.0810
    153  CE3       85.8370  -18.1920  -25.4150 C.ar  486  TRP486      0.0012
    154  CZ2       83.2340  -17.3150  -26.1600 C.ar  486  TRP486      0.0191
    155  CZ3       85.6540  -17.1370  -26.3080 C.ar  486  TRP486      0.0001
    156  CH2       84.3590  -16.7060  -26.6670 C.ar  486  TRP486      0.0015
    157  N         89.7150  -22.7820  -26.7820 N.3   489  ARG489     -0.1245
    158  CA        90.1610  -21.4870  -27.3110 C.3   489  ARG489      0.1563
    159  C         91.2250  -20.7960  -26.4570 C.2   489  ARG489      0.2260
    160  O         92.1060  -20.1170  -26.9910 O.2   489  ARG489     -0.2867
    161  CB        88.9700  -20.5340  -27.4800 C.3   489  ARG489      0.0307
    162  CG        88.1680  -20.8240  -28.7180 C.3   489  ARG489      0.0489
    163  CD        86.8680  -20.0790  -28.7510 C.3   489  ARG489      0.2205
    164  NE        86.0920  -20.4830  -29.9170 N.pl3 489  ARG489     -0.0865
    165  CZ        84.8860  -20.0170  -30.2220 C.cat 489  ARG489      0.5346
    166  NH1       84.2950  -19.1180  -29.4480 N.pl3 489  ARG489      0.1354
    167  NH2       84.2720  -20.4610  -31.3120 N.pl3 489  ARG489      0.1354
@<TRIPOS>BOND
     1    28    27   ar
     2    28    26   ar
     3    27    25   ar
     4     4     3    2
     5     3     2    1
     6    26    24   ar
     7    25    24   ar
     8    24    23    1
     9     2     5    1
    10     2     1    1
    11     5     6    1
    12    76    75    2
    13    23    20    1
    14    75    74    1
    15     8     6    1
    16     6     7    1
    17    79    77    1
    18    21    20    1
    19    21    22    2
    20    20    19    1
    21    19    11   am
    22   167   165    1
    23    74    77    1
    24    74    73    1
    25    10    11    1
    26    10     9    1
    27    10    13    1
    28    77    78    1
    29    15    17   ar
    30    15    14   ar
    31    11    12    2
    32    17    18   ar
    33    71    70    2
    34   165   164    2
    35   165   166    1
    36    40    39    2
    37    13    14    1
    38   164   163    1
    39    42    41    1
    40    14    16   ar
    41    29    30    1
    42   104   105   ar
    43   104   102   ar
    44   128   127    2
    45    70    69    1
    46    18    16   ar
    47   141   142    1
    48   141   140    1
    49   105   103   ar
    50    39    38    1
    51   163   162    1
    52   102   101   ar
    53   162   161    1
    54    37    38    1
    55    37    31   am
    56    41    38    1
    57    41    43    1
    58    72    69    1
    59   142   136    1
    60    69    68    1
    61    30    31    1
    62    30    33    1
    63   126   127    1
    64   126   125    1
    65   127   129   am
    66    99    98    2
    67    34    33    1
    68    34    35    1
    69   120   119    2
    70   140   137    1
    71    31    32    2
    72   103   101   ar
    73   109   108    2
    74   101   100    1
    75    66    65    2
    76   161   158    1
    77    36    35    1
    78   136   137    1
    79   136   131   am
    80   158   157    1
    81   158   159    1
    82    98    97    1
    83    98   106   am
    84   125   119   am
    85   137   138    1
    86   129   130    1
    87   160   159    2
    88   119   118    1
    89   114   112   ar
    90   114   116   ar
    91    68    65   am
    92   130   131    1
    93   130   133    1
    94   112   111   ar
    95   108   107    1
    96   156   155   ar
    97   156   154   ar
    98   131   132    2
    99    97   100    1
   100    97    96    1
   101    65    64    1
   102   107   106    1
   103   107   110    1
   104   155   153   ar
   105    61    60    2
   106   154   152   ar
   107   116   115   ar
   108   135   133    1
   109   118   121    1
   110   118   117    1
   111   111   110    1
   112   111   113   ar
   113   133   134    1
   114   138   139    2
   115   153   150   ar
   116   152   150   ar
   117   152   151   ar
   118    64    63    1
   119    64    67    1
   120    60    59    1
   121   115   113   ar
   122   121   122    1
   123    53    52    2
   124   150   148   ar
   125   143   144    1
   126    59    62    1
   127    59    58    1
   128   151   149   ar
   129   122   123    1
   130   122   124    1
   131   144   145    1
   132   144   147    1
   133   148   149   ar
   134   148   147    1
   135   146   145    2
   136    49    48    1
   137    52    58   am
   138    52    51    1
   139    45    46    1
   140    45    48    1
   141    45    44    1
   142    83    82    2
   143    46    47    2
   144    91    90    2
   145    86    84    1
   146    51    54    1
   147    51    50    1
   148    82    81    1
   149    82    88   am
   150    54    55    1
   151    90    89    1
   152    81    84    1
   153    81    80    1
   154    89    88    1
   155    89    92    1
   156    84    85    1
   157    94    93    1
   158    57    55    1
   159    56    55    1
   160    85    87    1
   161    93    92    1
   162    93    95    1
