@<TRIPOS>MOLECULE
tmp/4drvA00.pdb
 95 92 0 0 0
SMALL
GASTEIGER

@<TRIPOS>ATOM
      1  N         36.5120  -17.0020   22.5980 N.3    40  ARG40      -0.1245
      2  CA        35.3300  -16.6500   23.3850 C.3    40  ARG40       0.1563
      3  C         35.1210  -15.1480   23.4110 C.2    40  ARG40       0.2260
      4  O         36.0330  -14.4090   23.7950 O.2    40  ARG40      -0.2867
      5  CB        35.4560  -17.1370   24.8340 C.3    40  ARG40       0.0307
      6  CG        35.5300  -18.6460   25.0120 C.3    40  ARG40       0.0489
      7  CD        34.2360  -19.3430   24.6130 C.3    40  ARG40       0.2205
      8  NE        34.2810  -20.7560   24.9720 N.pl3  40  ARG40      -0.0865
      9  CZ        34.8590  -21.7030   24.2410 C.cat  40  ARG40       0.5346
     10  NH1       34.8520  -22.9610   24.6650 N.pl3  40  ARG40       0.1354
     11  NH2       35.4460  -21.3940   23.0890 N.pl3  40  ARG40       0.1354
     12  N         27.2990  -15.9690   23.9670 N.3    83  ILE83      -0.1245
     13  CA        28.7040  -16.2030   23.6440 C.3    83  ILE83       0.1561
     14  C         28.8920  -16.5190   22.1620 C.2    83  ILE83       0.2260
     15  O         28.1220  -17.2810   21.5820 O.2    83  ILE83      -0.2867
     16  CB        29.3020  -17.3740   24.4660 C.3    83  ILE83       0.0252
     17  CG1       28.9410  -17.2610   25.9540 C.3    83  ILE83       0.0019
     18  CG2       30.8190  -17.4340   24.2830 C.3    83  ILE83       0.0019
     19  CD1       29.2900  -18.5020   26.7790 C.3    83  ILE83       0.0001
     20  N         32.0020  -17.9550   19.4640 N.3    85  LEU85      -0.1245
     21  CA        33.1530  -18.8440   19.5970 C.3    85  LEU85       0.1561
     22  C         34.2790  -18.5490   18.6140 C.2    85  LEU85       0.2260
     23  O         35.3280  -19.1900   18.6510 O.2    85  LEU85      -0.2867
     24  CB        32.7030  -20.2900   19.3980 C.3    85  LEU85       0.0270
     25  CG        31.5270  -20.7450   20.2640 C.3    85  LEU85       0.0019
     26  CD1       31.1330  -22.1700   19.8900 C.3    85  LEU85       0.0001
     27  CD2       31.8410  -20.6240   21.7470 C.3    85  LEU85       0.0001
     28  N         23.5740  -19.0840   26.3250 N.3    94  TYR94      -0.1241
     29  CA        24.1090  -20.1350   27.1880 C.3    94  TYR94       0.1605
     30  C         23.5460  -20.1730   28.6090 C.2    94  TYR94       0.2264
     31  O         23.4850  -21.2380   29.2260 O.2    94  TYR94      -0.2867
     32  CB        25.6450  -20.0530   27.2270 C.3    94  TYR94       0.0534
     33  CG        26.2570  -20.5170   25.9310 C.ar   94  TYR94      -0.0201
     34  CD1       26.5730  -21.8560   25.7360 C.ar   94  TYR94      -0.0009
     35  CD2       26.4870  -19.6270   24.8880 C.ar   94  TYR94      -0.0009
     36  CE1       27.1110  -22.2970   24.5420 C.ar   94  TYR94       0.0417
     37  CE2       27.0280  -20.0550   23.6940 C.ar   94  TYR94       0.0417
     38  CZ        27.3440  -21.3940   23.5270 C.ar   94  TYR94       0.1957
     39  OH        27.8820  -21.8440   22.3450 O.3    94  TYR94      -0.2866
     40  N         38.3370  -20.1710   33.7280 N.3   112  ARG112     -0.1245
     41  CA        36.9130  -20.0770   33.4080 C.3   112  ARG112      0.1563
     42  C         36.3670  -18.7010   33.7600 C.2   112  ARG112      0.2260
     43  O         37.0040  -17.9310   34.4840 O.2   112  ARG112     -0.2867
     44  CB        36.1240  -21.1400   34.1830 C.3   112  ARG112      0.0307
     45  CG        36.5230  -22.5660   33.8310 C.3   112  ARG112      0.0489
     46  CD        36.0520  -23.5580   34.8890 C.3   112  ARG112      0.2205
     47  NE        36.3690  -24.9270   34.4900 N.pl3 112  ARG112     -0.0865
     48  CZ        36.1500  -26.0000   35.2450 C.cat 112  ARG112      0.5346
     49  NH1       35.6140  -25.8770   36.4490 N.pl3 112  ARG112      0.1354
     50  NH2       36.4780  -27.2030   34.7910 N.pl3 112  ARG112      0.1354
     51  N         26.3820  -21.3720   39.1250 N.3   126  SER126     -0.1202
     52  CA        26.2810  -22.7200   38.5670 C.3   126  SER126      0.2020
     53  C         26.7560  -22.8220   37.1240 C.2   126  SER126      0.2619
     54  O         26.9870  -23.9220   36.6240 O.2   126  SER126     -0.2717
     55  CB        24.8390  -23.2230   38.6690 C.3   126  SER126      0.2103
     56  OG        23.9600  -22.3890   37.9280 O.3   126  SER126     -0.2182
     57  N         26.8940  -21.6820   36.4520 N.am  127  TYR127     -0.1961
     58  CA        27.3370  -21.6880   35.0620 C.3   127  TYR127      0.1771
     59  C         28.7840  -21.2100   34.9130 C.2   127  TYR127      0.2620
     60  O         29.2370  -20.3400   35.6450 O.2   127  TYR127     -0.2715
     61  CB        26.4200  -20.8370   34.1610 C.3   127  TYR127      0.0574
     62  CG        26.8120  -21.0210   32.7150 C.ar  127  TYR127     -0.0198
     63  CD1       26.3810  -22.1330   32.0020 C.ar  127  TYR127     -0.0009
     64  CD2       27.6800  -20.1350   32.0880 C.ar  127  TYR127     -0.0009
     65  CE1       26.7770  -22.3350   30.6940 C.ar  127  TYR127      0.0417
     66  CE2       28.0840  -20.3310   30.7750 C.ar  127  TYR127      0.0417
     67  CZ        27.6270  -21.4380   30.0880 C.ar  127  TYR127      0.1957
     68  OH        28.0250  -21.6460   28.7840 O.3   127  TYR127     -0.2866
     69  N         29.5130  -21.7870   33.9630 N.am  128  TYR128     -0.1960
     70  CA        30.8030  -21.2160   33.5670 C.3   128  TYR128      0.1771
     71  C         31.1000  -21.4910   32.1010 C.2   128  TYR128      0.2619
     72  O         30.6140  -22.4660   31.5180 O.2   128  TYR128     -0.2715
     73  CB        31.9610  -21.7280   34.4450 C.3   128  TYR128      0.0574
     74  CG        32.1590  -23.2270   34.3900 C.ar  128  TYR128     -0.0198
     75  CD1       32.9750  -23.8140   33.4260 C.ar  128  TYR128     -0.0009
     76  CD2       31.5190  -24.0560   35.3000 C.ar  128  TYR128     -0.0009
     77  CE1       33.1450  -25.1990   33.3810 C.ar  128  TYR128      0.0417
     78  CE2       31.6810  -25.4280   35.2610 C.ar  128  TYR128      0.0417
     79  CZ        32.4920  -25.9920   34.3020 C.ar  128  TYR128      0.1957
     80  OH        32.6350  -27.3660   34.2830 O.3   128  TYR128     -0.2866
     81  N         31.9020  -20.6110   31.5140 N.am  129  LEU129     -0.1963
     82  CA        32.5020  -20.8610   30.2110 C.3   129  LEU129      0.1728
     83  C         34.0130  -20.9290   30.3880 C.2   129  LEU129      0.2616
     84  O         34.5470  -20.4830   31.4070 O.2   129  LEU129     -0.2715
     85  CB        32.1280  -19.7670   29.2070 C.3   129  LEU129      0.0311
     86  CG        32.6010  -18.3440   29.5200 C.3   129  LEU129      0.0022
     87  CD1       33.1610  -17.6960   28.2700 C.3   129  LEU129      0.0001
     88  CD2       31.4640  -17.5080   30.0650 C.3   129  LEU129      0.0001
     89  N         34.7000  -21.4890   29.3980 N.am  130  THR130     -0.1951
     90  CA        36.1440  -21.6620   29.4590 C.3   130  THR130      0.1897
     91  C         36.8560  -20.6230   28.6020 C.2   130  THR130      0.2313
     92  O         36.5500  -20.4850   27.4140 O.2   130  THR130     -0.2863
     93  CB        36.5280  -23.0760   29.0000 C.3   130  THR130      0.1794
     94  OG1       35.9690  -24.0330   29.9150 O.3   130  THR130     -0.2208
     95  CG2       38.0440  -23.2420   28.9720 C.3   130  THR130      0.0378
@<TRIPOS>BOND
     1    22    23    2
     2    22    21    1
     3    24    21    1
     4    24    25    1
     5    20    21    1
     6    26    25    1
     7    25    27    1
     8    15    14    2
     9    14    13    1
    10    39    38    1
    11     1     2    1
    12    11     9    1
    13     2     3    1
    14     2     5    1
    15     3     4    2
    16    38    37   ar
    17    38    36   ar
    18    13    12    1
    19    13    16    1
    20    37    35   ar
    21     9    10    1
    22     9     8    2
    23    18    16    1
    24    16    17    1
    25    36    34   ar
    26     7     8    1
    27     7     6    1
    28     5     6    1
    29    35    33   ar
    30    34    33   ar
    31    33    32    1
    32    17    19    1
    33    28    29    1
    34    29    32    1
    35    29    30    1
    36    92    91    2
    37    87    86    1
    38    91    90    1
    39    30    31    2
    40    68    67    1
    41    95    93    1
    42    93    90    1
    43    93    94    1
    44    85    86    1
    45    85    82    1
    46    89    90    1
    47    89    83   am
    48    86    88    1
    49    67    65   ar
    50    67    66   ar
    51    82    83    1
    52    82    81    1
    53    83    84    2
    54    65    63   ar
    55    66    64   ar
    56    81    71   am
    57    72    71    2
    58    63    62   ar
    59    64    62   ar
    60    71    70    1
    61    62    61    1
    62    77    75   ar
    63    77    79   ar
    64    41    40    1
    65    41    42    1
    66    41    44    1
    67    75    74   ar
    68    70    69    1
    69    70    73    1
    70    42    43    2
    71    45    44    1
    72    45    46    1
    73    69    59   am
    74    61    58    1
    75    80    79    1
    76    79    78   ar
    77    74    73    1
    78    74    76   ar
    79    47    46    1
    80    47    48    2
    81    50    48    1
    82    59    58    1
    83    59    60    2
    84    58    57    1
    85    48    49    1
    86    78    76   ar
    87    57    53   am
    88    54    53    2
    89    53    52    1
    90    56    55    1
    91    52    55    1
    92    52    51    1
