@<TRIPOS>MOLECULE
tmp/4ds0A00.pdb
 95 92 0 0 0
SMALL
GASTEIGER

@<TRIPOS>ATOM
      1  N          3.3600    0.4450   21.2900 N.3    40  ARG40      -0.1245
      2  CA         4.4940    0.8290   20.4550 C.3    40  ARG40       0.1563
      3  C          4.6540    2.3370   20.4180 C.2    40  ARG40       0.2260
      4  O          3.7340    3.0600   20.0180 O.2    40  ARG40      -0.2867
      5  CB         4.3270    0.3180   19.0200 C.3    40  ARG40       0.0307
      6  CG         4.2890   -1.1920   18.8730 C.3    40  ARG40       0.0489
      7  CD         5.6220   -1.8620   19.2110 C.3    40  ARG40       0.2205
      8  NE         5.6040   -3.2680   18.8200 N.pl3  40  ARG40      -0.0865
      9  CZ         5.0800   -4.2390   19.5580 C.cat  40  ARG40       0.5346
     10  NH1        4.5450   -3.9580   20.7380 N.pl3  40  ARG40       0.1354
     11  NH2        5.0930   -5.4900   19.1190 N.pl3  40  ARG40       0.1354
     12  N         12.4540    1.7010   19.8210 N.3    83  ILE83      -0.1245
     13  CA        11.0560    1.4240   20.1530 C.3    83  ILE83       0.1561
     14  C         10.9000    1.1390   21.6440 C.2    83  ILE83       0.2260
     15  O         11.7040    0.4160   22.2380 O.2    83  ILE83      -0.2867
     16  CB        10.4980    0.2050   19.3800 C.3    83  ILE83       0.0252
     17  CG1       10.8240    0.3030   17.8880 C.3    83  ILE83       0.0019
     18  CG2        8.9770    0.0680   19.6160 C.3    83  ILE83       0.0019
     19  CD1       10.4630   -0.9550   17.0890 C.3    83  ILE83       0.0001
     20  N          7.8780   -0.3560   24.3950 N.3    85  LEU85      -0.1245
     21  CA         6.7580   -1.2910   24.2800 C.3    85  LEU85       0.1561
     22  C          5.6400   -1.0310   25.2740 C.2    85  LEU85       0.2260
     23  O          4.6110   -1.7180   25.2540 O.2    85  LEU85      -0.2867
     24  CB         7.2540   -2.7270   24.4710 C.3    85  LEU85       0.0270
     25  CG         8.3950   -3.1720   23.5590 C.3    85  LEU85       0.0019
     26  CD1        8.8420   -4.5790   23.9270 C.3    85  LEU85       0.0001
     27  CD2        7.9820   -3.0770   22.0940 C.3    85  LEU85       0.0001
     28  N         16.2670   -1.3250   17.5120 N.3    94  TYR94      -0.1241
     29  CA        15.7330   -2.3920   16.6630 C.3    94  TYR94       0.1605
     30  C         16.2690   -2.4540   15.2290 C.2    94  TYR94       0.2264
     31  O         16.3010   -3.5230   14.6210 O.2    94  TYR94      -0.2867
     32  CB        14.1970   -2.3180   16.6290 C.3    94  TYR94       0.0534
     33  CG        13.6020   -2.7920   17.9330 C.ar   94  TYR94      -0.0201
     34  CD1       13.2790   -4.1340   18.1240 C.ar   94  TYR94      -0.0009
     35  CD2       13.4220   -1.9200   18.9890 C.ar   94  TYR94      -0.0009
     36  CE1       12.7610   -4.5890   19.3340 C.ar   94  TYR94       0.0417
     37  CE2       12.8930   -2.3600   20.2040 C.ar   94  TYR94       0.0417
     38  CZ        12.5670   -3.6960   20.3680 C.ar   94  TYR94       0.1957
     39  OH        12.0580   -4.1500   21.5620 O.3    94  TYR94      -0.2866
     40  N          1.3950   -2.5930   10.0940 N.3   112  ARG112     -0.1245
     41  CA         2.8210   -2.5160   10.3970 C.3   112  ARG112      0.1563
     42  C          3.3540   -1.1390   10.0610 C.2   112  ARG112      0.2260
     43  O          2.7210   -0.3810    9.3300 O.2   112  ARG112     -0.2867
     44  CB         3.5890   -3.5580    9.5730 C.3   112  ARG112      0.0307
     45  CG         3.1850   -4.9970    9.8800 C.3   112  ARG112      0.0489
     46  CD         3.6130   -5.9510    8.7790 C.3   112  ARG112      0.2205
     47  NE         3.2260   -7.3180    9.1140 N.pl3 112  ARG112     -0.0865
     48  CZ         3.3860   -8.3630    8.3060 C.cat 112  ARG112      0.5346
     49  NH1        3.9310   -8.2090    7.1040 N.pl3 112  ARG112      0.1354
     50  NH2        3.0010   -9.5680    8.7040 N.pl3 112  ARG112      0.1354
     51  N         13.3710   -3.6910    4.5820 N.3   126  SER126     -0.1202
     52  CA        13.4860   -5.0400    5.1160 C.3   126  SER126      0.2020
     53  C         12.9890   -5.1600    6.5490 C.2   126  SER126      0.2619
     54  O         12.8410   -6.2680    7.0630 O.2   126  SER126     -0.2717
     55  CB        14.9400   -5.5110    5.0350 C.3   126  SER126      0.2103
     56  OG        15.7760   -4.6890    5.8240 O.3   126  SER126     -0.2182
     57  N         12.7350   -4.0270    7.1930 N.am  127  TYR127     -0.1961
     58  CA        12.3190   -4.0420    8.5870 C.3   127  TYR127      0.1771
     59  C         10.8950   -3.5150    8.7830 C.2   127  TYR127      0.2620
     60  O         10.4460   -2.6210    8.0750 O.2   127  TYR127     -0.2715
     61  CB        13.2960   -3.2450    9.4660 C.3   127  TYR127      0.0574
     62  CG        12.9760   -3.4240   10.9190 C.ar  127  TYR127     -0.0198
     63  CD1       13.4300   -4.5410   11.6100 C.ar  127  TYR127     -0.0009
     64  CD2       12.1770   -2.5110   11.5950 C.ar  127  TYR127     -0.0009
     65  CE1       13.1080   -4.7360   12.9380 C.ar  127  TYR127      0.0417
     66  CE2       11.8440   -2.6970   12.9340 C.ar  127  TYR127      0.0417
     67  CZ        12.3180   -3.8140   13.5960 C.ar  127  TYR127      0.1957
     68  OH        11.9910   -4.0040   14.9200 O.3   127  TYR127     -0.2866
     69  N         10.1860   -4.0880    9.7450 N.am  128  TYR128     -0.1960
     70  CA         8.9360   -3.5020   10.2030 C.3   128  TYR128      0.1771
     71  C          8.6520   -3.8160   11.6670 C.2   128  TYR128      0.2619
     72  O          9.1620   -4.8000   12.2190 O.2   128  TYR128     -0.2715
     73  CB         7.7580   -3.9620    9.3260 C.3   128  TYR128      0.0574
     74  CG         7.3790   -5.4170    9.5000 C.ar  128  TYR128     -0.0198
     75  CD1        6.5440   -5.8140   10.5350 C.ar  128  TYR128     -0.0009
     76  CD2        7.8430   -6.3900    8.6220 C.ar  128  TYR128     -0.0009
     77  CE1        6.1900   -7.1440   10.7030 C.ar  128  TYR128      0.0417
     78  CE2        7.4910   -7.7220    8.7760 C.ar  128  TYR128      0.0417
     79  CZ         6.6640   -8.0910    9.8160 C.ar  128  TYR128      0.1957
     80  OH         6.3060   -9.4140    9.9780 O.3   128  TYR128     -0.2866
     81  N          7.8480   -2.9620   12.2910 N.am  129  LEU129     -0.1963
     82  CA         7.2790   -3.2440   13.5980 C.3   129  LEU129      0.1728
     83  C          5.7680   -3.3340   13.4280 C.2   129  LEU129      0.2616
     84  O          5.2100   -2.8320   12.4460 O.2   129  LEU129     -0.2715
     85  CB         7.6510   -2.1660   14.6260 C.3   129  LEU129      0.0311
     86  CG         7.1930   -0.7260   14.3700 C.3   129  LEU129      0.0022
     87  CD1        6.6570   -0.0760   15.6410 C.3   129  LEU129      0.0001
     88  CD2        8.3230    0.0940   13.7770 C.3   129  LEU129      0.0001
     89  N          5.0990   -3.9740   14.3780 N.am  130  THR130     -0.1951
     90  CA         3.6570   -4.1360   14.2920 C.3   130  THR130      0.1897
     91  C          2.9510   -3.1060   15.1650 C.2   130  THR130      0.2313
     92  O          3.2700   -2.9810   16.3520 O.2   130  THR130     -0.2863
     93  CB         3.2460   -5.5580   14.7270 C.3   130  THR130      0.1794
     94  OG1        3.8190   -6.5170   13.8280 O.3   130  THR130     -0.2208
     95  CG2        1.7260   -5.7010   14.7290 C.3   130  THR130      0.0378
@<TRIPOS>BOND
     1    51    52    1
     2    55    52    1
     3    55    56    1
     4    52    53    1
     5    53    54    2
     6    53    57   am
     7    49    48    1
     8    57    58    1
     9    60    59    2
    10    48    50    1
    11    48    47    2
    12    58    59    1
    13    58    61    1
    14    76    78   ar
    15    76    74   ar
    16    78    79   ar
    17    46    47    1
    18    46    45    1
    19    59    69   am
    20    73    74    1
    21    73    70    1
    22    43    42    2
    23    61    62    1
    24    74    75   ar
    25    44    45    1
    26    44    41    1
    27    69    70    1
    28    79    80    1
    29    79    77   ar
    30    42    41    1
    31    40    41    1
    32    70    71    1
    33    75    77   ar
    34    62    64   ar
    35    62    63   ar
    36    64    66   ar
    37    63    65   ar
    38    71    72    2
    39    71    81   am
    40    81    82    1
    41    84    83    2
    42    66    67   ar
    43    65    67   ar
    44    83    82    1
    45    83    89   am
    46    67    68    1
    47    82    85    1
    48    88    86    1
    49    94    93    1
    50    90    89    1
    51    90    93    1
    52    90    91    1
    53    86    85    1
    54    86    87    1
    55    31    30    2
    56    93    95    1
    57    91    92    2
    58    30    29    1
    59    32    29    1
    60    32    33    1
    61    29    28    1
    62    19    17    1
    63    17    16    1
    64    33    34   ar
    65    33    35   ar
    66    34    36   ar
    67     8     7    1
    68     8     9    2
    69     6     5    1
    70     6     7    1
    71    35    37   ar
    72     5     2    1
    73    11     9    1
    74    36    38   ar
    75    16    18    1
    76    16    13    1
    77     9    10    1
    78    12    13    1
    79     4     3    2
    80    13    14    1
    81    37    38   ar
    82    38    39    1
    83     3     2    1
    84     2     1    1
    85    14    15    2
    86    27    25    1
    87    25    26    1
    88    25    24    1
    89    21    20    1
    90    21    24    1
    91    21    22    1
    92    23    22    2
