@<TRIPOS>MOLECULE
tmp/4ds1A00.pdb
 181 178 0 0 0
SMALL
GASTEIGER

@<TRIPOS>ATOM
      1  N         15.7750   27.4210   59.0050 N.3     6  LYS6       -0.1231
      2  CA        16.2500   26.4540   58.0210 C.3     6  LYS6        0.1693
      3  C         15.0930   25.7000   57.3720 C.2     6  LYS6        0.2591
      4  O         15.1550   25.3390   56.2000 O.2     6  LYS6       -0.2718
      5  CB        17.2110   25.4630   58.6760 C.3     6  LYS6        0.0285
      6  CG        18.4760   26.0920   59.2440 C.3     6  LYS6        0.0035
      7  CD        19.4930   26.3360   58.1470 C.3     6  LYS6        0.0206
      8  CE        20.7920   26.8910   58.7100 C.3     6  LYS6        0.1093
      9  NZ        21.8450   26.8950   57.6600 N.3     6  LYS6       -0.1314
     10  N         14.0370   25.4540   58.1410 N.am    7  ALA7       -0.1980
     11  CA        12.8570   24.7730   57.6160 C.3     7  ALA7        0.1597
     12  C         11.6540   25.1420   58.4600 C.2     7  ALA7        0.2287
     13  O         11.7860   25.3840   59.6610 O.2     7  ALA7       -0.2864
     14  CB        13.0640   23.2650   57.6120 C.3     7  ALA7        0.0319
     15  N          6.9860   24.9240   58.7820 N.3     9  ASP9       -0.1239
     16  CA         5.5890   24.8530   58.3700 C.3     9  ASP9        0.1674
     17  C          4.8490   25.5880   59.4740 C.2     9  ASP9        0.2266
     18  O          4.4370   24.9790   60.4680 O.2     9  ASP9       -0.2867
     19  CB         5.1000   23.4120   58.2960 C.3     9  ASP9        0.1410
     20  CG         3.5920   23.3140   58.1390 C.2     9  ASP9        0.3668
     21  OD1        2.9760   24.3040   57.6900 O.co2   9  ASP9       -0.2456
     22  OD2        3.0240   22.2470   58.4670 O.co2   9  ASP9       -0.2456
     23  N         23.8240   21.2430   68.9780 N.3    57  LYS57      -0.1231
     24  CA        24.7280   21.5470   67.8680 C.3    57  LYS57       0.1693
     25  C         24.9270   20.3600   66.9410 C.2    57  LYS57       0.2592
     26  O         25.4160   20.5220   65.8220 O.2    57  LYS57      -0.2718
     27  CB        26.1020   21.9690   68.3830 C.3    57  LYS57       0.0285
     28  CG        26.1190   23.1600   69.3140 C.3    57  LYS57       0.0035
     29  CD        27.5510   23.3280   69.8310 C.3    57  LYS57       0.0206
     30  CE        27.6340   24.3000   70.9730 C.3    57  LYS57       0.1093
     31  NZ        29.0290   24.3750   71.4800 N.3    57  LYS57      -0.1314
     32  N         24.5970   19.1620   67.4130 N.am   58  ASN58      -0.1960
     33  CA        24.7850   17.9740   66.5810 C.3    58  ASN58       0.1819
     34  C         23.7130   16.9250   66.7600 C.2    58  ASN58       0.2621
     35  O         23.7310   16.1690   67.7340 O.2    58  ASN58      -0.2715
     36  CB        26.1550   17.3280   66.8000 C.3    58  ASN58       0.1195
     37  CG        26.3460   16.0890   65.9320 C.2    58  ASN58       0.2630
     38  OD1       26.1060   14.9590   66.3650 O.2    58  ASN58      -0.2716
     39  ND2       26.7340   16.3020   64.6860 N.am   58  ASN58      -0.0877
     40  N         22.7860   16.8750   65.8090 N.am   59  PHE59      -0.1960
     41  CA        21.7730   15.8330   65.7970 C.3    59  PHE59       0.1771
     42  C         21.0440   15.8020   64.4690 C.2    59  PHE59       0.2620
     43  O         20.9860   16.8060   63.7490 O.2    59  PHE59      -0.2715
     44  CB        20.7700   16.0200   66.9500 C.3    59  PHE59       0.0574
     45  CG        19.9600   17.2970   66.8760 C.ar   59  PHE59      -0.0200
     46  CD1       18.6670   17.2890   66.3650 C.ar   59  PHE59      -0.0042
     47  CD2       20.4680   18.4890   67.3680 C.ar   59  PHE59      -0.0042
     48  CE1       17.9170   18.4590   66.3110 C.ar   59  PHE59      -0.0003
     49  CE2       19.7270   19.6610   67.3130 C.ar   59  PHE59      -0.0003
     50  CZ        18.4440   19.6430   66.7890 C.ar   59  PHE59      -0.0000
     51  N         20.5040   14.6300   64.1500 N.am   60  GLY60      -0.1940
     52  CA        19.5570   14.4600   63.0570 C.3    60  GLY60       0.2014
     53  C         18.2610   14.0060   63.6960 C.2    60  GLY60       0.2640
     54  O         18.2730   13.4270   64.7910 O.2    60  GLY60      -0.2714
     55  N         17.1360   14.2800   63.0500 N.am   61  SER61      -0.1935
     56  CA        15.8590   13.9350   63.6550 C.3    61  SER61       0.2055
     57  C         14.7980   13.6740   62.6040 C.2    61  SER61       0.2643
     58  O         14.8230   14.2610   61.5290 O.2    61  SER61      -0.2714
     59  CB        15.3890   15.0660   64.5720 C.3    61  SER61       0.2130
     60  OG        14.1390   14.7530   65.1770 O.3    61  SER61      -0.2179
     61  N         13.8550   12.8000   62.9270 N.am   62  TYR62      -0.1959
     62  CA        12.6860   12.6100   62.0840 C.3    62  TYR62       0.1771
     63  C         11.4770   12.5790   63.0100 C.2    62  TYR62       0.2619
     64  O         11.3750   11.7150   63.8860 O.2    62  TYR62      -0.2715
     65  CB        12.7890   11.3100   61.2830 C.3    62  TYR62       0.0574
     66  CG        11.9210   11.3040   60.0440 C.ar   62  TYR62      -0.0198
     67  CD1       12.4350   11.6540   58.8050 C.ar   62  TYR62      -0.0009
     68  CD2       10.5730   10.9710   60.1240 C.ar   62  TYR62      -0.0009
     69  CE1       11.6300   11.6560   57.6640 C.ar   62  TYR62       0.0417
     70  CE2        9.7590   10.9700   58.9980 C.ar   62  TYR62       0.0417
     71  CZ        10.2890   11.3100   57.7690 C.ar   62  TYR62       0.1957
     72  OH         9.4600   11.3130   56.6510 O.3    62  TYR62      -0.2866
     73  N         10.5830   13.5440   62.8290 N.am   63  VAL63      -0.1963
     74  CA         9.4380   13.7210   63.7110 C.3    63  VAL63       0.1727
     75  C          8.1700   13.9340   62.9010 C.2    63  VAL63       0.2617
     76  O          8.2130   14.1110   61.6790 O.2    63  VAL63      -0.2715
     77  CB         9.6170   14.9320   64.6500 C.3    63  VAL63       0.0290
     78  CG1       10.9410   14.8290   65.3960 C.3    63  VAL63       0.0023
     79  CG2        9.5450   16.2460   63.8510 C.3    63  VAL63       0.0023
     80  N          7.0400   13.9120   63.5970 N.am   64  THR64      -0.1937
     81  CA         5.7540   14.1730   62.9740 C.3    64  THR64       0.2028
     82  C          5.1120   15.3320   63.7250 C.2    64  THR64       0.2642
     83  O          5.1370   15.3660   64.9620 O.2    64  THR64      -0.2714
     84  CB         4.8570   12.9390   63.0490 C.3    64  THR64       0.1808
     85  OG1        5.4160   11.8920   62.2430 O.3    64  THR64      -0.2208
     86  CG2        3.4640   13.2610   62.5570 C.3    64  THR64       0.0379
     87  N          4.5580   16.2910   62.9920 N.am   65  HIS65      -0.1959
     88  CA         4.0230   17.4890   63.6300 C.3    65  HIS65       0.1787
     89  C          2.6580   17.8680   63.0920 C.2    65  HIS65       0.2620
     90  O          2.3250   17.5860   61.9500 O.2    65  HIS65      -0.2715
     91  CB         4.9750   18.6740   63.4400 C.3    65  HIS65       0.0785
     92  CG         5.1380   19.0950   62.0120 C.ar   65  HIS65       0.0821
     93  ND1        4.2190   19.8930   61.3600 N.ar   65  HIS65      -0.2267
     94  CD2        6.1130   18.8310   61.1110 C.ar   65  HIS65       0.1154
     95  CE1        4.6250   20.1010   60.1180 C.ar   65  HIS65       0.1986
     96  NE2        5.7700   19.4660   59.9420 N.ar   65  HIS65      -0.2212
     97  N          1.8760   18.5260   63.9320 N.am   66  GLU66      -0.1963
     98  CA         0.6180   19.1080   63.5040 C.3    66  GLU66       0.1733
     99  C          0.8840   20.1510   62.4260 C.2    66  GLU66       0.2616
    100  O          1.8670   20.9000   62.4870 O.2    66  GLU66      -0.2715
    101  CB        -0.0710   19.7210   64.7230 C.3    66  GLU66       0.0429
    102  CG        -1.3040   20.5390   64.4520 C.3    66  GLU66       0.1163
    103  CD        -1.8700   21.1180   65.7350 C.2    66  GLU66       0.3649
    104  OE1       -1.8100   20.4220   66.7750 O.co2  66  GLU66      -0.2457
    105  OE2       -2.3630   22.2660   65.7020 O.co2  66  GLU66      -0.2457
    106  N          0.0220   20.1770   61.4180 N.am   67  LYS67      -0.1977
    107  CA         0.1450   21.1380   60.3300 C.3    67  LYS67       0.1596
    108  C          0.2360   22.5620   60.8870 C.2    67  LYS67       0.2287
    109  O         -0.4470   22.8980   61.8530 O.2    67  LYS67      -0.2864
    110  CB        -1.0310   20.9610   59.3610 C.3    67  LYS67       0.0298
    111  CG        -1.4590   22.2080   58.6090 C.3    67  LYS67       0.0038
    112  CD        -2.5130   21.8580   57.5410 C.3    67  LYS67       0.0206
    113  CE        -3.0410   23.0970   56.8120 C.3    67  LYS67       0.1093
    114  NZ        -3.9500   23.9150   57.6720 N.3    67  LYS67      -0.1314
    115  N          5.5140   23.7420   63.1430 N.3    70  PHE70      -0.1241
    116  CA         6.8700   23.2100   63.0510 C.3    70  PHE70       0.1605
    117  C          7.8180   24.3090   62.6080 C.2    70  PHE70       0.2264
    118  O          7.5530   25.0080   61.6330 O.2    70  PHE70      -0.2867
    119  CB         6.9210   22.0360   62.0590 C.3    70  PHE70       0.0534
    120  CG         8.3030   21.7330   61.5410 C.ar   70  PHE70      -0.0203
    121  CD1        9.2070   21.0120   62.3100 C.ar   70  PHE70      -0.0042
    122  CD2        8.6970   22.1610   60.2800 C.ar   70  PHE70      -0.0042
    123  CE1       10.4980   20.7310   61.8340 C.ar   70  PHE70      -0.0003
    124  CE2        9.9780   21.8790   59.8000 C.ar   70  PHE70      -0.0003
    125  CZ        10.8770   21.1640   60.5810 C.ar   70  PHE70      -0.0000
    126  N         12.3280   24.9630   62.4540 N.3    72  TYR72      -0.1241
    127  CA        13.6860   24.5190   62.7140 C.3    72  TYR72       0.1605
    128  C         14.6080   25.6700   62.3480 C.2    72  TYR72       0.2264
    129  O         14.6200   26.1300   61.1960 O.2    72  TYR72      -0.2867
    130  CB        14.0040   23.2630   61.8820 C.3    72  TYR72       0.0534
    131  CG        15.4720   22.9070   61.8490 C.ar   72  TYR72      -0.0201
    132  CD1       16.1560   22.5810   63.0130 C.ar   72  TYR72      -0.0009
    133  CD2       16.1750   22.8940   60.6500 C.ar   72  TYR72      -0.0009
    134  CE1       17.5040   22.2620   62.9850 C.ar   72  TYR72       0.0417
    135  CE2       17.5210   22.5720   60.6120 C.ar   72  TYR72       0.0417
    136  CZ        18.1790   22.2640   61.7840 C.ar   72  TYR72       0.1957
    137  OH        19.5110   21.9440   61.7420 O.3    72  TYR72      -0.2866
    138  N         18.3560   28.2360   63.6170 N.3    74  TYR74      -0.1241
    139  CA        19.5820   28.3910   64.3850 C.3    74  TYR74       0.1605
    140  C         19.5790   29.7490   65.0360 C.2    74  TYR74       0.2264
    141  O         19.0720   30.7110   64.4640 O.2    74  TYR74      -0.2867
    142  CB        20.8140   28.3360   63.4680 C.3    74  TYR74       0.0534
    143  CG        21.4060   26.9630   63.2920 C.ar   74  TYR74      -0.0201
    144  CD1       20.8320   26.0460   62.4140 C.ar   74  TYR74      -0.0009
    145  CD2       22.5470   26.5830   63.9970 C.ar   74  TYR74      -0.0009
    146  CE1       21.3690   24.7840   62.2450 C.ar   74  TYR74       0.0417
    147  CE2       23.1040   25.3240   63.8280 C.ar   74  TYR74       0.0417
    148  CZ        22.5060   24.4300   62.9530 C.ar   74  TYR74       0.1957
    149  OH        23.0470   23.1830   62.7810 O.3    74  TYR74      -0.2866
    150  N         25.4380   29.2310   66.9310 N.3    77  PRO77      -0.2116
    151  CA        25.8260   27.8550   66.6230 C.3    77  PRO77       0.1372
    152  C         24.7730   26.8390   67.0590 C.2    77  PRO77       0.2244
    153  O         24.9530   25.6480   66.8310 O.2    77  PRO77      -0.2868
    154  CB        27.0750   27.6700   67.4760 C.3    77  PRO77       0.0268
    155  CG        26.7670   28.4860   68.7070 C.3    77  PRO77       0.0207
    156  CD        26.0390   29.7060   68.1910 C.3    77  PRO77       0.0892
    157  N         21.1980   24.9200   67.1790 N.3    79  ALA79      -0.1245
    158  CA        19.9960   24.5640   66.4300 C.3    79  ALA79       0.1562
    159  C         18.7930   24.3360   67.3490 C.2    79  ALA79       0.2260
    160  O         18.9220   23.7570   68.4290 O.2    79  ALA79      -0.2867
    161  CB        20.2440   23.3270   65.5810 C.3    79  ALA79       0.0290
    162  N         14.8240   22.7520   67.2670 N.3    81  LEU81      -0.1245
    163  CA        13.7090   22.0650   66.6040 C.3    81  LEU81       0.1561
    164  C         12.4930   22.1930   67.5180 C.2    81  LEU81       0.2260
    165  O         12.5090   21.7060   68.6500 O.2    81  LEU81      -0.2867
    166  CB        14.0640   20.5900   66.3540 C.3    81  LEU81       0.0270
    167  CG        12.9840   19.5860   65.9310 C.3    81  LEU81       0.0019
    168  CD1       12.3040   20.0320   64.6590 C.3    81  LEU81       0.0001
    169  CD2       13.5870   18.1880   65.7610 C.3    81  LEU81       0.0001
    170  N          2.4170   18.3790   68.6380 N.3    85  THR85      -0.1203
    171  CA         1.5130   17.2760   68.3100 C.3    85  THR85       0.1994
    172  C          0.2210   17.4470   69.1130 C.2    85  THR85       0.2617
    173  O          0.0640   18.4220   69.8460 O.2    85  THR85      -0.2717
    174  CB         2.1230   15.8940   68.6290 C.3    85  THR85       0.1784
    175  OG1        2.3550   15.7740   70.0430 O.3    85  THR85      -0.2211
    176  CG2        3.4510   15.6900   67.8690 C.3    85  THR85       0.0376
    177  N         -0.7040   16.5040   68.9770 N.am   86  ALA86      -0.1979
    178  CA        -1.9550   16.5650   69.7350 C.3    86  ALA86       0.1597
    179  C         -1.6820   16.7570   71.2350 C.2    86  ALA86       0.2287
    180  O         -0.8860   16.0470   71.8340 O.2    86  ALA86      -0.2864
    181  CB        -2.7670   15.3000   69.5010 C.3    86  ALA86       0.0319
@<TRIPOS>BOND
     1     4     3    2
     2    72    71    1
     3   113   112    1
     4   113   114    1
     5     3     2    1
     6     3    10   am
     7   112   111    1
     8    14    11    1
     9    11    10    1
    10    11    12    1
    11     9     8    1
    12    69    71   ar
    13    69    67   ar
    14    21    20   ar
    15    71    70   ar
    16     2     5    1
    17     2     1    1
    18    20    19    1
    19    20    22   ar
    20     7     8    1
    21     7     6    1
    22    19    16    1
    23    16    15    1
    24    16    17    1
    25    12    13    2
    26   111   110    1
    27     5     6    1
    28    67    66   ar
    29    70    68   ar
    30   110   107    1
    31    17    18    2
    32   124   122   ar
    33   124   125   ar
    34    96    95   ar
    35    96    94   ar
    36    66    68   ar
    37    66    65    1
    38    95    93   ar
    39   122   120   ar
    40   107   108    1
    41   107   106    1
    42   125   123   ar
    43   135   133   ar
    44   135   136   ar
    45   133   131   ar
    46   108   109    2
    47    94    92   ar
    48   129   128    2
    49    65    62    1
    50    93    92   ar
    51   106    99   am
    52    58    57    2
    53   120   119    1
    54   120   121   ar
    55   118   117    2
    56    76    75    2
    57   137   136    1
    58   136   134   ar
    59   123   121   ar
    60   131   130    1
    61   131   132   ar
    62   130   127    1
    63    90    89    2
    64    92    91    1
    65   119   116    1
    66    62    61    1
    67    62    63    1
    68    85    84    1
    69   146   144   ar
    70   146   148   ar
    71   128   127    1
    72   144   143   ar
    73    99   100    2
    74    99    98    1
    75   126   127    1
    76    86    84    1
    77    57    61   am
    78    57    56    1
    79   117   116    1
    80   149   148    1
    81    73    63   am
    82    73    74    1
    83    75    80   am
    84    75    74    1
    85   148   147   ar
    86    81    84    1
    87    81    80    1
    88    81    82    1
    89   134   132   ar
    90    87    88    1
    91    87    82   am
    92    63    64    2
    93    55    56    1
    94    55    53   am
    95   116   115    1
    96    52    53    1
    97    52    51    1
    98    89    88    1
    99    89    97   am
   100   143   142    1
   101   143   145   ar
   102    91    88    1
   103   142   139    1
   104    98    97    1
   105    98   101    1
   106   138   139    1
   107    56    59    1
   108    53    54    2
   109    74    77    1
   110    82    83    2
   111    43    42    2
   112   147   145   ar
   113    79    77    1
   114    51    42   am
   115   139   140    1
   116   102   101    1
   117   102   103    1
   118   141   140    2
   119    42    41    1
   120    59    60    1
   121    77    78    1
   122   168   167    1
   123    39    37   am
   124   161   158    1
   125   105   103   ar
   126   103   104   ar
   127   169   167    1
   128    41    40    1
   129    41    44    1
   130    40    34   am
   131    26    25    2
   132   167   166    1
   133    37    38    2
   134    37    36    1
   135    48    46   ar
   136    48    50   ar
   137   166   163    1
   138    46    45   ar
   139   158   157    1
   140   158   159    1
   141    33    34    1
   142    33    36    1
   143    33    32    1
   144   163   162    1
   145   163   164    1
   146   151   150    1
   147   151   152    1
   148   151   154    1
   149    34    35    2
   150    50    49   ar
   151   153   152    2
   152    45    44    1
   153    45    47   ar
   154   150   156    1
   155    25    32   am
   156    25    24    1
   157    49    47   ar
   158   159   160    2
   159   154   155    1
   160   164   165    2
   161    24    27    1
   162    24    23    1
   163   176   174    1
   164   156   155    1
   165   171   174    1
   166   171   170    1
   167   171   172    1
   168    27    28    1
   169   174   175    1
   170   177   172   am
   171   177   178    1
   172   172   173    2
   173    28    29    1
   174   181   178    1
   175   178   179    1
   176    29    30    1
   177    30    31    1
   178   179   180    2
