@<TRIPOS>MOLECULE
tmp/4dsaA00.pdb
 179 175 0 0 0
SMALL
GASTEIGER

@<TRIPOS>ATOM
      1  N         16.5160   -9.9570  -12.6930 N.3    85  ARG85      -0.1231
      2  CA        15.5160  -10.5880  -13.5500 C.3    85  ARG85       0.1694
      3  C         15.8780  -11.9970  -14.0070 C.2    85  ARG85       0.2592
      4  O         15.0490  -12.8950  -13.9430 O.2    85  ARG85      -0.2718
      5  CB        15.1990   -9.7170  -14.7610 C.3    85  ARG85       0.0321
      6  CG        14.0060  -10.2490  -15.5340 C.3    85  ARG85       0.0489
      7  CD        13.8620   -9.5390  -16.8580 C.3    85  ARG85       0.2205
      8  NE        13.3450   -8.1880  -16.7000 N.pl3  85  ARG85      -0.0865
      9  CZ        12.0660   -7.9030  -16.4710 C.cat  85  ARG85       0.5346
     10  NH1       11.1800   -8.8850  -16.3640 N.pl3  85  ARG85       0.1354
     11  NH2       11.6700   -6.6400  -16.3480 N.pl3  85  ARG85       0.1354
     12  N         17.1130  -12.1670  -14.4720 N.am   86  HIS86      -0.1976
     13  CA        17.6030  -13.4480  -14.9720 C.3    86  HIS86       0.1656
     14  C         18.7830  -13.9750  -14.1610 C.2    86  HIS86       0.2291
     15  O         19.1520  -15.1500  -14.2430 O.2    86  HIS86      -0.2864
     16  CB        18.0150  -13.3130  -16.4230 C.3    86  HIS86       0.0771
     17  CG        17.0550  -12.5230  -17.2980 C.ar   86  HIS86       0.0820
     18  ND1       15.9660  -13.0750  -17.8660 N.ar   86  HIS86      -0.2267
     19  CD2       17.1200  -11.2060  -17.7790 C.ar   86  HIS86       0.1154
     20  CE1       15.3410  -12.1520  -18.6410 C.ar   86  HIS86       0.1986
     21  NE2       16.0540  -11.0130  -18.5940 N.ar   86  HIS86      -0.2212
     22  N         19.5240   -6.6300  -18.1130 N.3   165  GLU165     -0.1231
     23  CA        18.1430   -6.1940  -18.2490 C.3   165  GLU165      0.1699
     24  C         17.8100   -5.6980  -19.6350 C.2   165  GLU165      0.2592
     25  O         16.8930   -6.2040  -20.2750 O.2   165  GLU165     -0.2718
     26  CB        17.8450   -5.0860  -17.2370 C.3   165  GLU165      0.0402
     27  CG        16.4770   -4.4380  -17.3760 C.3   165  GLU165      0.1161
     28  CD        15.3250   -5.2960  -16.8570 C.2   165  GLU165      0.3649
     29  OE1       15.5530   -6.4080  -16.2980 O.co2 165  GLU165     -0.2457
     30  OE2       14.1660   -4.8410  -17.0110 O.co2 165  GLU165     -0.2457
     31  N         18.5710   -4.7150  -20.0920 N.am  166  GLU166     -0.1979
     32  CA        18.2080   -3.9590  -21.2690 C.3   166  GLU166      0.1602
     33  C         18.8380   -4.4330  -22.5910 C.2   166  GLU166      0.2287
     34  O         18.3820   -4.0120  -23.6610 O.2   166  GLU166     -0.2864
     35  CB        18.4750   -2.4750  -21.0190 C.3   166  GLU166      0.0415
     36  CG        17.8040   -1.9210  -19.7670 C.3   166  GLU166      0.1163
     37  CD        16.2890   -1.8040  -19.8920 C.2   166  GLU166      0.3649
     38  OE1       15.7410   -2.0430  -20.9950 O.co2 166  GLU166     -0.2457
     39  OE2       15.6290   -1.4650  -18.8830 O.co2 166  GLU166     -0.2457
     40  N         19.3280   -9.8440  -22.0040 N.3   169  SER169     -0.1217
     41  CA        18.2240  -10.5580  -21.3160 C.3   169  SER169      0.1889
     42  C         18.6490  -11.9120  -20.7470 C.2   169  SER169      0.2288
     43  O         17.8680  -12.8750  -20.7540 O.2   169  SER169     -0.2866
     44  CB        17.0130  -10.7440  -22.2240 C.3   169  SER169      0.2089
     45  OG        16.6770   -9.5230  -22.8220 O.3   169  SER169     -0.2183
     46  N         14.1640   -3.8610  -30.0580 N.3   317  PHE317     -0.1241
     47  CA        14.7790   -3.4740  -28.7990 C.3   317  PHE317      0.1605
     48  C         16.2980   -3.5360  -28.9360 C.2   317  PHE317      0.2264
     49  O         17.0300   -2.8560  -28.2160 O.2   317  PHE317     -0.2867
     50  CB        14.3060   -4.3980  -27.6860 C.3   317  PHE317      0.0534
     51  CG        12.8300   -4.3110  -27.4180 C.ar  317  PHE317     -0.0203
     52  CD1       12.3100   -3.2700  -26.6610 C.ar  317  PHE317     -0.0042
     53  CD2       11.9640   -5.2650  -27.9190 C.ar  317  PHE317     -0.0042
     54  CE1       10.9560   -3.1820  -26.4090 C.ar  317  PHE317     -0.0003
     55  CE2       10.6070   -5.1790  -27.6690 C.ar  317  PHE317     -0.0003
     56  CZ        10.1040   -4.1320  -26.9150 C.ar  317  PHE317     -0.0000
     57  N         -0.3110   -0.9510  -21.0250 N.3   507  TYR507     -0.1241
     58  CA         1.1500   -0.9810  -21.0670 C.3   507  TYR507      0.1605
     59  C          1.7030    0.1550  -21.9380 C.2   507  TYR507      0.2264
     60  O          2.2990    1.0990  -21.3990 O.2   507  TYR507     -0.2867
     61  CB         1.7410   -2.3390  -21.4540 C.3   507  TYR507      0.0534
     62  CG         3.2390   -2.3430  -21.2610 C.ar  507  TYR507     -0.0201
     63  CD1        3.8020   -2.3870  -19.9700 C.ar  507  TYR507     -0.0009
     64  CD2        4.1010   -2.2410  -22.3540 C.ar  507  TYR507     -0.0009
     65  CE1        5.1820   -2.3530  -19.7790 C.ar  507  TYR507      0.0417
     66  CE2        5.4860   -2.2300  -22.1750 C.ar  507  TYR507      0.0417
     67  CZ         6.0210   -2.2820  -20.8890 C.ar  507  TYR507      0.1957
     68  OH         7.3880   -2.2560  -20.7050 O.3   507  TYR507     -0.2866
     69  N          5.2300   -4.4520  -34.3310 N.3   545  TYR545     -0.1241
     70  CA         4.7690   -5.4750  -35.2610 C.3   545  TYR545      0.1605
     71  C          3.7670   -4.9210  -36.2950 C.2   545  TYR545      0.2264
     72  O          2.9680   -5.6590  -36.8770 O.2   545  TYR545     -0.2867
     73  CB         4.1900   -6.6560  -34.4860 C.3   545  TYR545      0.0534
     74  CG         5.0040   -7.0690  -33.2840 C.ar  545  TYR545     -0.0201
     75  CD1        6.2830   -7.5950  -33.4380 C.ar  545  TYR545     -0.0009
     76  CD2        4.4960   -6.9520  -31.9920 C.ar  545  TYR545     -0.0009
     77  CE1        7.0370   -7.9980  -32.3400 C.ar  545  TYR545      0.0417
     78  CE2        5.2440   -7.3510  -30.8880 C.ar  545  TYR545      0.0417
     79  CZ         6.5130   -7.8760  -31.0700 C.ar  545  TYR545      0.1957
     80  OH         7.2660   -8.2750  -29.9960 O.3   545  TYR545     -0.2866
     81  N          4.6890   -0.6760  -14.3320 N.3   590  SER590     -0.1202
     82  CA         5.9340   -0.3260  -15.0190 C.3   590  SER590      0.2020
     83  C          5.6660    0.8120  -16.0660 C.2   590  SER590      0.2618
     84  O          5.1730    1.8800  -15.6920 O.2   590  SER590     -0.2717
     85  CB         6.5320   -1.6150  -15.6090 C.3   590  SER590      0.2103
     86  OG         7.6590   -1.3860  -16.4120 O.3   590  SER590     -0.2182
     87  N          5.9470    0.6090  -17.3550 N.am  591  TYR591     -0.1975
     88  CA         5.6020    1.6270  -18.3580 C.3   591  TYR591      0.1639
     89  C          4.1310    1.9830  -18.2940 C.2   591  TYR591      0.2290
     90  O          3.7720    3.1540  -18.2970 O.2   591  TYR591     -0.2864
     91  CB         5.9100    1.1520  -19.7770 C.3   591  TYR591      0.0560
     92  CG         6.0680    2.2940  -20.7660 C.ar  591  TYR591     -0.0198
     93  CD1        4.9570    2.8970  -21.3480 C.ar  591  TYR591     -0.0009
     94  CD2        7.3370    2.7810  -21.1130 C.ar  591  TYR591     -0.0009
     95  CE1        5.0970    3.9470  -22.2450 C.ar  591  TYR591      0.0417
     96  CE2        7.4790    3.8280  -22.0070 C.ar  591  TYR591      0.0417
     97  CZ         6.3540    4.4060  -22.5650 C.ar  591  TYR591      0.1957
     98  OH         6.4750    5.4480  -23.4460 O.3   591  TYR591     -0.2866
     99  N          7.3490    4.4590  -13.7320 N.3   616  VAL616     -0.1245
    100  CA         8.3550    5.4560  -14.0100 C.3   616  VAL616      0.1561
    101  C          7.6370    6.7900  -13.8990 C.2   616  VAL616      0.2260
    102  O          6.4710    6.9120  -14.3010 O.2   616  VAL616     -0.2867
    103  CB         8.9290    5.2380  -15.4090 C.3   616  VAL616      0.0252
    104  CG1        9.6680    6.4770  -15.9180 C.3   616  VAL616      0.0019
    105  CG2        9.8110    4.0060  -15.3680 C.3   616  VAL616      0.0019
    106  N         11.8050   10.4190  -16.7860 N.3   619  TRP619     -0.1241
    107  CA        12.7350    9.5650  -17.5530 C.3   619  TRP619      0.1605
    108  C         14.1780    9.5920  -17.1270 C.2   619  TRP619      0.2264
    109  O         14.8850    8.5880  -17.2220 O.2   619  TRP619     -0.2867
    110  CB        12.5940    9.8010  -19.0390 C.3   619  TRP619      0.0550
    111  CG        11.3260    9.1590  -19.4750 C.ar  619  TRP619      0.0003
    112  CD1       10.1540    9.7790  -19.8800 C.ar  619  TRP619      0.0946
    113  CD2       11.0200    7.7210  -19.4750 C.ar  619  TRP619      0.0152
    114  NE1        9.1830    8.8440  -20.1660 N.ar  619  TRP619     -0.2442
    115  CE2        9.6340    7.5960  -19.9370 C.ar  619  TRP619      0.0810
    116  CE3       11.7340    6.5700  -19.1690 C.ar  619  TRP619      0.0012
    117  CZ2        9.0100    6.3730  -20.0630 C.ar  619  TRP619      0.0191
    118  CZ3       11.0910    5.3390  -19.3140 C.ar  619  TRP619      0.0001
    119  CH2        9.7580    5.2460  -19.7420 C.ar  619  TRP619      0.0015
    120  N         15.3420    6.5720  -15.0270 N.3   622  TYR622     -0.1241
    121  CA        15.3660    5.2060  -15.5180 C.3   622  TYR622      0.1605
    122  C         16.7350    4.9410  -16.1220 C.2   622  TYR622      0.2264
    123  O         17.5050    5.8700  -16.2980 O.2   622  TYR622     -0.2867
    124  CB        14.1930    4.9010  -16.4830 C.3   622  TYR622      0.0534
    125  CG        13.9640    3.4190  -16.5670 C.ar  622  TYR622     -0.0201
    126  CD1       13.8690    2.6600  -15.3980 C.ar  622  TYR622     -0.0009
    127  CD2       13.9040    2.7610  -17.7920 C.ar  622  TYR622     -0.0009
    128  CE1       13.7020    1.2870  -15.4400 C.ar  622  TYR622      0.0417
    129  CE2       13.7410    1.3830  -17.8440 C.ar  622  TYR622      0.0417
    130  CZ        13.6510    0.6500  -16.6600 C.ar  622  TYR622      0.1957
    131  OH        13.5170   -0.7210  -16.6740 O.3   622  TYR622     -0.2866
    132  N         17.7230    1.8700  -21.9980 N.3   626  TYR626     -0.1241
    133  CA        16.3220    1.8800  -22.3840 C.3   626  TYR626      0.1605
    134  C         15.8850    3.2900  -22.6890 C.2   626  TYR626      0.2264
    135  O         15.2980    3.5470  -23.7420 O.2   626  TYR626     -0.2867
    136  CB        15.4500    1.3050  -21.2760 C.3   626  TYR626      0.0534
    137  CG        13.9800    1.1630  -21.6140 C.ar  626  TYR626     -0.0201
    138  CD1       13.0670    2.1570  -21.2680 C.ar  626  TYR626     -0.0009
    139  CD2       13.5020    0.0180  -22.2610 C.ar  626  TYR626     -0.0009
    140  CE1       11.7210    2.0200  -21.5750 C.ar  626  TYR626      0.0417
    141  CE2       12.1580   -0.1300  -22.5670 C.ar  626  TYR626      0.0417
    142  CZ        11.2690    0.8690  -22.2210 C.ar  626  TYR626      0.1957
    143  OH         9.9290    0.7180  -22.5150 O.3   626  TYR626     -0.2866
    144  N         17.5430    4.9930  -25.8230 N.3   629  ARG629     -0.1245
    145  CA        17.1610    4.2910  -27.0450 C.3   629  ARG629      0.1563
    146  C         15.9390    4.9510  -27.6250 C.2   629  ARG629      0.2260
    147  O         15.6990    4.8720  -28.8270 O.2   629  ARG629     -0.2867
    148  CB        16.8380    2.8270  -26.7550 C.3   629  ARG629      0.0307
    149  CG        16.3820    2.0290  -27.9650 C.3   629  ARG629      0.0489
    150  CD        15.8680    0.6770  -27.5210 C.3   629  ARG629      0.2205
    151  NE        16.8520   -0.0500  -26.7170 N.pl3 629  ARG629     -0.0865
    152  CZ        16.5600   -1.0470  -25.8800 C.cat 629  ARG629      0.5346
    153  NH1       15.3070   -1.4530  -25.7180 N.pl3 629  ARG629      0.1354
    154  NH2       17.5260   -1.6400  -25.1940 N.pl3 629  ARG629      0.1354
    155  N         14.8090   -2.0120  -10.3870 N.3   670  ASN670     -0.1225
    156  CA        14.5830   -1.7040  -11.7770 C.3   670  ASN670      0.1785
    157  C         13.9540   -0.3270  -11.9680 C.2   670  ASN670      0.2597
    158  O         14.5620    0.5610  -12.5530 O.2   670  ASN670     -0.2718
    159  CB        13.7640   -2.8140  -12.4050 C.3   670  ASN670      0.1169
    160  CG        13.6530   -2.6860  -13.9020 C.2   670  ASN670      0.2627
    161  OD1       13.9040   -1.6160  -14.4820 O.2   670  ASN670     -0.2716
    162  ND2       13.2400   -3.7790  -14.5460 N.am  670  ASN670     -0.0877
    163  N         12.7380   -0.1470  -11.4750 N.am  671  VAL671     -0.1980
    164  CA        12.1490    1.1880  -11.3830 C.3   671  VAL671      0.1595
    165  C         12.2350    1.5270   -9.8960 C.2   671  VAL671      0.2287
    166  O         11.6130    0.8750   -9.0660 O.2   671  VAL671     -0.2864
    167  CB        10.6970    1.2350  -11.9390 C.3   671  VAL671      0.0276
    168  CG1       10.0820    2.6150  -11.7790 C.3   671  VAL671      0.0022
    169  CG2       10.6830    0.8800  -13.4070 C.3   671  VAL671      0.0022
    170  N         10.5140   -5.4840   -8.5670 N.3   700  HIS700     -0.1241
    171  CA         9.6680   -4.8870   -9.6100 C.3   700  HIS700      0.1621
    172  C          8.5620   -5.8160   -9.9620 C.2   700  HIS700      0.2264
    173  O          7.6440   -5.4460  -10.6780 O.2   700  HIS700     -0.2867
    174  CB        10.4680   -4.5020  -10.8510 C.3   700  HIS700      0.0745
    175  CG         9.7190   -3.6050  -11.8040 C.ar  700  HIS700      0.0817
    176  ND1        9.2210   -2.4010  -11.4360 N.ar  700  HIS700     -0.2268
    177  CD2        9.4120   -3.7610  -13.1570 C.ar  700  HIS700      0.1154
    178  CE1        8.6040   -1.8260  -12.5000 C.ar  700  HIS700      0.1986
    179  NE2        8.7210   -2.6590  -13.5510 N.ar  700  HIS700     -0.2212
@<TRIPOS>BOND
     1    72    71    2
     2    71    70    1
     3    70    73    1
     4    70    69    1
     5    73    74    1
     6    75    74   ar
     7    75    77   ar
     8    74    76   ar
     9    77    79   ar
    10    76    78   ar
    11    79    78   ar
    12    79    80    1
    13    46    47    1
    14    48    47    1
    15    48    49    2
    16   147   146    2
    17    47    50    1
    18   149   150    1
    19   149   148    1
    20    53    55   ar
    21    53    51   ar
    22    50    51    1
    23    55    56   ar
    24   146   145    1
    25   150   151    1
    26    51    52   ar
    27   145   148    1
    28   145   144    1
    29    56    54   ar
    30   151   152    2
    31    52    54   ar
    32   152   153    1
    33   152   154    1
    34   135   134    2
    35    34    33    2
    36    98    97    1
    37    45    44    1
    38   134   133    1
    39    33    32    1
    40   141   139   ar
    41   141   142   ar
    42    97    95   ar
    43    97    96   ar
    44   143   142    1
    45   133   132    1
    46   133   136    1
    47    64    66   ar
    48    64    62   ar
    49   139   137   ar
    50    95    93   ar
    51    44    41    1
    52   142   140   ar
    53    66    67   ar
    54    96    94   ar
    55    40    41    1
    56    59    60    2
    57    59    58    1
    58   137   136    1
    59   137   138   ar
    60   140   138   ar
    61    61    62    1
    62    61    58    1
    63    93    92   ar
    64    41    42    1
    65    32    35    1
    66    32    31    1
    67    62    63   ar
    68    94    92   ar
    69    58    57    1
    70    35    36    1
    71    38    37   ar
    72    67    68    1
    73    67    65   ar
    74    92    91    1
    75    43    42    2
    76    25    24    2
    77   114   115   ar
    78   114   112   ar
    79    31    24   am
    80   117   115   ar
    81   117   119   ar
    82    63    65   ar
    83   115   113   ar
    84    37    36    1
    85    37    39   ar
    86   112   111   ar
    87    91    88    1
    88   119   118   ar
    89    24    23    1
    90   113   111   ar
    91   113   116   ar
    92   111   110    1
    93   118   116   ar
    94   110   107    1
    95    20    21   ar
    96    20    18   ar
    97    21    19   ar
    98    88    89    1
    99    88    87    1
   100    90    89    2
   101    23    22    1
   102    23    26    1
   103    18    17   ar
   104   129   127   ar
   105   129   130   ar
   106   127   125   ar
   107    19    17   ar
   108   107   108    1
   109   107   106    1
   110    27    26    1
   111    27    28    1
   112    87    83   am
   113    17    16    1
   114   109   108    2
   115    30    28   ar
   116     7     8    1
   117     7     6    1
   118    28    29   ar
   119     8     9    2
   120   131   130    1
   121   130   128   ar
   122   125   124    1
   123   125   126   ar
   124   124   121    1
   125     9    10    1
   126     9    11    1
   127    16    13    1
   128    86    85    1
   129   123   122    2
   130   122   121    1
   131    83    84    2
   132    83    82    1
   133   104   103    1
   134    85    82    1
   135     6     5    1
   136   121   120    1
   137   128   126   ar
   138   103   105    1
   139   103   100    1
   140    82    81    1
   141    13    12    1
   142    13    14    1
   143     5     2    1
   144   162   160   am
   145   161   160    2
   146    12     3   am
   147   102   101    2
   148    15    14    2
   149   100   101    1
   150   100    99    1
   151     3     4    2
   152     3     2    1
   153   160   159    1
   154   179   177   ar
   155   179   178   ar
   156     2     1    1
   157   169   167    1
   158   177   175   ar
   159   158   157    2
   160   178   176   ar
   161   159   156    1
   162   157   156    1
   163   157   163   am
   164   167   168    1
   165   167   164    1
   166   175   176   ar
   167   175   174    1
   168   156   155    1
   169   163   164    1
   170   164   165    1
   171   174   171    1
   172   173   172    2
   173   172   171    1
   174   165   166    2
   175   171   170    1
