@<TRIPOS>MOLECULE
tmp/4dsgA01.pdb
 242 241 0 0 0
SMALL
GASTEIGER

@<TRIPOS>ATOM
      1  N         65.9250    0.8260  -48.7700 N.3    88  VAL88      -0.1245
      2  CA        66.4060   -0.2620  -49.6110 C.3    88  VAL88       0.1561
      3  C         67.2630    0.3070  -50.7530 C.2    88  VAL88       0.2260
      4  O         66.8110    1.1820  -51.5080 O.2    88  VAL88      -0.2867
      5  CB        65.2340   -1.0840  -50.2080 C.3    88  VAL88       0.0252
      6  CG1       65.7580   -2.2850  -50.9930 C.3    88  VAL88       0.0019
      7  CG2       64.2780   -1.5400  -49.1280 C.3    88  VAL88       0.0019
      8  N         61.5790    1.7910  -46.8660 N.3    97  TYR97      -0.1228
      9  CA        61.0040    0.5250  -46.4160 C.3    97  TYR97       0.1721
     10  C         59.5150    0.7260  -46.1230 C.2    97  TYR97       0.2437
     11  O         59.1220    1.7870  -45.6390 O.2    97  TYR97      -0.2733
     12  CB        61.7180    0.0660  -45.1300 C.3    97  TYR97       0.0547
     13  CG        60.9910   -1.0270  -44.3670 C.ar   97  TYR97      -0.0200
     14  CD1       59.9950   -0.7140  -43.4520 C.ar   97  TYR97      -0.0009
     15  CD2       61.2920   -2.3750  -44.5740 C.ar   97  TYR97      -0.0009
     16  CE1       59.3220   -1.7050  -42.7530 C.ar   97  TYR97       0.0417
     17  CE2       60.6180   -3.3740  -43.8880 C.ar   97  TYR97       0.0417
     18  CZ        59.6340   -3.0330  -42.9760 C.ar   97  TYR97       0.1957
     19  OH        58.9630   -4.0160  -42.2720 O.3    97  TYR97      -0.2866
     20  N         58.6750   -0.2760  -46.4110 N.am   98  PRO98      -0.2718
     21  CA        58.9270   -1.5270  -47.1330 C.3    98  PRO98       0.1535
     22  C         58.9790   -1.2650  -48.6330 C.2    98  PRO98       0.2599
     23  O         58.2400   -0.4190  -49.1520 O.2    98  PRO98      -0.2715
     24  CB        57.6800   -2.3750  -46.8290 C.3    98  PRO98       0.0310
     25  CG        56.9510   -1.6510  -45.6960 C.3    98  PRO98       0.0237
     26  CD        57.2890   -0.2100  -45.9150 C.3    98  PRO98       0.0939
     27  N         59.8550   -1.9950  -49.3100 N.am   99  PHE99      -0.1960
     28  CA        60.0490   -1.8510  -50.7390 C.3    99  PHE99       0.1771
     29  C         58.7280   -1.8600  -51.5090 C.2    99  PHE99       0.2619
     30  O         58.4660   -0.9720  -52.3260 O.2    99  PHE99      -0.2715
     31  CB        60.9410   -2.9800  -51.2640 C.3    99  PHE99       0.0574
     32  CG        61.0790   -2.9760  -52.7500 C.ar   99  PHE99      -0.0200
     33  CD1       62.0780   -2.2430  -53.3620 C.ar   99  PHE99      -0.0042
     34  CD2       60.1810   -3.6700  -53.5390 C.ar   99  PHE99      -0.0042
     35  CE1       62.1890   -2.2190  -54.7420 C.ar   99  PHE99      -0.0003
     36  CE2       60.2850   -3.6550  -54.9150 C.ar   99  PHE99      -0.0003
     37  CZ        61.2890   -2.9260  -55.5170 C.ar   99  PHE99      -0.0000
     38  N         57.9090   -2.8750  -51.2400 N.am  100  GLN100     -0.1977
     39  CA        56.7110   -3.1470  -52.0270 C.3   100  GLN100      0.1601
     40  C         55.6910   -2.0210  -51.9410 C.2   100  GLN100      0.2287
     41  O         54.8860   -1.8450  -52.8540 O.2   100  GLN100     -0.2864
     42  CB        56.0600   -4.4740  -51.6010 C.3   100  GLN100      0.0394
     43  CG        55.6410   -4.5360  -50.1250 C.3   100  GLN100      0.0908
     44  CD        56.7200   -5.1360  -49.2400 C.2   100  GLN100      0.2608
     45  OE1       57.9040   -4.7980  -49.3590 O.2   100  GLN100     -0.2717
     46  NE2       56.3220   -6.0510  -48.3620 N.am  100  GLN100     -0.0878
     47  N         56.4600  -19.7940  -49.7850 N.3   133  PHE133     -0.1241
     48  CA        56.6760  -18.3540  -49.6630 C.3   133  PHE133      0.1605
     49  C         56.8760  -17.6710  -51.0230 C.2   133  PHE133      0.2264
     50  O         56.2610  -16.6360  -51.2980 O.2   133  PHE133     -0.2867
     51  CB        57.8320  -18.0750  -48.6730 C.3   133  PHE133      0.0534
     52  CG        58.0920  -16.6030  -48.4120 C.ar  133  PHE133     -0.0203
     53  CD1       57.0420  -15.7250  -48.1660 C.ar  133  PHE133     -0.0042
     54  CD2       59.3960  -16.1070  -48.3910 C.ar  133  PHE133     -0.0042
     55  CE1       57.2860  -14.3700  -47.9290 C.ar  133  PHE133     -0.0003
     56  CE2       59.6520  -14.7480  -48.1570 C.ar  133  PHE133     -0.0003
     57  CZ        58.5920  -13.8820  -47.9220 C.ar  133  PHE133     -0.0000
     58  N         62.9460   -7.2940  -56.0490 N.3   149  PHE149     -0.1227
     59  CA        63.2170   -7.3210  -54.6150 C.3   149  PHE149      0.1736
     60  C         63.0090   -8.6710  -53.9050 C.2   149  PHE149      0.2595
     61  O         63.9320   -9.1920  -53.2960 O.2   149  PHE149     -0.2718
     62  CB        62.4370   -6.2280  -53.8780 C.3   149  PHE149      0.0547
     63  CG        62.6740   -6.2390  -52.3980 C.ar  149  PHE149     -0.0202
     64  CD1       63.7890   -5.6150  -51.8630 C.ar  149  PHE149     -0.0042
     65  CD2       61.8160   -6.9200  -51.5530 C.ar  149  PHE149     -0.0042
     66  CE1       64.0420   -5.6540  -50.4940 C.ar  149  PHE149     -0.0003
     67  CE2       62.0560   -6.9540  -50.1730 C.ar  149  PHE149     -0.0003
     68  CZ        63.1720   -6.3160  -49.6500 C.ar  149  PHE149     -0.0000
     69  N         61.8020   -9.2260  -53.9780 N.am  150  MET150     -0.1979
     70  CA        61.4380  -10.3340  -53.1020 C.3   150  MET150      0.1605
     71  C         62.3250  -11.5480  -53.2670 C.2   150  MET150      0.2287
     72  O         62.8040  -12.1220  -52.2830 O.2   150  MET150     -0.2864
     73  CB        59.9670  -10.7240  -53.2880 C.3   150  MET150      0.0413
     74  CG        58.9960   -9.7200  -52.6860 C.3   150  MET150      0.0598
     75  SD        59.1340   -9.5770  -50.8790 S.3   150  MET150     -0.1393
     76  CE        57.9960   -8.2280  -50.5810 C.3   150  MET150      0.0692
     77  N         66.2060  -10.5370  -52.5790 N.3   153  TYR153     -0.1227
     78  CA        66.4490  -10.1570  -51.1830 C.3   153  TYR153      0.1736
     79  C         66.2450  -11.3500  -50.2460 C.2   153  TYR153      0.2595
     80  O         67.0470  -11.5950  -49.3410 O.2   153  TYR153     -0.2718
     81  CB        65.6250   -8.9560  -50.6810 C.3   153  TYR153      0.0548
     82  CG        66.0150   -8.6840  -49.2420 C.ar  153  TYR153     -0.0200
     83  CD1       67.2100   -8.0510  -48.9490 C.ar  153  TYR153     -0.0009
     84  CD2       65.2460   -9.1580  -48.1850 C.ar  153  TYR153     -0.0009
     85  CE1       67.6200   -7.8610  -47.6440 C.ar  153  TYR153      0.0417
     86  CE2       65.6390   -8.9690  -46.8740 C.ar  153  TYR153      0.0417
     87  CZ        66.8290   -8.3190  -46.6130 C.ar  153  TYR153      0.1957
     88  OH        67.2450   -8.1390  -45.3250 O.3   153  TYR153     -0.2866
     89  N         65.1740  -12.1000  -50.4600 N.am  154  ASN154     -0.1974
     90  CA        64.9070  -13.2210  -49.5660 C.3   154  ASN154      0.1688
     91  C         65.9690  -14.3190  -49.5880 C.2   154  ASN154      0.2292
     92  O         66.3780  -14.8010  -48.5330 O.2   154  ASN154     -0.2864
     93  CB        63.4880  -13.7500  -49.7390 C.3   154  ASN154      0.1181
     94  CG        62.4800  -12.9160  -48.9720 C.2   154  ASN154      0.2629
     95  OD1       62.4570  -12.9540  -47.7520 O.2   154  ASN154     -0.2716
     96  ND2       61.6580  -12.1420  -49.6840 N.am  154  ASN154     -0.0877
     97  N         68.9880  -12.9230  -47.5460 N.3   157  VAL157     -0.1231
     98  CA        68.9580  -12.9310  -46.0880 C.3   157  VAL157      0.1692
     99  C         68.8130  -14.3490  -45.5190 C.2   157  VAL157      0.2592
    100  O         69.5610  -14.7450  -44.6240 O.2   157  VAL157     -0.2718
    101  CB        67.9010  -11.9680  -45.4900 C.3   157  VAL157      0.0266
    102  CG1       66.5150  -12.2740  -46.0210 C.3   157  VAL157      0.0020
    103  CG2       67.9310  -12.0510  -43.9360 C.3   157  VAL157      0.0020
    104  N         67.8810  -15.1220  -46.0660 N.am  158  TRP158     -0.1976
    105  CA        67.5840  -16.4410  -45.5160 C.3   158  TRP158      0.1640
    106  C         68.6110  -17.5010  -45.8720 C.2   158  TRP158      0.2290
    107  O         68.7230  -18.4940  -45.1740 O.2   158  TRP158     -0.2864
    108  CB        66.1970  -16.9110  -45.9490 C.3   158  TRP158      0.0576
    109  CG        65.0730  -16.1040  -45.3760 C.ar  158  TRP158      0.0006
    110  CD1       64.3390  -15.1620  -46.0240 C.ar  158  TRP158      0.0946
    111  CD2       64.5540  -16.1700  -44.0400 C.ar  158  TRP158      0.0152
    112  NE1       63.3940  -14.6270  -45.1760 N.ar  158  TRP158     -0.2442
    113  CE2       63.5010  -15.2360  -43.9540 C.ar  158  TRP158      0.0810
    114  CE3       64.8720  -16.9300  -42.9110 C.ar  158  TRP158      0.0012
    115  CZ2       62.7650  -15.0370  -42.7840 C.ar  158  TRP158      0.0191
    116  CZ3       64.1370  -16.7290  -41.7390 C.ar  158  TRP158      0.0001
    117  CH2       63.1050  -15.7820  -41.6850 C.ar  158  TRP158      0.0015
    118  N         54.4050  -17.2570  -41.4110 N.3   169  TRP169     -0.1241
    119  CA        55.2130  -16.5570  -40.4310 C.3   169  TRP169      0.1605
    120  C         55.2160  -15.0690  -40.7300 C.2   169  TRP169      0.2264
    121  O         55.8460  -14.2990  -40.0050 O.2   169  TRP169     -0.2867
    122  CB        56.6530  -17.0650  -40.5000 C.3   169  TRP169      0.0550
    123  CG        57.1960  -16.9930  -41.9040 C.ar  169  TRP169      0.0003
    124  CD1       57.0830  -17.9500  -42.8710 C.ar  169  TRP169      0.0946
    125  CD2       57.8950  -15.8960  -42.5080 C.ar  169  TRP169      0.0152
    126  NE1       57.6820  -17.5290  -44.0320 N.ar  169  TRP169     -0.2442
    127  CE2       58.1890  -16.2730  -43.8440 C.ar  169  TRP169      0.0810
    128  CE3       58.3110  -14.6380  -42.0520 C.ar  169  TRP169      0.0012
    129  CZ2       58.8770  -15.4300  -44.7380 C.ar  169  TRP169      0.0191
    130  CZ3       58.9980  -13.7990  -42.9340 C.ar  169  TRP169      0.0001
    131  CH2       59.2670  -14.2020  -44.2690 C.ar  169  TRP169      0.0015
    132  N         55.9090   -9.3170  -40.6810 N.3   173  ARG173     -0.1231
    133  CA        57.1850   -9.1630  -41.3800 C.3   173  ARG173      0.1694
    134  C         57.0260   -8.6830  -42.8260 C.2   173  ARG173      0.2592
    135  O         57.8100   -7.8700  -43.3010 O.2   173  ARG173     -0.2718
    136  CB        57.9870  -10.4680  -41.3310 C.3   173  ARG173      0.0321
    137  CG        58.0760  -11.1040  -39.9460 C.3   173  ARG173      0.0489
    138  CD        59.1800  -10.4860  -39.0700 C.3   173  ARG173      0.2205
    139  NE        59.2930  -11.1980  -37.7970 N.pl3 173  ARG173     -0.0865
    140  CZ        60.3440  -11.1520  -36.9820 C.cat 173  ARG173      0.5346
    141  NH1       61.4150  -10.4200  -37.2820 N.pl3 173  ARG173      0.1354
    142  NH2       60.3270  -11.8480  -35.8550 N.pl3 173  ARG173      0.1354
    143  N         56.0000   -9.1700  -43.5140 N.am  174  VAL174     -0.1966
    144  CA        55.8120   -8.8660  -44.9270 C.3   174  VAL174      0.1727
    145  C         54.5480   -8.0360  -45.1370 C.2   174  VAL174      0.2616
    146  O         53.4320   -8.5350  -44.9970 O.2   174  VAL174     -0.2715
    147  CB        55.7420  -10.1620  -45.7740 C.3   174  VAL174      0.0290
    148  CG1       55.6520   -9.8310  -47.2470 C.3   174  VAL174      0.0023
    149  CG2       56.9640  -11.0330  -45.5030 C.3   174  VAL174      0.0023
    150  N         54.7340   -6.7620  -45.4650 N.am  175  ALA175     -0.1977
    151  CA        53.6290   -5.8270  -45.5550 C.3   175  ALA175      0.1597
    152  C         52.8540   -6.0550  -46.8480 C.2   175  ALA175      0.2287
    153  O         53.4540   -6.3090  -47.8990 O.2   175  ALA175     -0.2864
    154  CB        54.1500   -4.3810  -45.4880 C.3   175  ALA175      0.0319
    155  N         58.3170   -2.4070  -35.5580 N.3   198  ASN198     -0.1240
    156  CA        59.5300   -1.6610  -35.2120 C.3   198  ASN198      0.1653
    157  C         59.6150   -0.2560  -35.8320 C.2   198  ASN198      0.2266
    158  O         60.7040    0.3100  -35.9490 O.2   198  ASN198     -0.2867
    159  CB        60.7870   -2.4770  -35.5180 C.3   198  ASN198      0.1155
    160  CG        60.8490   -2.9120  -36.9580 C.2   198  ASN198      0.2627
    161  OD1       60.1380   -2.3720  -37.7970 O.2   198  ASN198     -0.2716
    162  ND2       61.6970   -3.8920  -37.2560 N.am  198  ASN198     -0.0877
    163  N         68.7760    1.2310  -40.4570 N.3   312  TRP312     -0.1241
    164  CA        69.2790    0.0960  -41.2110 C.3   312  TRP312      0.1605
    165  C         68.8640    0.1090  -42.6710 C.2   312  TRP312      0.2264
    166  O         67.8820    0.7390  -43.0550 O.2   312  TRP312     -0.2867
    167  CB        68.9340   -1.2400  -40.5530 C.3   312  TRP312      0.0550
    168  CG        67.4630   -1.5890  -40.4490 C.ar  312  TRP312      0.0003
    169  CD1       66.7010   -2.2740  -41.3690 C.ar  312  TRP312      0.0946
    170  CD2       66.6000   -1.3190  -39.3350 C.ar  312  TRP312      0.0152
    171  NE1       65.4170   -2.4320  -40.8910 N.ar  312  TRP312     -0.2442
    172  CE2       65.3310   -1.8540  -39.6480 C.ar  312  TRP312      0.0810
    173  CE3       66.7790   -0.6720  -38.1030 C.ar  312  TRP312      0.0012
    174  CZ2       64.2470   -1.7630  -38.7690 C.ar  312  TRP312      0.0191
    175  CZ3       65.6980   -0.5700  -37.2420 C.ar  312  TRP312      0.0001
    176  CH2       64.4490   -1.1190  -37.5800 C.ar  312  TRP312      0.0015
    177  N         68.6980   -2.1190  -46.5130 N.3   314  TYR314     -0.1241
    178  CA        68.5620   -3.4140  -47.1680 C.3   314  TYR314      0.1605
    179  C         69.2430   -3.4360  -48.5350 C.2   314  TYR314      0.2264
    180  O         69.1860   -2.4480  -49.2800 O.2   314  TYR314     -0.2867
    181  CB        67.0900   -3.7610  -47.3430 C.3   314  TYR314      0.0534
    182  CG        66.3370   -3.9550  -46.0550 C.ar  314  TYR314     -0.0201
    183  CD1       66.4470   -5.1380  -45.3440 C.ar  314  TYR314     -0.0009
    184  CD2       65.4880   -2.9700  -45.5670 C.ar  314  TYR314     -0.0009
    185  CE1       65.7440   -5.3390  -44.1720 C.ar  314  TYR314      0.0417
    186  CE2       64.7790   -3.1580  -44.3900 C.ar  314  TYR314      0.0417
    187  CZ        64.9180   -4.3440  -43.6970 C.ar  314  TYR314      0.1957
    188  OH        64.2240   -4.5520  -42.5300 O.3   314  TYR314     -0.2866
    189  N         71.9460   -6.7430  -45.1220 N.3   324  ARG324     -0.1245
    190  CA        71.6030   -5.5450  -44.3530 C.3   324  ARG324      0.1563
    191  C         72.8450   -4.8420  -43.8150 C.2   324  ARG324      0.2260
    192  O         73.8400   -5.4980  -43.4860 O.2   324  ARG324     -0.2867
    193  CB        70.6750   -5.9070  -43.1930 C.3   324  ARG324      0.0307
    194  CG        70.2960   -4.7450  -42.2800 C.3   324  ARG324      0.0489
    195  CD        69.0810   -5.1080  -41.4320 C.3   324  ARG324      0.2205
    196  NE        69.3240   -6.3100  -40.6460 N.pl3 324  ARG324     -0.0865
    197  CZ        68.3790   -7.1320  -40.1980 C.cat 324  ARG324      0.5346
    198  NH1       67.1000   -6.9020  -40.4650 N.pl3 324  ARG324      0.1354
    199  NH2       68.7210   -8.2000  -39.4950 N.pl3 324  ARG324      0.1354
    200  N         69.4030  -17.6980  -37.9130 N.3   392  TYR392     -0.1241
    201  CA        67.9630  -17.6010  -38.1260 C.3   392  TYR392      0.1605
    202  C         67.3830  -18.9980  -38.1360 C.2   392  TYR392      0.2264
    203  O         67.9150  -19.8700  -38.8120 O.2   392  TYR392     -0.2867
    204  CB        67.6580  -16.9950  -39.4890 C.3   392  TYR392      0.0534
    205  CG        67.7410  -15.4980  -39.5950 C.ar  392  TYR392     -0.0201
    206  CD1       66.6260  -14.7510  -39.9570 C.ar  392  TYR392     -0.0009
    207  CD2       68.9470  -14.8260  -39.3760 C.ar  392  TYR392     -0.0009
    208  CE1       66.7030  -13.3650  -40.0880 C.ar  392  TYR392      0.0417
    209  CE2       69.0360  -13.4530  -39.5070 C.ar  392  TYR392      0.0417
    210  CZ        67.9140  -12.7260  -39.8660 C.ar  392  TYR392      0.1957
    211  OH        68.0090  -11.3610  -39.9980 O.3   392  TYR392     -0.2866
    212  N         64.4540  -18.7310  -29.4020 N.3   420  ARG420     -0.1245
    213  CA        64.6170  -18.5790  -30.8460 C.3   420  ARG420      0.1563
    214  C         64.9700  -19.8880  -31.5440 C.2   420  ARG420      0.2260
    215  O         64.3460  -20.2480  -32.5350 O.2   420  ARG420     -0.2867
    216  CB        65.6800  -17.5270  -31.1620 C.3   420  ARG420      0.0307
    217  CG        65.8900  -17.2750  -32.6480 C.3   420  ARG420      0.0489
    218  CD        66.9490  -16.2120  -32.8390 C.3   420  ARG420      0.2205
    219  NE        67.2520  -15.8540  -34.2330 N.pl3 420  ARG420     -0.0865
    220  CZ        66.5700  -14.9490  -34.9370 C.cat 420  ARG420      0.5346
    221  NH1       65.5140  -14.3470  -34.4080 N.pl3 420  ARG420      0.1354
    222  NH2       66.9330  -14.6540  -36.1730 N.pl3 420  ARG420      0.1354
    223  N         60.6360  -18.5940  -35.8080 N.3   426  TYR426     -0.1241
    224  CA        61.0760  -17.2710  -36.2500 C.3   426  TYR426      0.1605
    225  C         60.0760  -16.1540  -35.9470 C.2   426  TYR426      0.2264
    226  O         60.4600  -15.0880  -35.4820 O.2   426  TYR426     -0.2867
    227  CB        61.3840  -17.2710  -37.7580 C.3   426  TYR426      0.0534
    228  CG        61.6100  -15.8710  -38.3070 C.ar  426  TYR426     -0.0201
    229  CD1       62.8270  -15.2100  -38.1160 C.ar  426  TYR426     -0.0009
    230  CD2       60.6040  -15.2040  -38.9900 C.ar  426  TYR426     -0.0009
    231  CE1       63.0320  -13.9330  -38.6040 C.ar  426  TYR426      0.0417
    232  CE2       60.8040  -13.9250  -39.4900 C.ar  426  TYR426      0.0417
    233  CZ        62.0140  -13.2970  -39.2940 C.ar  426  TYR426      0.1957
    234  OH        62.2040  -12.0290  -39.7900 O.3   426  TYR426     -0.2866
    235  N         62.1580  -12.7380  -31.6700 N.3   430  ASN430     -0.1240
    236  CA        62.8730  -11.5320  -31.2430 C.3   430  ASN430      0.1653
    237  C         63.1550  -11.5830  -29.7300 C.2   430  ASN430      0.2266
    238  O         62.7720  -12.5410  -29.0580 O.2   430  ASN430     -0.2867
    239  CB        62.0840  -10.2640  -31.5960 C.3   430  ASN430      0.1155
    240  CG        61.7800  -10.1480  -33.0870 C.2   430  ASN430      0.2627
    241  OD1       62.4970  -10.6980  -33.9250 O.2   430  ASN430     -0.2716
    242  ND2       60.7140   -9.4210  -33.4210 N.am  430  ASN430     -0.0877
@<TRIPOS>BOND
     1    58    59    1
     2    37    36   ar
     3    37    35   ar
     4    36    34   ar
     5    35    33   ar
     6    59    60    1
     7    59    62    1
     8    69    60   am
     9    69    70    1
    10    60    61    2
    11    62    63    1
    12    34    32   ar
    13    33    32   ar
    14    73    70    1
    15    73    74    1
    16    71    70    1
    17    71    72    2
    18    41    40    2
    19    32    31    1
    20    74    75    1
    21    77    78    1
    22    63    64   ar
    23    63    65   ar
    24    30    29    2
    25    39    40    1
    26    39    42    1
    27    39    38    1
    28    64    66   ar
    29    42    43    1
    30    65    67   ar
    31    29    38   am
    32    29    28    1
    33     4     3    2
    34    50    49    2
    35    31    28    1
    36    78    81    1
    37    78    79    1
    38    49    48    1
    39     6     5    1
    40    75    76    1
    41     3     2    1
    42    28    27    1
    43    81    82    1
    44    66    68   ar
    45    89    79   am
    46    89    90    1
    47    79    80    2
    48     5     2    1
    49     5     7    1
    50    67    68   ar
    51    43    44    1
    52    47    48    1
    53    93    90    1
    54    93    94    1
    55    96    94   am
    56    48    51    1
    57     2     1    1
    58    91    90    1
    59    91    92    2
    60    45    44    2
    61    27    22   am
    62   180   179    2
    63    82    83   ar
    64    82    84   ar
    65    44    46   am
    66    23    22    2
    67    94    95    2
    68    83    85   ar
    69    51    52    1
    70    22    21    1
    71   179   178    1
    72    52    54   ar
    73    52    53   ar
    74    54    56   ar
    75    84    86   ar
    76    53    55   ar
    77    56    57   ar
    78    55    57   ar
    79   153   152    2
    80    85    87   ar
    81    97    98    1
    82   181   178    1
    83   181   182    1
    84   148   147    1
    85   178   177    1
    86    21    24    1
    87    21    20    1
    88    86    87   ar
    89     8     9    1
    90   152   151    1
    91    24    25    1
    92    87    88    1
    93     9    10    1
    94     9    12    1
    95    20    10   am
    96    20    26    1
    97    10    11    2
    98    98    99    1
    99    98   101    1
   100   104    99   am
   101   104   105    1
   102   182   184   ar
   103   182   183   ar
   104   110   109   ar
   105   110   112   ar
   106   102   101    1
   107   108   105    1
   108   108   109    1
   109    26    25    1
   110   106   105    1
   111   106   107    2
   112   147   149    1
   113   147   144    1
   114   184   186   ar
   115   151   154    1
   116   151   150    1
   117    99   100    2
   118   101   103    1
   119   150   145   am
   120   109   111   ar
   121   183   185   ar
   122   112   113   ar
   123   145   146    2
   124   145   144    1
   125    12    13    1
   126   189   190    1
   127   144   143    1
   128   129   131   ar
   129   129   127   ar
   130    15    13   ar
   131    15    17   ar
   132   186   187   ar
   133    13    14   ar
   134   190   191    1
   135   190   193    1
   136   131   130   ar
   137   185   187   ar
   138   111   113   ar
   139   111   114   ar
   140   126   127   ar
   141   126   124   ar
   142   113   115   ar
   143    17    18   ar
   144   127   125   ar
   145   191   192    2
   146   187   188    1
   147   143   134   am
   148    14    16   ar
   149   135   134    2
   150   193   194    1
   151   166   165    2
   152    18    16   ar
   153    18    19    1
   154   130   128   ar
   155   114   116   ar
   156   124   123   ar
   157   134   133    1
   158   115   117   ar
   159   165   164    1
   160   125   128   ar
   161   125   123   ar
   162   194   195    1
   163   123   122    1
   164   116   117   ar
   165   195   196    1
   166   118   119    1
   167   133   136    1
   168   133   132    1
   169   169   171   ar
   170   169   168   ar
   171   136   137    1
   172   164   167    1
   173   164   163    1
   174   171   172   ar
   175   120   119    1
   176   120   121    2
   177   196   197    2
   178   167   168    1
   179   122   119    1
   180   198   197    1
   181   168   170   ar
   182   197   199    1
   183   208   206   ar
   184   208   210   ar
   185   211   210    1
   186   206   205   ar
   187   137   138    1
   188   210   209   ar
   189   234   233    1
   190   172   170   ar
   191   172   174   ar
   192   205   204    1
   193   205   207   ar
   194   209   207   ar
   195   232   233   ar
   196   232   230   ar
   197   204   201    1
   198   170   173   ar
   199   233   231   ar
   200   138   139    1
   201   230   228   ar
   202   203   202    2
   203   174   176   ar
   204   231   229   ar
   205   228   229   ar
   206   228   227    1
   207   202   201    1
   208   201   200    1
   209   173   175   ar
   210   139   140    2
   211   161   160    2
   212   227   224    1
   213   176   175   ar
   214   141   140    1
   215   162   160   am
   216   140   142    1
   217   160   159    1
   218   224   225    1
   219   224   223    1
   220   222   220    1
   221   158   157    2
   222   225   226    2
   223   157   156    1
   224   155   156    1
   225   159   156    1
   226   220   221    1
   227   220   219    2
   228   219   218    1
   229   241   240    2
   230   242   240   am
   231   240   239    1
   232   218   217    1
   233   217   216    1
   234   215   214    2
   235   235   236    1
   236   239   236    1
   237   214   213    1
   238   236   237    1
   239   216   213    1
   240   213   212    1
   241   237   238    2
