@<TRIPOS>MOLECULE
tmp/4dsoA01.pdb
 88 83 0 0 0
SMALL
GASTEIGER

@<TRIPOS>ATOM
      1  N         26.8650   17.0580    4.7850 N.3     5  LYS5       -0.1231
      2  CA        25.9490   16.3180    5.6520 C.3     5  LYS5        0.1693
      3  C         24.7820   15.7150    4.8670 C.2     5  LYS5        0.2592
      4  O         23.9070   16.4550    4.3890 O.2     5  LYS5       -0.2718
      5  CB        25.4060   17.2350    6.7280 C.3     5  LYS5        0.0285
      6  CG        26.4890   17.8210    7.5770 C.3     5  LYS5        0.0035
      7  CD        25.9060   18.7560    8.5890 C.3     5  LYS5        0.0206
      8  CE        26.9440   19.6770    9.1630 C.3     5  LYS5        0.1093
      9  NZ        27.8850   19.0090   10.1190 N.3     5  LYS5       -0.1314
     10  N         24.7630   14.3850    4.7550 N.am    6  LEU6       -0.1966
     11  CA        23.7650   13.6650    3.9620 C.3     6  LEU6        0.1728
     12  C         22.8230   12.8980    4.8890 C.2     6  LEU6        0.2616
     13  O         23.2490   12.3390    5.9160 O.2     6  LEU6       -0.2715
     14  CB        24.4460   12.6510    3.0290 C.3     6  LEU6        0.0311
     15  CG        25.6540   13.1200    2.2410 C.3     6  LEU6        0.0022
     16  CD1       26.0780   12.0310    1.2510 C.3     6  LEU6        0.0001
     17  CD2       25.3360   14.4130    1.4640 C.3     6  LEU6        0.0001
     18  N         21.5410   12.8830    4.5330 N.am    7  VAL7       -0.1977
     19  CA        20.5580   12.1820    5.3270 C.3     7  VAL7        0.1596
     20  C         19.8300   11.2090    4.4180 C.2     7  VAL7        0.2287
     21  O         19.2980   11.6090    3.3920 O.2     7  VAL7       -0.2864
     22  CB        19.5650   13.1580    5.9980 C.3     7  VAL7        0.0276
     23  CG1       18.4660   12.3870    6.7400 C.3     7  VAL7        0.0022
     24  CG2       20.3190   14.1180    6.9670 C.3     7  VAL7        0.0022
     25  N         25.0080    6.8230   12.2000 N.3    39  SER39      -0.1217
     26  CA        25.6950    7.7410   11.3120 C.3    39  SER39       0.1889
     27  C         27.0460    7.1530   10.9150 C.2    39  SER39       0.2288
     28  O         27.5460    6.2190   11.5350 O.2    39  SER39      -0.2866
     29  CB        25.8720    9.1070   11.9760 C.3    39  SER39       0.2089
     30  OG        26.8180    9.0380   13.0110 O.3    39  SER39      -0.2183
     31  N         30.9230    8.0960    8.6910 N.3    41  ARG41      -0.1245
     32  CA        31.7980    8.9940    7.9650 C.3    41  ARG41       0.1563
     33  C         32.5610    8.2310    6.8940 C.2    41  ARG41       0.2260
     34  O         32.9950    7.0960    7.1050 O.2    41  ARG41      -0.2867
     35  CB        32.8060    9.6790    8.8770 C.3    41  ARG41       0.0307
     36  CG        32.3960   11.0480    9.3410 C.3    41  ARG41       0.0489
     37  CD        31.1790   11.0120   10.2210 C.3    41  ARG41       0.2205
     38  NE        31.2630   10.0230   11.3110 N.pl3  41  ARG41      -0.0865
     39  CZ        30.2080    9.6500   12.0300 C.cat  41  ARG41       0.5346
     40  NH1       29.0330   10.1990   11.7910 N.pl3  41  ARG41       0.1354
     41  NH2       30.3010    8.7280   12.9640 N.pl3  41  ARG41       0.1354
     42  N         29.3530   12.9710    5.9340 N.3    54  ASP54      -0.1225
     43  CA        28.8010   12.6260    7.2290 C.3    54  ASP54       0.1805
     44  C         27.3620   12.2320    6.9820 C.2    54  ASP54       0.2598
     45  O         26.5360   13.0590    6.5870 O.2    54  ASP54      -0.2718
     46  CB        28.9060   13.7870    8.2120 C.3    54  ASP54       0.1424
     47  CG        28.7860   13.3370    9.6600 C.2    54  ASP54       0.3668
     48  OD1       28.2900   12.2170    9.9160 O.co2  54  ASP54      -0.2456
     49  OD2       29.2210   14.0860   10.5460 O.co2  54  ASP54      -0.2456
     50  N         27.0860   10.9450    7.1430 N.am   55  ILE55      -0.1966
     51  CA        25.8380   10.3630    6.6510 C.3    55  ILE55       0.1727
     52  C         24.9900    9.8910    7.8130 C.2    55  ILE55       0.2616
     53  O         25.4680    9.1400    8.6720 O.2    55  ILE55      -0.2715
     54  CB        26.1110    9.1800    5.7080 C.3    55  ILE55       0.0290
     55  CG1       26.9910    9.6440    4.5260 C.3    55  ILE55       0.0022
     56  CG2       24.7690    8.5310    5.2570 C.3    55  ILE55       0.0023
     57  CD1       27.6540    8.5060    3.7080 C.3    55  ILE55       0.0001
     58  N         23.7330   10.3280    7.8310 N.am   56  LEU56      -0.1977
     59  CA        22.7660    9.8260    8.7780 C.3    56  LEU56       0.1596
     60  C         21.8070    8.8270    8.1080 C.2    56  LEU56       0.2287
     61  O         21.1560    9.1290    7.0960 O.2    56  LEU56      -0.2864
     62  CB        21.9680   10.9590    9.3820 C.3    56  LEU56       0.0297
     63  CG        21.1770   10.5310   10.6190 C.3    56  LEU56       0.0022
     64  CD1       22.1530   10.2270   11.7330 C.3    56  LEU56       0.0001
     65  CD2       20.1940   11.6340   11.0220 C.3    56  LEU56       0.0001
     66  N         17.2950   16.3810   12.5040 N.3    71  TYR71      -0.1241
     67  CA        18.1860   15.9020   11.4470 C.3    71  TYR71       0.1605
     68  C         17.8070   16.4300   10.0940 C.2    71  TYR71       0.2264
     69  O         18.6580   16.4920    9.2080 O.2    71  TYR71      -0.2867
     70  CB        18.3910   14.3980   11.4460 C.3    71  TYR71       0.0534
     71  CG        17.2250   13.5390   11.1000 C.ar   71  TYR71      -0.0201
     72  CD1       16.7340   12.6140   12.0180 C.ar   71  TYR71      -0.0009
     73  CD2       16.6560   13.5740    9.8320 C.ar   71  TYR71      -0.0009
     74  CE1       15.6770   11.7610   11.6680 C.ar   71  TYR71       0.0417
     75  CE2       15.6140   12.7490    9.4970 C.ar   71  TYR71       0.0417
     76  CZ        15.1260   11.8530   10.4160 C.ar   71  TYR71       0.1957
     77  OH        14.0910   11.0300   10.0420 O.3    71  TYR71      -0.2866
     78  N         19.5940   19.8080   10.1020 N.3    74  THR74      -0.1203
     79  CA        21.0530   19.5170   10.0310 C.3    74  THR74       0.1994
     80  C         21.4980   19.0770    8.6260 C.2    74  THR74       0.2618
     81  O         22.5050   19.5520    8.0930 O.2    74  THR74      -0.2717
     82  CB        21.4510   18.4520   11.1100 C.3    74  THR74       0.1784
     83  OG1       21.2530   19.0040   12.4430 O.3    74  THR74      -0.2211
     84  CG2       22.9140   18.0380   10.9740 C.3    74  THR74       0.0376
     85  N         20.7340   18.1910    8.0200 N.am   75  GLY75      -0.1956
     86  CA        21.0760   17.6770    6.7110 C.3    75  GLY75       0.1869
     87  C         21.1480   18.7180    5.6060 C.2    75  GLY75       0.2309
     88  O         20.2850   19.5690    5.4970 O.2    75  GLY75      -0.2863
@<TRIPOS>BOND
     1    16    15    1
     2    17    15    1
     3    15    14    1
     4    14    11    1
     5    21    20    2
     6    57    55    1
     7    11    10    1
     8    11    12    1
     9     4     3    2
    10    20    19    1
    11    55    54    1
    12    18    12   am
    13    18    19    1
    14    10     3   am
    15     1     2    1
    16     3     2    1
    17    12    13    2
    18    56    54    1
    19    19    22    1
    20    88    87    2
    21    87    86    1
    22     2     5    1
    23    54    51    1
    24    42    43    1
    25    22    23    1
    26    22    24    1
    27    45    44    2
    28    51    50    1
    29    51    52    1
    30    86    85    1
    31     5     6    1
    32    33    34    2
    33    33    32    1
    34    44    50   am
    35    44    43    1
    36    61    60    2
    37    43    46    1
    38     6     7    1
    39    52    58   am
    40    52    53    2
    41    58    59    1
    42    32    31    1
    43    32    35    1
    44    85    80   am
    45    81    80    2
    46    60    59    1
    47    46    47    1
    48     7     8    1
    49    80    79    1
    50    59    62    1
    51    35    36    1
    52     8     9    1
    53    69    68    2
    54    36    37    1
    55    62    63    1
    56    75    73   ar
    57    75    76   ar
    58    47    48   ar
    59    47    49   ar
    60    73    71   ar
    61    79    78    1
    62    79    82    1
    63    77    76    1
    64    68    67    1
    65    37    38    1
    66    76    74   ar
    67    63    65    1
    68    63    64    1
    69    27    26    1
    70    27    28    2
    71    84    82    1
    72    71    70    1
    73    71    72   ar
    74    82    83    1
    75    38    39    2
    76    26    29    1
    77    26    25    1
    78    70    67    1
    79    67    66    1
    80    74    72   ar
    81    40    39    1
    82    29    30    1
    83    39    41    1
