@<TRIPOS>MOLECULE
tmp/4dstA00.pdb
 99 94 0 0 0
SMALL
GASTEIGER

@<TRIPOS>ATOM
      1  N         27.0400   17.2750    4.0150 N.3     5  LYS5       -0.1245
      2  CA        26.1470   16.5980    4.9490 C.3     5  LYS5        0.1561
      3  C         25.0210   15.8890    4.1950 C.2     5  LYS5        0.2260
      4  O         24.0960   16.5300    3.7010 O.2     5  LYS5       -0.2867
      5  CB        25.5550   17.6000    5.9400 C.3     5  LYS5        0.0271
      6  CG        26.5790   18.4060    6.7180 C.3     5  LYS5        0.0035
      7  CD        25.8890   19.4270    7.6140 C.3     5  LYS5        0.0206
      8  CE        26.8930   20.2660    8.3930 C.3     5  LYS5        0.1093
      9  NZ        27.7420   19.4340    9.2930 N.3     5  LYS5       -0.1314
     10  N         21.8700   13.1560    4.1760 N.3     7  VAL7       -0.1245
     11  CA        20.8920   12.4760    5.0180 C.3     7  VAL7        0.1561
     12  C         20.1110   11.4420    4.2000 C.2     7  VAL7        0.2260
     13  O         19.4970   11.7750    3.1880 O.2     7  VAL7       -0.2867
     14  CB        19.8990   13.4780    5.6460 C.3     7  VAL7        0.0252
     15  CG1       18.8580   12.7390    6.4930 C.3     7  VAL7        0.0019
     16  CG2       20.6410   14.5340    6.4900 C.3     7  VAL7        0.0019
     17  N         19.4430    5.6050   14.7390 N.3    37  GLU37      -0.1245
     18  CA        20.1900    6.6270   14.0250 C.3    37  GLU37       0.1567
     19  C         21.6570    6.2130   13.9640 C.2    37  GLU37       0.2260
     20  O         22.2130    5.7190   14.9510 O.2    37  GLU37      -0.2867
     21  CB        20.0380    7.9750   14.7270 C.3    37  GLU37       0.0388
     22  CG        20.7630    9.1280   14.0540 C.3    37  GLU37       0.1160
     23  CD        20.4360   10.4690   14.6930 C.2    37  GLU37       0.3649
     24  OE1       19.6240   11.2150   14.1010 O.co2  37  GLU37      -0.2457
     25  OE2       20.9820   10.7710   15.7800 O.co2  37  GLU37      -0.2457
     26  N         25.6490    7.4090   12.2800 N.3    39  SER39      -0.1202
     27  CA        26.4530    8.4630   11.6600 C.3    39  SER39       0.2020
     28  C         27.6940    7.8920   11.0110 C.2    39  SER39       0.2618
     29  O         28.4570    7.1680   11.6460 O.2    39  SER39      -0.2717
     30  CB        26.8700    9.5050   12.6930 C.3    39  SER39       0.2103
     31  OG        25.7350   10.0540   13.3290 O.3    39  SER39      -0.2182
     32  N         27.9020    8.2250    9.7440 N.am   40  TYR40      -0.1975
     33  CA        29.0440    7.6880    9.0210 C.3    40  TYR40       0.1639
     34  C         29.8820    8.7730    8.3920 C.2    40  TYR40       0.2290
     35  O         29.4070    9.8840    8.1430 O.2    40  TYR40      -0.2864
     36  CB        28.5980    6.7020    7.9410 C.3    40  TYR40       0.0560
     37  CG        27.8810    5.5000    8.4910 C.ar   40  TYR40      -0.0198
     38  CD1       26.4950    5.4520    8.5260 C.ar   40  TYR40      -0.0009
     39  CD2       28.5890    4.4110    8.9790 C.ar   40  TYR40      -0.0009
     40  CE1       25.8290    4.3450    9.0310 C.ar   40  TYR40       0.0417
     41  CE2       27.9330    3.2960    9.4840 C.ar   40  TYR40       0.0417
     42  CZ        26.5550    3.2720    9.5140 C.ar   40  TYR40       0.1957
     43  OH        25.9050    2.1630   10.0170 O.3    40  TYR40      -0.2866
     44  N         29.5860   13.4890    5.3700 N.3    54  ASP54      -0.1225
     45  CA        28.9700   13.2290    6.6650 C.3    54  ASP54       0.1805
     46  C         27.5900   12.6610    6.4140 C.2    54  ASP54       0.2598
     47  O         26.6530   13.4080    6.1230 O.2    54  ASP54      -0.2718
     48  CB        28.8420   14.5140    7.4830 C.3    54  ASP54       0.1424
     49  CG        30.1610   14.9690    8.0640 C.2    54  ASP54       0.3668
     50  OD1       30.4640   16.1810    7.9910 O.co2  54  ASP54      -0.2456
     51  OD2       30.8940   14.1110    8.6000 O.co2  54  ASP54      -0.2456
     52  N         27.4610   11.3440    6.5250 N.am   55  ILE55      -0.1966
     53  CA        26.2100   10.6800    6.1770 C.3    55  ILE55       0.1727
     54  C         25.3860   10.2730    7.3930 C.2    55  ILE55       0.2616
     55  O         25.8430    9.5110    8.2440 O.2    55  ILE55      -0.2715
     56  CB        26.4580    9.4510    5.2850 C.3    55  ILE55       0.0290
     57  CG1       27.2370    9.8670    4.0300 C.3    55  ILE55       0.0022
     58  CG2       25.1340    8.7890    4.9100 C.3    55  ILE55       0.0023
     59  CD1       27.9930    8.7230    3.3560 C.3    55  ILE55       0.0001
     60  N         24.1630   10.7880    7.4680 N.am   56  LEU56      -0.1977
     61  CA        23.2480   10.3960    8.5280 C.3    56  LEU56       0.1596
     62  C         22.2520    9.3550    8.0130 C.2    56  LEU56       0.2287
     63  O         21.5430    9.5780    7.0350 O.2    56  LEU56      -0.2864
     64  CB        22.5110   11.6160    9.0800 C.3    56  LEU56       0.0297
     65  CG        21.6310   11.4020   10.3150 C.3    56  LEU56       0.0022
     66  CD1       22.4730   10.9770   11.5090 C.3    56  LEU56       0.0001
     67  CD2       20.8550   12.6690   10.6420 C.3    56  LEU56       0.0001
     68  N         15.0850   17.8120   13.1080 N.3    70  GLN70      -0.1231
     69  CA        16.4860   18.1360   13.3450 C.3    70  GLN70       0.1698
     70  C         17.3930   17.7760   12.1690 C.2    70  GLN70       0.2592
     71  O         18.2420   18.5750   11.7750 O.2    70  GLN70      -0.2718
     72  CB        17.0020   17.4900   14.6300 C.3    70  GLN70       0.0381
     73  CG        18.4880   17.7120   14.8400 C.3    70  GLN70       0.0905
     74  CD        18.9270   17.5130   16.2750 C.2    70  GLN70       0.2608
     75  OE1       18.7860   18.4090   17.1110 O.2    70  GLN70      -0.2717
     76  NE2       19.4760   16.3410   16.5680 N.am   70  GLN70      -0.0878
     77  N         17.2330   16.5810   11.6080 N.am   71  TYR71      -0.1976
     78  CA        18.0700   16.2200   10.4700 C.3    71  TYR71       0.1639
     79  C         17.6260   16.9020    9.1680 C.2    71  TYR71       0.2290
     80  O         18.4400   17.1730    8.2890 O.2    71  TYR71      -0.2864
     81  CB        18.2540   14.6990   10.3270 C.3    71  TYR71       0.0560
     82  CG        17.0360   13.8620    9.9800 C.ar   71  TYR71      -0.0198
     83  CD1       16.5450   12.9110   10.8750 C.ar   71  TYR71      -0.0009
     84  CD2       16.4120   13.9770    8.7410 C.ar   71  TYR71      -0.0009
     85  CE1       15.4530   12.1200   10.5550 C.ar   71  TYR71       0.0417
     86  CE2       15.3150   13.1890    8.4110 C.ar   71  TYR71       0.0417
     87  CZ        14.8410   12.2610    9.3200 C.ar   71  TYR71       0.1957
     88  OH        13.7500   11.4730    8.9970 O.3    71  TYR71      -0.2866
     89  N         19.5200   20.2670    9.2420 N.3    74  THR74      -0.1203
     90  CA        20.9730   20.2050    9.1260 C.3    74  THR74       0.1994
     91  C         21.4560   19.6430    7.7880 C.2    74  THR74       0.2618
     92  O         22.4660   20.0930    7.2460 O.2    74  THR74      -0.2717
     93  CB        21.5740   19.3800   10.2830 C.3    74  THR74       0.1784
     94  OG1       20.9800   18.0760   10.3010 O.3    74  THR74      -0.2211
     95  CG2       21.2860   20.0610   11.6110 C.3    74  THR74       0.0376
     96  N         20.7380   18.6600    7.2560 N.am   75  GLY75      -0.1956
     97  CA        21.1470   18.0320    6.0130 C.3    75  GLY75       0.1869
     98  C         21.2810   19.0190    4.8690 C.2    75  GLY75       0.2309
     99  O         20.3920   19.8370    4.6390 O.2    75  GLY75      -0.2863
@<TRIPOS>BOND
     1    13    12    2
     2    59    57    1
     3     4     3    2
     4     1     2    1
     5    57    56    1
     6    10    11    1
     7     3     2    1
     8    12    11    1
     9    99    98    2
    10    98    97    1
    11    58    56    1
    12     2     5    1
    13    11    14    1
    14    56    53    1
    15    44    45    1
    16    14    16    1
    17    14    15    1
    18     5     6    1
    19    97    96    1
    20    47    46    2
    21    53    52    1
    22    53    54    1
    23    46    52   am
    24    46    45    1
    25    45    48    1
    26     6     7    1
    27    63    62    2
    28    92    91    2
    29    96    91   am
    30    54    60   am
    31    54    55    2
    32    60    61    1
    33    48    49    1
    34     7     8    1
    35    91    90    1
    36    36    37    1
    37    36    33    1
    38    50    49   ar
    39    62    61    1
    40    49    51   ar
    41    35    34    2
    42    80    79    2
    43    34    33    1
    44     8     9    1
    45    86    84   ar
    46    86    87   ar
    47    37    38   ar
    48    37    39   ar
    49    38    40   ar
    50    61    64    1
    51    84    82   ar
    52    39    41   ar
    53    88    87    1
    54    33    32    1
    55    40    42   ar
    56    64    65    1
    57    90    89    1
    58    90    93    1
    59    79    78    1
    60    87    85   ar
    61    41    42   ar
    62    42    43    1
    63    32    28   am
    64    82    81    1
    65    82    83   ar
    66    93    94    1
    67    93    95    1
    68    65    67    1
    69    65    66    1
    70    81    78    1
    71    78    77    1
    72    85    83   ar
    73    28    29    2
    74    28    27    1
    75    77    70   am
    76    27    26    1
    77    27    30    1
    78    71    70    2
    79    70    69    1
    80    30    31    1
    81    68    69    1
    82    69    72    1
    83    19    18    1
    84    19    20    2
    85    18    21    1
    86    18    17    1
    87    22    23    1
    88    22    21    1
    89    24    23   ar
    90    72    73    1
    91    23    25   ar
    92    73    74    1
    93    74    76   am
    94    74    75    2
