@<TRIPOS>MOLECULE
tmp/4dsuA01.pdb
 80 74 0 0 0
SMALL
GASTEIGER

@<TRIPOS>ATOM
      1  N         26.7610   16.7980    5.0010 N.3     5  LYS5       -0.1231
      2  CA        25.7910   16.1440    5.8760 C.3     5  LYS5        0.1693
      3  C         24.6890   15.5530    5.0310 C.2     5  LYS5        0.2592
      4  O         23.8980   16.2980    4.4620 O.2     5  LYS5       -0.2718
      5  CB        25.1380   17.1640    6.8010 C.3     5  LYS5        0.0285
      6  CG        25.1920   16.8030    8.2570 C.3     5  LYS5        0.0035
      7  CD        26.4890   17.2990    8.8460 C.3     5  LYS5        0.0206
      8  CE        26.5980   18.8010    8.6410 C.3     5  LYS5        0.1093
      9  NZ        27.6210   19.4160    9.5310 N.3     5  LYS5       -0.1314
     10  N         24.6240   14.2260    4.9630 N.am    6  LEU6       -0.1966
     11  CA        23.6030   13.5570    4.1670 C.3     6  LEU6        0.1728
     12  C         22.6240   12.8090    5.0590 C.2     6  LEU6        0.2616
     13  O         23.0150   12.2010    6.0630 O.2     6  LEU6       -0.2715
     14  CB        24.2400   12.5620    3.1960 C.3     6  LEU6        0.0311
     15  CG        25.4350   13.0720    2.4050 C.3     6  LEU6        0.0022
     16  CD1       25.9220   12.0000    1.4350 C.3     6  LEU6        0.0001
     17  CD2       25.0630   14.3380    1.6640 C.3     6  LEU6        0.0001
     18  N         21.3530   12.8350    4.6770 N.am    7  VAL7       -0.1977
     19  CA        20.3270   12.1190    5.4200 C.3     7  VAL7        0.1596
     20  C         19.6040   11.1620    4.4890 C.2     7  VAL7        0.2287
     21  O         19.0970   11.5750    3.4470 O.2     7  VAL7       -0.2864
     22  CB        19.3170   13.0910    6.0440 C.3     7  VAL7        0.0276
     23  CG1       18.2620   12.3290    6.8300 C.3     7  VAL7        0.0022
     24  CG2       20.0480   14.0970    6.9310 C.3     7  VAL7        0.0022
     25  N         24.6360    6.4870   12.3620 N.3    39  SER39      -0.1217
     26  CA        25.3080    7.4350   11.4880 C.3    39  SER39       0.1889
     27  C         26.7130    6.9300   11.1840 C.2    39  SER39       0.2288
     28  O         27.3230    6.2260   11.9910 O.2    39  SER39      -0.2866
     29  CB        25.3510    8.8310   12.1060 C.3    39  SER39       0.2089
     30  OG        26.0350    8.8160   13.3390 O.3    39  SER39      -0.2183
     31  N         30.5920    7.8900    9.0000 N.3    41  ARG41      -0.1245
     32  CA        31.4680    8.8450    8.3550 C.3    41  ARG41       0.1563
     33  C         32.3030    8.1080    7.3190 C.2    41  ARG41       0.2260
     34  O         32.7420    6.9720    7.5480 O.2    41  ARG41      -0.2867
     35  CB        32.4040    9.4900    9.3790 C.3    41  ARG41       0.0307
     36  CG        31.9620   10.8480    9.9370 C.3    41  ARG41       0.0489
     37  CD        30.6990   10.7620   10.7810 C.3    41  ARG41       0.2205
     38  NE        30.7370    9.6890   11.7720 N.pl3  41  ARG41      -0.0865
     39  CZ        29.6700    9.2690   12.4430 C.cat  41  ARG41       0.5346
     40  NH1       28.4860    9.8330   12.2250 N.pl3  41  ARG41       0.1354
     41  NH2       29.7800    8.2820   13.3220 N.pl3  41  ARG41       0.1354
     42  N         29.0950   12.5590    6.0950 N.3    54  ASP54      -0.1239
     43  CA        28.5370   12.2510    7.3990 C.3    54  ASP54       0.1674
     44  C         27.0910   11.8880    7.1420 C.2    54  ASP54       0.2266
     45  O         26.2900   12.7510    6.8030 O.2    54  ASP54      -0.2867
     46  CB        28.6330   13.4600    8.3270 C.3    54  ASP54       0.1410
     47  CG        28.4050   13.0950    9.7790 C.2    54  ASP54       0.3668
     48  OD1       27.7230   12.0800   10.0420 O.co2  54  ASP54      -0.2456
     49  OD2       28.9110   13.8230   10.6600 O.co2  54  ASP54      -0.2456
     50  N         23.4060   10.0770    8.0050 N.3    56  LEU56      -0.1245
     51  CA        22.4270    9.5860    8.9650 C.3    56  LEU56       0.1561
     52  C         21.4610    8.6150    8.2980 C.2    56  LEU56       0.2260
     53  O         20.7840    8.9680    7.3320 O.2    56  LEU56      -0.2867
     54  CB        21.6350   10.7420    9.5670 C.3    56  LEU56       0.0270
     55  CG        20.5970   10.3110   10.6020 C.3    56  LEU56       0.0019
     56  CD1       21.2690    9.7320   11.8400 C.3    56  LEU56       0.0001
     57  CD2       19.7000   11.4750   10.9630 C.3    56  LEU56       0.0001
     58  N         17.4590   16.5370   12.9230 N.3    68  TYR68      -0.1241
     59  CA        18.2960   15.9360   11.8860 C.3    68  TYR68       0.1605
     60  C         17.9610   16.4550   10.4840 C.2    68  TYR68       0.2264
     61  O         18.8430   16.5640    9.6310 O.2    68  TYR68      -0.2867
     62  CB        18.3410   14.3990   11.9670 C.3    68  TYR68       0.0534
     63  CG        17.1290   13.6350   11.4730 C.ar   68  TYR68      -0.0201
     64  CD1       16.3960   12.8330   12.3410 C.ar   68  TYR68      -0.0009
     65  CD2       16.7500   13.6660   10.1330 C.ar   68  TYR68      -0.0009
     66  CE1       15.3020   12.1080   11.8970 C.ar   68  TYR68       0.0417
     67  CE2       15.6510   12.9480    9.6820 C.ar   68  TYR68       0.0417
     68  CZ        14.9330   12.1710   10.5700 C.ar   68  TYR68       0.1957
     69  OH        13.8420   11.4520   10.1320 O.3    68  TYR68      -0.2866
     70  N         19.6930   19.6960   10.2430 N.3    71  THR71      -0.1203
     71  CA        21.1320   19.4330   10.1190 C.3    71  THR71       0.1994
     72  C         21.5370   19.0220    8.6950 C.2    71  THR71       0.2618
     73  O         22.5700   19.4590    8.1720 O.2    71  THR71      -0.2717
     74  CB        21.5710   18.3400   11.1160 C.3    71  THR71       0.1784
     75  OG1       21.1760   18.7160   12.4470 O.3    71  THR71      -0.2211
     76  CG2       23.0800   18.1400   11.0710 C.3    71  THR71       0.0376
     77  N         20.7200   18.1860    8.0660 N.am   72  GLY72      -0.1956
     78  CA        21.0590   17.6420    6.7600 C.3    72  GLY72       0.1869
     79  C         21.1710   18.6820    5.6580 C.2    72  GLY72       0.2309
     80  O         20.3570   19.6090    5.5830 O.2    72  GLY72      -0.2863
@<TRIPOS>BOND
     1    16    15    1
     2    17    15    1
     3    15    14    1
     4    14    11    1
     5    21    20    2
     6    11    10    1
     7    11    12    1
     8     4     3    2
     9    20    19    1
    10    18    12   am
    11    18    19    1
    12    10     3   am
    13     1     2    1
    14     3     2    1
    15    12    13    2
    16    19    22    1
    17    80    79    2
    18    79    78    1
    19     2     5    1
    20    22    23    1
    21    22    24    1
    22    42    43    1
    23    78    77    1
    24     5     6    1
    25    45    44    2
    26    44    43    1
    27    33    34    2
    28    33    32    1
    29    53    52    2
    30    43    46    1
    31    50    51    1
    32    77    72   am
    33    73    72    2
    34     6     7    1
    35    52    51    1
    36    46    47    1
    37    32    31    1
    38    32    35    1
    39     8     7    1
    40     8     9    1
    41    72    71    1
    42    51    54    1
    43    35    36    1
    44    54    55    1
    45    61    60    2
    46    67    65   ar
    47    67    68   ar
    48    47    48   ar
    49    47    49   ar
    50    36    37    1
    51    71    70    1
    52    71    74    1
    53    69    68    1
    54    65    63   ar
    55    60    59    1
    56    68    66   ar
    57    55    57    1
    58    55    56    1
    59    37    38    1
    60    76    74    1
    61    74    75    1
    62    27    26    1
    63    27    28    2
    64    63    62    1
    65    63    64   ar
    66    26    29    1
    67    26    25    1
    68    38    39    2
    69    59    62    1
    70    59    58    1
    71    66    64   ar
    72    29    30    1
    73    40    39    1
    74    39    41    1
