@<TRIPOS>MOLECULE
tmp/4dsyA00.pdb
 110 108 0 0 0
SMALL
GASTEIGER

@<TRIPOS>ATOM
      1  N        -65.5910   30.8340  -34.2760 N.3   158  ASP158     -0.1239
      2  CA       -66.4800   31.9950  -34.3120 C.3   158  ASP158      0.1674
      3  C        -66.8640   32.4250  -32.9060 C.2   158  ASP158      0.2266
      4  O        -67.9170   32.0360  -32.3710 O.2   158  ASP158     -0.2867
      5  CB       -67.7150   31.7610  -35.1730 C.3   158  ASP158      0.1410
      6  CG       -67.4060   31.7890  -36.6660 C.2   158  ASP158      0.3668
      7  OD1      -66.2520   32.0690  -37.0580 O.co2 158  ASP158     -0.2456
      8  OD2      -68.3320   31.5410  -37.4530 O.co2 158  ASP158     -0.2456
      9  N        -67.8180   37.6380  -33.0070 N.3   161  TYR161     -0.1241
     10  CA       -68.5190   38.2930  -34.1030 C.3   161  TYR161      0.1605
     11  C        -68.3180   39.8110  -34.0630 C.2   161  TYR161      0.2264
     12  O        -69.1350   40.5890  -34.5740 O.2   161  TYR161     -0.2867
     13  CB       -69.9990   37.9230  -34.0990 C.3   161  TYR161      0.0534
     14  CG       -70.2450   36.4970  -34.5290 C.ar  161  TYR161     -0.0201
     15  CD1      -70.0490   35.4440  -33.6350 C.ar  161  TYR161     -0.0009
     16  CD2      -70.6410   36.1930  -35.8320 C.ar  161  TYR161     -0.0009
     17  CE1      -70.2590   34.1360  -34.0110 C.ar  161  TYR161      0.0417
     18  CE2      -70.8530   34.8710  -36.2250 C.ar  161  TYR161      0.0417
     19  CZ       -70.6570   33.8520  -35.3020 C.ar  161  TYR161      0.1957
     20  OH       -70.8580   32.5390  -35.6470 O.3   161  TYR161     -0.2866
     21  N        -68.4590   41.9150  -37.2930 N.3   164  ARG164     -0.1245
     22  CA       -69.6900   42.3790  -37.9260 C.3   164  ARG164      0.1563
     23  C        -69.9360   43.8700  -37.6620 C.2   164  ARG164      0.2260
     24  O        -70.7580   44.4930  -38.3210 O.2   164  ARG164     -0.2867
     25  CB       -70.8880   41.5360  -37.4840 C.3   164  ARG164      0.0307
     26  CG       -70.8470   40.1130  -38.0250 C.3   164  ARG164      0.0489
     27  CD       -72.0930   39.3280  -37.6560 C.3   164  ARG164      0.2205
     28  NE       -73.2700   39.7920  -38.3870 N.pl3 164  ARG164     -0.0865
     29  CZ       -74.2080   40.5770  -37.8660 C.cat 164  ARG164      0.5346
     30  NH1      -74.1070   40.9920  -36.6050 N.pl3 164  ARG164      0.1354
     31  NH2      -75.2480   40.9490  -38.6030 N.pl3 164  ARG164      0.1354
     32  N        -64.0020   31.5620  -39.1770 N.3   195  ASN195     -0.1225
     33  CA       -63.7880   32.5940  -40.1890 C.3   195  ASN195      0.1785
     34  C        -63.9910   34.0160  -39.6740 C.2   195  ASN195      0.2597
     35  O        -63.4570   34.9580  -40.2420 O.2   195  ASN195     -0.2718
     36  CB       -64.6440   32.3520  -41.4300 C.3   195  ASN195      0.1169
     37  CG       -66.1090   32.4110  -41.1220 C.2   195  ASN195      0.2627
     38  OD1      -66.5770   31.7580  -40.1970 O.2   195  ASN195     -0.2716
     39  ND2      -66.8370   33.2200  -41.8670 N.am  195  ASN195     -0.0877
     40  N        -64.7570   34.1720  -38.5990 N.am  196  HIS196     -0.1975
     41  CA       -64.9370   35.4860  -38.0020 C.3   196  HIS196      0.1656
     42  C        -63.7090   35.9120  -37.2050 C.2   196  HIS196      0.2291
     43  O        -63.6180   37.0470  -36.7650 O.2   196  HIS196     -0.2864
     44  CB       -66.2090   35.5320  -37.1570 C.3   196  HIS196      0.0771
     45  CG       -67.4520   35.5380  -37.9780 C.ar  196  HIS196      0.0820
     46  ND1      -68.0390   36.7010  -38.4250 N.ar  196  HIS196     -0.2267
     47  CD2      -68.1870   34.5230  -38.4910 C.ar  196  HIS196      0.1154
     48  CE1      -69.1030   36.4050  -39.1500 C.ar  196  HIS196      0.1986
     49  NE2      -69.2120   35.0890  -39.2100 N.ar  196  HIS196     -0.2212
     50  N        -76.7310   26.9330  -46.4160 N.3   289  HIS289     -0.1226
     51  CA       -75.6770   27.8610  -46.0110 C.3   289  HIS289      0.1752
     52  C        -74.2910   27.1930  -45.9750 C.2   289  HIS289      0.2596
     53  O        -74.1040   26.1630  -45.3210 O.2   289  HIS289     -0.2718
     54  CB       -76.0280   28.4690  -44.6480 C.3   289  HIS289      0.0759
     55  CG       -75.3760   29.7870  -44.3680 C.ar  289  HIS289      0.0818
     56  ND1      -74.8670   30.6040  -45.3630 N.ar  289  HIS289     -0.2268
     57  CD2      -75.1490   30.4420  -43.2030 C.ar  289  HIS289      0.1154
     58  CE1      -74.3640   31.6960  -44.8230 C.ar  289  HIS289      0.1986
     59  NE2      -74.5200   31.6240  -43.5090 N.ar  289  HIS289     -0.2212
     60  N        -73.3330   27.7830  -46.6930 N.am  290  HIS290     -0.1975
     61  CA       -71.9690   27.2580  -46.7810 C.3   290  HIS290      0.1656
     62  C        -71.9230   25.8470  -47.3520 C.2   290  HIS290      0.2291
     63  O        -70.9270   25.1370  -47.1850 O.2   290  HIS290     -0.2864
     64  CB       -71.2540   27.2730  -45.4230 C.3   290  HIS290      0.0771
     65  CG       -71.3200   28.5890  -44.7140 C.ar  290  HIS290      0.0820
     66  ND1      -70.8080   29.7510  -45.2510 N.ar  290  HIS290     -0.2267
     67  CD2      -71.8260   28.9250  -43.5010 C.ar  290  HIS290      0.1154
     68  CE1      -71.0000   30.7480  -44.4040 C.ar  290  HIS290      0.1986
     69  NE2      -71.6160   30.2750  -43.3340 N.ar  290  HIS290     -0.2212
     70  N        -68.5700   24.1790  -48.7710 N.3   293  GLU293     -0.1245
     71  CA       -67.3260   24.8790  -48.4130 C.3   293  GLU293      0.1567
     72  C        -66.2650   23.9460  -47.8410 C.2   293  GLU293      0.2260
     73  O        -65.0760   24.1610  -48.0570 O.2   293  GLU293     -0.2867
     74  CB       -67.5730   26.0360  -47.4460 C.3   293  GLU293      0.0388
     75  CG       -67.9950   27.2980  -48.1540 C.3   293  GLU293      0.1160
     76  CD       -68.4170   28.3760  -47.1970 C.2   293  GLU293      0.3649
     77  OE1      -67.7680   28.5150  -46.1290 O.co2 293  GLU293     -0.2457
     78  OE2      -69.4080   29.0700  -47.5120 O.co2 293  GLU293     -0.2457
     79  N        -69.6350   26.7670  -37.9250 N.3   317  HIS317     -0.1241
     80  CA       -69.7660   27.5200  -39.1650 C.3   317  HIS317      0.1621
     81  C        -71.2250   27.5460  -39.6850 C.2   317  HIS317      0.2264
     82  O        -71.7790   28.6180  -39.9490 O.2   317  HIS317     -0.2867
     83  CB       -68.7830   26.9970  -40.2080 C.3   317  HIS317      0.0745
     84  CG       -68.5830   27.9130  -41.3830 C.ar  317  HIS317      0.0817
     85  ND1      -68.2720   29.2490  -41.2490 N.ar  317  HIS317     -0.2268
     86  CD2      -68.6030   27.6670  -42.7170 C.ar  317  HIS317      0.1154
     87  CE1      -68.1350   29.7950  -42.4440 C.ar  317  HIS317      0.1986
     88  NE2      -68.3230   28.8550  -43.3540 N.ar  317  HIS317     -0.2212
     89  N        -75.0660   27.5190  -38.8810 N.3   319  HIS319     -0.1241
     90  CA       -75.7960   27.8570  -37.6630 C.3   319  HIS319      0.1621
     91  C        -76.9990   26.9460  -37.4420 C.2   319  HIS319      0.2264
     92  O        -78.1590   27.3540  -37.5380 O.2   319  HIS319     -0.2867
     93  CB       -76.1770   29.3330  -37.6670 C.3   319  HIS319      0.0745
     94  CG       -74.9980   30.2430  -37.7990 C.ar  319  HIS319      0.0817
     95  ND1      -75.0810   31.4960  -38.3650 N.ar  319  HIS319     -0.2268
     96  CD2      -73.7000   30.0690  -37.4520 C.ar  319  HIS319      0.1154
     97  CE1      -73.8880   32.0630  -38.3470 C.ar  319  HIS319      0.1986
     98  NE2      -73.0350   31.2210  -37.7930 N.ar  319  HIS319     -0.2212
     99  N        -75.2210   35.8250  -34.0360 N.3   359  TYR359     -0.1241
    100  CA       -75.8640   37.1270  -33.8350 C.3   359  TYR359      0.1605
    101  C        -77.3830   37.0050  -33.9260 C.2   359  TYR359      0.2264
    102  O        -78.0650   37.9810  -34.2500 O.2   359  TYR359     -0.2867
    103  CB       -75.3420   38.1750  -34.8290 C.3   359  TYR359      0.0534
    104  CG       -75.3120   37.6470  -36.2350 C.ar  359  TYR359     -0.0201
    105  CD1      -74.2290   36.9120  -36.6890 C.ar  359  TYR359     -0.0009
    106  CD2      -76.3770   37.8630  -37.1020 C.ar  359  TYR359     -0.0009
    107  CE1      -74.1950   36.4120  -37.9730 C.ar  359  TYR359      0.0417
    108  CE2      -76.3570   37.3640  -38.3900 C.ar  359  TYR359      0.0417
    109  CZ       -75.2640   36.6340  -38.8250 C.ar  359  TYR359      0.1957
    110  OH       -75.2350   36.1170  -40.1100 O.3   359  TYR359     -0.2866
@<TRIPOS>BOND
     1    70    71    1
     2    71    72    1
     3    71    74    1
     4    75    74    1
     5    75    76    1
     6    73    72    2
     7    78    76   ar
     8    62    63    2
     9    62    61    1
    10    76    77   ar
    11    61    60    1
    12    61    64    1
    13    60    52   am
    14    50    51    1
    15    51    52    1
    16    51    54    1
    17    52    53    2
    18    64    65    1
    19    56    58   ar
    20    56    55   ar
    21    66    65   ar
    22    66    68   ar
    23    58    59   ar
    24    65    67   ar
    25    54    55    1
    26    68    69   ar
    27    55    57   ar
    28    59    57   ar
    29    67    69   ar
    30    88    86   ar
    31    88    87   ar
    32    86    84   ar
    33    87    85   ar
    34    39    37   am
    35    36    37    1
    36    36    33    1
    37    84    85   ar
    38    84    83    1
    39    37    38    2
    40    35    34    2
    41    83    80    1
    42    33    34    1
    43    33    32    1
    44   110   109    1
    45    82    81    2
    46    81    80    1
    47    34    40   am
    48    49    48   ar
    49    49    47   ar
    50    80    79    1
    51    48    46   ar
    52    89    90    1
    53   109   108   ar
    54   109   107   ar
    55    31    29    1
    56    40    41    1
    57    47    45   ar
    58    46    45   ar
    59   108   106   ar
    60    28    29    2
    61    28    27    1
    62    95    97   ar
    63    95    94   ar
    64    97    98   ar
    65    24    23    2
    66    26    27    1
    67    26    25    1
    68    41    42    1
    69    41    44    1
    70    45    44    1
    71   107   105   ar
    72    22    23    1
    73    22    25    1
    74    22    21    1
    75    29    30    1
    76    94    93    1
    77    94    96   ar
    78    98    96   ar
    79    93    90    1
    80    90    91    1
    81    92    91    2
    82     8     6   ar
    83    42    43    2
    84   106   104   ar
    85     7     6   ar
    86   105   104   ar
    87     6     5    1
    88   104   103    1
    89    18    16   ar
    90    18    19   ar
    91    16    14   ar
    92    20    19    1
    93    19    17   ar
    94     5     2    1
    95   103   100    1
    96    12    11    2
    97    14    13    1
    98    14    15   ar
    99     2     1    1
   100     2     3    1
   101   102   101    2
   102    10    13    1
   103    10    11    1
   104    10     9    1
   105    99   100    1
   106    17    15   ar
   107   101   100    1
   108     3     4    2
