@<TRIPOS>MOLECULE
tmp/4dszA00.pdb
 180 175 0 0 0
SMALL
GASTEIGER

@<TRIPOS>ATOM
      1  N          6.7970   23.3420  -13.0360 N.3    85  ARG85      -0.1245
      2  CA         7.8710   22.7330  -13.7750 C.3    85  ARG85       0.1563
      3  C          8.9160   23.7210  -14.2640 C.2    85  ARG85       0.2260
      4  O         10.0990   23.4510  -14.1500 O.2    85  ARG85      -0.2867
      5  CB         7.3580   21.9150  -14.9390 C.3    85  ARG85       0.0307
      6  CG         8.5070   21.1190  -15.5360 C.3    85  ARG85       0.0489
      7  CD         8.2420   20.6530  -16.9490 C.3    85  ARG85       0.2205
      8  NE         7.2460   19.6000  -16.9450 N.pl3  85  ARG85      -0.0865
      9  CZ         7.5250   18.3400  -16.6970 C.cat  85  ARG85       0.5346
     10  NH1        8.7800   18.0030  -16.4490 N.pl3  85  ARG85       0.1354
     11  NH2        6.5580   17.4390  -16.7220 N.pl3  85  ARG85       0.1354
     12  N          2.5810   23.9770  -18.4870 N.3   165  GLU165     -0.1231
     13  CA         2.9920   22.5770  -18.5760 C.3   165  GLU165      0.1699
     14  C          2.7540   21.9510  -19.9340 C.2   165  GLU165      0.2592
     15  O          3.5590   21.1360  -20.3890 O.2   165  GLU165     -0.2718
     16  CB         2.2910   21.7360  -17.5140 C.3   165  GLU165      0.0402
     17  CG         2.4320   20.2240  -17.6990 C.3   165  GLU165      0.1161
     18  CD         3.7780   19.6760  -17.2640 C.2   165  GLU165      0.3649
     19  OE1        4.5710   20.4580  -16.6800 O.co2 165  GLU165     -0.2457
     20  OE2        4.0260   18.4590  -17.4910 O.co2 165  GLU165     -0.2457
     21  N          1.6490   22.3230  -20.5730 N.am  166  GLU166     -0.1979
     22  CA         1.1330   21.5400  -21.6940 C.3   166  GLU166      0.1602
     23  C          1.1600   22.2370  -23.0420 C.2   166  GLU166      0.2287
     24  O          0.9110   21.5830  -24.0690 O.2   166  GLU166     -0.2864
     25  CB        -0.2970   21.0440  -21.4010 C.3   166  GLU166      0.0415
     26  CG        -0.4360   20.1150  -20.1940 C.3   166  GLU166      0.1163
     27  CD         0.2560   18.7680  -20.3710 C.2   166  GLU166      0.3649
     28  OE1        0.8620   18.4850  -21.4350 O.co2 166  GLU166     -0.2457
     29  OE2        0.1990   17.9730  -19.4200 O.co2 166  GLU166     -0.2457
     30  N          5.4760   25.3310  -22.6800 N.3   169  SER169     -0.1217
     31  CA         6.6180   24.7370  -21.9790 C.3   169  SER169      0.1889
     32  C          7.5890   25.6950  -21.2900 C.2   169  SER169      0.2288
     33  O          8.7650   25.3670  -21.0800 O.2   169  SER169     -0.2866
     34  CB         7.3400   23.7820  -22.9010 C.3   169  SER169      0.2089
     35  OG         6.9110   22.4860  -22.5730 O.3   169  SER169     -0.2183
     36  N          3.4720   17.7350  -30.0960 N.3   317  PHE317     -0.1227
     37  CA         2.7000   18.1310  -28.9090 C.3   317  PHE317      0.1736
     38  C          1.9160   19.4150  -29.1580 C.2   317  PHE317      0.2595
     39  O          0.9080   19.6820  -28.5110 O.2   317  PHE317     -0.2718
     40  CB         3.5880   18.2490  -27.6730 C.3   317  PHE317      0.0547
     41  CG         4.2960   16.9680  -27.3260 C.ar  317  PHE317     -0.0202
     42  CD1        3.6560   15.9820  -26.5850 C.ar  317  PHE317     -0.0042
     43  CD2        5.5980   16.7350  -27.7570 C.ar  317  PHE317     -0.0042
     44  CE1        4.3060   14.7900  -26.2810 C.ar  317  PHE317     -0.0003
     45  CE2        6.2520   15.5550  -27.4440 C.ar  317  PHE317     -0.0003
     46  CZ         5.6030   14.5750  -26.7140 C.ar  317  PHE317     -0.0000
     47  N          2.3990   20.2040  -30.1080 N.am  318  ARG318     -0.1980
     48  CA         1.6680   21.3410  -30.6520 C.3   318  ARG318      0.1597
     49  C          2.1120   21.4950  -32.1040 C.2   318  ARG318      0.2287
     50  O          3.0050   20.7720  -32.5520 O.2   318  ARG318     -0.2864
     51  CB         1.9420   22.6110  -29.8510 C.3   318  ARG318      0.0334
     52  CG         3.4010   22.9630  -29.7500 C.3   318  ARG318      0.0492
     53  CD         3.7360   23.3840  -28.3330 C.3   318  ARG318      0.2205
     54  NE         3.8010   24.8370  -28.1900 N.pl3 318  ARG318     -0.0865
     55  CZ         4.9200   25.5560  -28.2890 C.cat 318  ARG318      0.5346
     56  NH1        6.0800   24.9620  -28.5490 N.pl3 318  ARG318      0.1354
     57  NH2        4.8760   26.8740  -28.1330 N.pl3 318  ARG318      0.1354
     58  N          8.2570    4.0380  -20.6820 N.3   507  TYR507     -0.1241
     59  CA         7.4930    5.2930  -20.7700 C.3   507  TYR507      0.1605
     60  C          6.2170    5.1010  -21.6170 C.2   507  TYR507      0.2264
     61  O          5.1080    5.0600  -21.0610 O.2   507  TYR507     -0.2867
     62  CB         8.3320    6.5200  -21.2120 C.3   507  TYR507      0.0534
     63  CG         7.5660    7.8130  -21.0110 C.ar  507  TYR507     -0.0201
     64  CD1        7.2800    8.2820  -19.7220 C.ar  507  TYR507     -0.0009
     65  CD2        7.0570    8.5260  -22.0950 C.ar  507  TYR507     -0.0009
     66  CE1        6.5270    9.4280  -19.5130 C.ar  507  TYR507      0.0417
     67  CE2        6.3040    9.6860  -21.9000 C.ar  507  TYR507      0.0417
     68  CZ         6.0460   10.1250  -20.6050 C.ar  507  TYR507      0.1957
     69  OH         5.3120   11.2670  -20.3890 O.3   507  TYR507     -0.2866
     70  N          8.6590   10.1340  -33.9900 N.3   545  TYR545     -0.1241
     71  CA         9.8000   10.2540  -34.8970 C.3   545  TYR545      0.1605
     72  C          9.8600    9.2380  -36.0490 C.2   545  TYR545      0.2264
     73  O         10.8310    9.1880  -36.8060 O.2   545  TYR545     -0.2867
     74  CB        11.0910   10.3130  -34.0760 C.3   545  TYR545      0.0534
     75  CG        10.9890   11.3410  -32.9530 C.ar  545  TYR545     -0.0201
     76  CD1       10.6970   12.6930  -33.2280 C.ar  545  TYR545     -0.0009
     77  CD2       11.1660   10.9680  -31.6260 C.ar  545  TYR545     -0.0009
     78  CE1       10.5890   13.6240  -32.2190 C.ar  545  TYR545      0.0417
     79  CE2       11.0610   11.9000  -30.6090 C.ar  545  TYR545      0.0417
     80  CZ        10.7750   13.2200  -30.9170 C.ar  545  TYR545      0.1957
     81  OH        10.6800   14.1390  -29.9090 O.3   545  TYR545     -0.2866
     82  N          5.1680    8.4780  -14.3590 N.3   590  SER590     -0.1202
     83  CA         4.2550    9.3540  -15.1250 C.3   590  SER590      0.2020
     84  C          3.4070    8.4580  -16.0500 C.2   590  SER590      0.2618
     85  O          2.7840    7.5080  -15.5830 O.2   590  SER590     -0.2717
     86  CB         5.0890   10.4050  -15.8970 C.3   590  SER590      0.2103
     87  OG         4.3510   11.4320  -16.5390 O.3   590  SER590     -0.2182
     88  N          3.4200    8.7270  -17.3550 N.am  591  TYR591     -0.1975
     89  CA         2.7660    7.8670  -18.3360 C.3   591  TYR591      0.1639
     90  C          3.2050    6.4030  -18.1970 C.2   591  TYR591      0.2290
     91  O          2.3970    5.4870  -18.3070 O.2   591  TYR591     -0.2864
     92  CB         3.0270    8.3570  -19.7740 C.3   591  TYR591      0.0560
     93  CG         1.9870    7.8610  -20.7470 C.ar  591  TYR591     -0.0198
     94  CD1        2.0030    6.5470  -21.2060 C.ar  591  TYR591     -0.0009
     95  CD2        0.9610    8.6890  -21.1740 C.ar  591  TYR591     -0.0009
     96  CE1        1.0260    6.0690  -22.0680 C.ar  591  TYR591      0.0417
     97  CE2       -0.0260    8.2230  -22.0380 C.ar  591  TYR591      0.0417
     98  CZ         0.0040    6.9110  -22.4910 C.ar  591  TYR591      0.1957
     99  OH        -0.9740    6.4470  -23.3690 O.3   591  TYR591     -0.2866
    100  N         -0.6620    7.7750  -13.8520 N.3   616  VAL616     -0.1245
    101  CA        -2.0530    8.1610  -14.1190 C.3   616  VAL616      0.1561
    102  C         -2.8740    6.8790  -13.9660 C.2   616  VAL616      0.2260
    103  O         -2.4380    5.7970  -14.3710 O.2   616  VAL616     -0.2867
    104  CB        -2.2130    8.7930  -15.5280 C.3   616  VAL616      0.0252
    105  CG1       -3.6140    8.6000  -16.1090 C.3   616  VAL616      0.0019
    106  CG2       -1.8590   10.2640  -15.4830 C.3   616  VAL616      0.0019
    107  N         -7.9610    8.6680  -17.0130 N.3   619  TRP619     -0.1241
    108  CA        -7.6830    9.8730  -17.8210 C.3   619  TRP619      0.1605
    109  C         -8.4870   11.0760  -17.4590 C.2   619  TRP619      0.2264
    110  O         -8.0560   12.1900  -17.6680 O.2   619  TRP619     -0.2867
    111  CB        -7.7580    9.5890  -19.3160 C.3   619  TRP619      0.0550
    112  CG        -6.5310    8.8470  -19.7100 C.ar  619  TRP619      0.0003
    113  CD1       -6.4210    7.5170  -20.1190 C.ar  619  TRP619      0.0946
    114  CD2       -5.1610    9.3420  -19.6280 C.ar  619  TRP619      0.0152
    115  NE1       -5.1080    7.1760  -20.3260 N.ar  619  TRP619     -0.2442
    116  CE2       -4.2960    8.2260  -20.0480 C.ar  619  TRP619      0.0810
    117  CE3       -4.5800   10.5640  -19.2920 C.ar  619  TRP619      0.0012
    118  CZ2       -2.9150    8.3550  -20.1130 C.ar  619  TRP619      0.0191
    119  CZ3       -3.1930   10.6780  -19.3590 C.ar  619  TRP619      0.0001
    120  CH2       -2.3820    9.6000  -19.7580 C.ar  619  TRP619      0.0015
    121  N         -6.4140   13.4500  -15.3010 N.3   622  TYR622     -0.1241
    122  CA        -5.3100   14.2240  -15.8460 C.3   622  TYR622      0.1605
    123  C         -5.7780   15.5480  -16.4340 C.2   622  TYR622      0.2264
    124  O         -6.9530   15.7190  -16.6620 O.2   622  TYR622     -0.2867
    125  CB        -4.4440   13.4490  -16.8380 C.3   622  TYR622      0.0534
    126  CG        -3.0760   14.0940  -16.8970 C.ar  622  TYR622     -0.0201
    127  CD1       -2.3660   14.3950  -15.7060 C.ar  622  TYR622     -0.0009
    128  CD2       -2.5060   14.4690  -18.1090 C.ar  622  TYR622     -0.0009
    129  CE1       -1.1290   15.0180  -15.7390 C.ar  622  TYR622      0.0417
    130  CE2       -1.2690   15.1040  -18.1400 C.ar  622  TYR622      0.0417
    131  CZ        -0.5920   15.3740  -16.9530 C.ar  622  TYR622      0.1957
    132  OH         0.6430   15.9800  -16.9930 O.3   622  TYR622     -0.2866
    133  N         -3.5480   17.9780  -22.3230 N.3   626  TYR626     -0.1241
    134  CA        -2.8500   16.7450  -22.7050 C.3   626  TYR626      0.1605
    135  C         -3.8630   15.6690  -23.0810 C.2   626  TYR626      0.2264
    136  O         -3.8600   15.1690  -24.2150 O.2   626  TYR626     -0.2867
    137  CB        -1.9510   16.2470  -21.5730 C.3   626  TYR626      0.0534
    138  CG        -1.0640   15.0540  -21.9140 C.ar  626  TYR626     -0.0201
    139  CD1       -1.4410   13.7360  -21.5960 C.ar  626  TYR626     -0.0009
    140  CD2        0.1720   15.2450  -22.5200 C.ar  626  TYR626     -0.0009
    141  CE1       -0.6120   12.6580  -21.8920 C.ar  626  TYR626      0.0417
    142  CE2        1.0090   14.1740  -22.8210 C.ar  626  TYR626      0.0417
    143  CZ         0.6140   12.8930  -22.5020 C.ar  626  TYR626      0.1957
    144  OH         1.4630   11.8600  -22.7960 O.3   626  TYR626     -0.2866
    145  N         -6.0330   16.1300  -26.1790 N.3   629  ARG629     -0.1245
    146  CA        -5.2100   16.0970  -27.3880 C.3   629  ARG629      0.1563
    147  C         -5.1810   14.6800  -27.9750 C.2   629  ARG629      0.2260
    148  O         -5.0190   14.5070  -29.1850 O.2   629  ARG629     -0.2867
    149  CB        -3.7950   16.5660  -27.0800 C.3   629  ARG629      0.0307
    150  CG        -2.9820   17.0410  -28.2800 C.3   629  ARG629      0.0489
    151  CD        -1.4720   16.7580  -28.1580 C.3   629  ARG629      0.2205
    152  NE        -0.8110   17.0660  -26.8710 N.pl3 629  ARG629     -0.0865
    153  CZ        -0.6710   18.2860  -26.3550 C.cat 629  ARG629      0.5346
    154  NH1       -1.1680   19.3480  -26.9890 N.pl3 629  ARG629      0.1354
    155  NH2       -0.0430   18.4570  -25.1980 N.pl3 629  ARG629      0.1354
    156  N          1.0400   17.7560  -10.6900 N.3   670  ASN670     -0.1225
    157  CA         0.8930   17.3660  -12.0640 C.3   670  ASN670      0.1785
    158  C          0.0200   16.1310  -12.2110 C.2   670  ASN670      0.2597
    159  O         -1.0720   16.2180  -12.7570 O.2   670  ASN670     -0.2718
    160  CB         2.2710   17.1410  -12.6400 C.3   670  ASN670      0.1169
    161  CG         2.2440   16.9820  -14.1230 C.2   670  ASN670      0.2627
    162  OD1        1.2600   16.5000  -14.6780 O.2   670  ASN670     -0.2716
    163  ND2        3.3170   17.3930  -14.7860 N.am  670  ASN670     -0.0877
    164  N          0.4940   14.9800  -11.7220 N.am  671  VAL671     -0.1980
    165  CA        -0.3360   13.7650  -11.5920 C.3   671  VAL671      0.1595
    166  C         -0.7380   13.6450  -10.1180 C.2   671  VAL671      0.2287
    167  O          0.0540   13.1980   -9.2920 O.2   671  VAL671     -0.2864
    168  CB         0.4290   12.5130  -12.0960 C.3   671  VAL671      0.0276
    169  CG1       -0.4300   11.2640  -12.0220 C.3   671  VAL671      0.0022
    170  CG2        0.8420   12.7250  -13.5260 C.3   671  VAL671      0.0022
    171  N          6.1590   15.7330   -8.6980 N.3   700  HIS700     -0.1241
    172  CA         6.0870   14.7060   -9.7170 C.3   700  HIS700      0.1621
    173  C          7.4240   14.2280  -10.0940 C.2   700  HIS700      0.2264
    174  O          7.5390   13.3700  -10.9310 O.2   700  HIS700     -0.2867
    175  CB         5.3640   15.1970  -10.9550 C.3   700  HIS700      0.0745
    176  CG         5.0130   14.0980  -11.9190 C.ar  700  HIS700      0.0817
    177  ND1        4.2420   13.0500  -11.5710 N.ar  700  HIS700     -0.2268
    178  CD2        5.3520   13.9120  -13.2600 C.ar  700  HIS700      0.1154
    179  CE1        4.1090   12.2200  -12.6300 C.ar  700  HIS700      0.1986
    180  NE2        4.7820   12.7540  -13.6650 N.ar  700  HIS700     -0.2212
@<TRIPOS>BOND
     1    73    72    2
     2    72    71    1
     3    71    74    1
     4    71    70    1
     5    74    75    1
     6    76    75   ar
     7    76    78   ar
     8    75    77   ar
     9    50    49    2
    10    78    80   ar
    11    49    48    1
    12    77    79   ar
    13    80    79   ar
    14    80    81    1
    15    48    47    1
    16    48    51    1
    17    47    38   am
    18    36    37    1
    19    51    52    1
    20    52    53    1
    21   148   147    2
    22    38    37    1
    23    38    39    2
    24    37    40    1
    25    56    55    1
    26    53    54    1
    27    55    54    2
    28    55    57    1
    29   150   151    1
    30   150   149    1
    31   151   152    1
    32   147   146    1
    33    43    45   ar
    34    43    41   ar
    35    40    41    1
    36    45    46   ar
    37   146   149    1
    38   146   145    1
    39    41    42   ar
    40   154   153    1
    41   152   153    2
    42    46    44   ar
    43    42    44   ar
    44   153   155    1
    45   136   135    2
    46    24    23    2
    47    99    98    1
    48   135   134    1
    49    23    22    1
    50    34    35    1
    51    34    31    1
    52   142   140   ar
    53   142   143   ar
    54   144   143    1
    55   134   133    1
    56   134   137    1
    57    30    31    1
    58   140   138   ar
    59   143   141   ar
    60    98    96   ar
    61    98    97   ar
    62    65    67   ar
    63    65    63   ar
    64    96    94   ar
    65    97    95   ar
    66    31    32    1
    67   138   139   ar
    68   138   137    1
    69    67    68   ar
    70   141   139   ar
    71    22    25    1
    72    22    21    1
    73    60    61    2
    74    60    59    1
    75    28    27   ar
    76    25    26    1
    77    32    33    2
    78    62    63    1
    79    62    59    1
    80    94    93   ar
    81    95    93   ar
    82    63    64   ar
    83    59    58    1
    84    93    92    1
    85    68    69    1
    86    68    66   ar
    87    21    14   am
    88    15    14    2
    89    27    26    1
    90    27    29   ar
    91   115   113   ar
    92   115   116   ar
    93   113   112   ar
    94   118   116   ar
    95   118   120   ar
    96   116   114   ar
    97    14    13    1
    98    92    89    1
    99   120   119   ar
   100    64    66   ar
   101   112   114   ar
   102   112   111    1
   103   114   117   ar
   104   119   117   ar
   105   111   108    1
   106    13    12    1
   107    13    16    1
   108    89    90    1
   109    89    88    1
   110    91    90    2
   111   130   128   ar
   112   130   131   ar
   113   128   126   ar
   114   108   109    1
   115   108   107    1
   116    17    16    1
   117    17    18    1
   118   110   109    2
   119    20    18   ar
   120    88    84   am
   121    18    19   ar
   122   132   131    1
   123   131   129   ar
   124     7     8    1
   125     7     6    1
   126     8     9    2
   127   126   125    1
   128   126   127   ar
   129   125   122    1
   130    11     9    1
   131     9    10    1
   132   124   123    2
   133    87    86    1
   134   123   122    1
   135   105   104    1
   136    84    85    2
   137    84    83    1
   138    86    83    1
   139   122   121    1
   140   129   127   ar
   141     6     5    1
   142   104   106    1
   143   104   101    1
   144    83    82    1
   145     5     2    1
   146   163   161   am
   147   162   161    2
   148   103   102    2
   149     3     4    2
   150     3     2    1
   151   161   160    1
   152   101   102    1
   153   101   100    1
   154     2     1    1
   155   180   178   ar
   156   180   179   ar
   157   170   168    1
   158   178   176   ar
   159   159   158    2
   160   160   157    1
   161   179   177   ar
   162   158   157    1
   163   158   164   am
   164   168   169    1
   165   168   165    1
   166   157   156    1
   167   176   177   ar
   168   176   175    1
   169   164   165    1
   170   165   166    1
   171   175   172    1
   172   174   173    2
   173   166   167    2
   174   173   172    1
   175   172   171    1
