@<TRIPOS>MOLECULE
tmp/4dt2A00.pdb
 101 100 0 0 0
SMALL
GASTEIGER

@<TRIPOS>ATOM
      1  N        -65.0400   30.5340  -34.2690 N.3   158  ASP158     -0.1239
      2  CA       -65.9290   31.7160  -34.3340 C.3   158  ASP158      0.1674
      3  C        -66.3210   32.2010  -32.9450 C.2   158  ASP158      0.2266
      4  O        -67.3590   31.8220  -32.4160 O.2   158  ASP158     -0.2867
      5  CB       -67.1790   31.4810  -35.1910 C.3   158  ASP158      0.1410
      6  CG       -66.9090   31.6130  -36.6840 C.2   158  ASP158      0.3668
      7  OD1      -65.7690   31.9390  -37.0790 O.co2 158  ASP158     -0.2456
      8  OD2      -67.8520   31.3930  -37.4720 O.co2 158  ASP158     -0.2456
      9  N        -67.2660   37.4050  -33.1280 N.3   161  TYR161     -0.1241
     10  CA       -67.9240   38.0440  -34.2580 C.3   161  TYR161      0.1605
     11  C        -67.7400   39.5430  -34.1260 C.2   161  TYR161      0.2264
     12  O        -68.5500   40.3390  -34.6020 O.2   161  TYR161     -0.2867
     13  CB       -69.4040   37.6830  -34.3220 C.3   161  TYR161      0.0534
     14  CG       -69.6480   36.2610  -34.7630 C.ar  161  TYR161     -0.0201
     15  CD1      -69.3780   35.1920  -33.9010 C.ar  161  TYR161     -0.0009
     16  CD2      -70.1290   35.9760  -36.0360 C.ar  161  TYR161     -0.0009
     17  CE1      -69.5770   33.8820  -34.2860 C.ar  161  TYR161      0.0417
     18  CE2      -70.3410   34.6590  -36.4310 C.ar  161  TYR161      0.0417
     19  CZ       -70.0580   33.6180  -35.5470 C.ar  161  TYR161      0.1957
     20  OH       -70.2630   32.3080  -35.9100 O.3   161  TYR161     -0.2866
     21  N        -67.7870   41.5160  -37.3390 N.3   164  ARG164     -0.1245
     22  CA       -69.0130   41.9930  -37.9890 C.3   164  ARG164      0.1563
     23  C        -69.2840   43.4830  -37.7400 C.2   164  ARG164      0.2260
     24  O        -70.1300   44.0880  -38.3970 O.2   164  ARG164     -0.2867
     25  CB       -70.2190   41.1470  -37.5870 C.3   164  ARG164      0.0307
     26  CG       -70.4560   39.9930  -38.5170 C.3   164  ARG164      0.0489
     27  CD       -71.5480   39.0910  -38.0160 C.3   164  ARG164      0.2205
     28  NE       -72.6680   39.8500  -37.4820 N.pl3 164  ARG164     -0.0865
     29  CZ       -73.7100   40.2470  -38.2040 C.cat 164  ARG164      0.5346
     30  NH1      -73.7660   39.9620  -39.5040 N.pl3 164  ARG164      0.1354
     31  NH2      -74.6910   40.9300  -37.6240 N.pl3 164  ARG164      0.1354
     32  N        -63.4720   31.3550  -39.1650 N.3   195  ASN195     -0.1225
     33  CA       -63.2870   32.4110  -40.1680 C.3   195  ASN195      0.1785
     34  C        -63.4330   33.8340  -39.6270 C.2   195  ASN195      0.2597
     35  O        -62.8590   34.7810  -40.1750 O.2   195  ASN195     -0.2718
     36  CB       -64.1520   32.2090  -41.4160 C.3   195  ASN195      0.1169
     37  CG       -65.6130   32.1310  -41.0950 C.2   195  ASN195      0.2627
     38  OD1      -66.0120   31.3980  -40.1900 O.2   195  ASN195     -0.2716
     39  ND2      -66.4290   32.8890  -41.8240 N.am  195  ASN195     -0.0877
     40  N        -64.1740   33.9910  -38.5410 N.am  196  HIS196     -0.1975
     41  CA       -64.2980   35.3110  -37.9350 C.3   196  HIS196      0.1656
     42  C        -63.0690   35.7220  -37.1520 C.2   196  HIS196      0.2291
     43  O        -62.9200   36.8730  -36.7770 O.2   196  HIS196     -0.2864
     44  CB       -65.5650   35.4140  -37.1050 C.3   196  HIS196      0.0771
     45  CG       -66.8000   35.4120  -37.9380 C.ar  196  HIS196      0.0820
     46  ND1      -67.2740   36.5440  -38.5570 N.ar  196  HIS196     -0.2267
     47  CD2      -67.6300   34.4090  -38.2990 C.ar  196  HIS196      0.1154
     48  CE1      -68.3600   36.2450  -39.2440 C.ar  196  HIS196      0.1986
     49  NE2      -68.5930   34.9530  -39.1110 N.ar  196  HIS196     -0.2212
     50  N        -76.1340   26.7970  -46.4860 N.3   289  HIS289     -0.1226
     51  CA       -75.1130   27.7390  -46.0610 C.3   289  HIS289      0.1752
     52  C        -73.7740   27.0110  -46.0440 C.2   289  HIS289      0.2596
     53  O        -73.6390   25.9840  -45.3770 O.2   289  HIS289     -0.2718
     54  CB       -75.4710   28.2740  -44.6710 C.3   289  HIS289      0.0759
     55  CG       -74.6980   29.4930  -44.2500 C.ar  289  HIS289      0.0818
     56  ND1      -74.3070   30.4800  -45.1320 N.ar  289  HIS289     -0.2268
     57  CD2      -74.2710   29.8950  -43.0260 C.ar  289  HIS289      0.1154
     58  CE1      -73.6650   31.4290  -44.4750 C.ar  289  HIS289      0.1986
     59  NE2      -73.6250   31.0970  -43.1950 N.ar  289  HIS289     -0.2212
     60  N        -72.8020   27.5280  -46.7990 N.am  290  HIS290     -0.1975
     61  CA       -71.4300   26.9860  -46.8280 C.3   290  HIS290      0.1656
     62  C        -71.3210   25.5810  -47.4230 C.2   290  HIS290      0.2291
     63  O        -70.2960   24.9100  -47.2510 O.2   290  HIS290     -0.2864
     64  CB       -70.8030   26.9420  -45.4300 C.3   290  HIS290      0.0771
     65  CG       -70.8080   28.2540  -44.7110 C.ar  290  HIS290      0.0820
     66  ND1      -70.4100   29.4300  -45.3060 N.ar  290  HIS290     -0.2267
     67  CD2      -71.1360   28.5680  -43.4360 C.ar  290  HIS290      0.1154
     68  CE1      -70.5010   30.4140  -44.4300 C.ar  290  HIS290      0.1986
     69  NE2      -70.9340   29.9180  -43.2860 N.ar  290  HIS290     -0.2212
     70  N        -69.0950   26.5500  -37.9310 N.3   317  HIS317     -0.1241
     71  CA       -69.2080   27.2820  -39.1870 C.3   317  HIS317      0.1621
     72  C        -70.6430   27.3390  -39.7310 C.2   317  HIS317      0.2264
     73  O        -71.1490   28.4100  -40.0810 O.2   317  HIS317     -0.2867
     74  CB       -68.2740   26.6830  -40.2330 C.3   317  HIS317      0.0745
     75  CG       -68.0430   27.5710  -41.4180 C.ar  317  HIS317      0.0817
     76  ND1      -67.7310   28.9090  -41.2990 N.ar  317  HIS317     -0.2268
     77  CD2      -68.0540   27.3060  -42.7460 C.ar  317  HIS317      0.1154
     78  CE1      -67.5750   29.4330  -42.5000 C.ar  317  HIS317      0.1986
     79  NE2      -67.7620   28.4810  -43.3960 N.ar  317  HIS317     -0.2212
     80  N        -74.4660   27.1990  -39.0020 N.3   319  HIS319     -0.1241
     81  CA       -75.1960   27.5810  -37.8020 C.3   319  HIS319      0.1621
     82  C        -76.3850   26.6860  -37.5480 C.2   319  HIS319      0.2264
     83  O        -77.5330   27.1160  -37.5960 O.2   319  HIS319     -0.2867
     84  CB       -75.5690   29.0560  -37.8690 C.3   319  HIS319      0.0745
     85  CG       -74.3730   29.9540  -37.8930 C.ar  319  HIS319      0.0817
     86  ND1      -74.3910   31.2150  -38.4470 N.ar  319  HIS319     -0.2268
     87  CD2      -73.1100   29.7590  -37.4400 C.ar  319  HIS319      0.1154
     88  CE1      -73.1950   31.7630  -38.3240 C.ar  319  HIS319      0.1986
     89  NE2      -72.3990   30.9000  -37.7180 N.ar  319  HIS319     -0.2212
     90  N        -74.6840   35.6020  -34.0230 N.3   359  TYR359     -0.1241
     91  CA       -75.4020   36.8460  -33.8150 C.3   359  TYR359      0.1605
     92  C        -76.8980   36.6320  -34.0320 C.2   359  TYR359      0.2264
     93  O        -77.6200   37.5600  -34.4020 O.2   359  TYR359     -0.2867
     94  CB       -74.8580   37.9310  -34.7260 C.3   359  TYR359      0.0534
     95  CG       -74.7680   37.4690  -36.1360 C.ar  359  TYR359     -0.0201
     96  CD1      -73.7000   36.6810  -36.5670 C.ar  359  TYR359     -0.0009
     97  CD2      -75.7650   37.7890  -37.0410 C.ar  359  TYR359     -0.0009
     98  CE1      -73.6290   36.2400  -37.8710 C.ar  359  TYR359      0.0417
     99  CE2      -75.7090   37.3500  -38.3430 C.ar  359  TYR359      0.0417
    100  CZ       -74.6450   36.5750  -38.7590 C.ar  359  TYR359      0.1957
    101  OH       -74.6210   36.1580  -40.0750 O.3   359  TYR359     -0.2866
@<TRIPOS>BOND
     1    62    63    2
     2    62    61    1
     3    61    60    1
     4    61    64    1
     5    60    52   am
     6    50    51    1
     7    51    52    1
     8    51    54    1
     9    52    53    2
    10    64    65    1
    11    66    65   ar
    12    66    68   ar
    13    56    58   ar
    14    56    55   ar
    15    65    67   ar
    16    54    55    1
    17    58    59   ar
    18    68    69   ar
    19    55    57   ar
    20    67    69   ar
    21    79    77   ar
    22    79    78   ar
    23    59    57   ar
    24    77    75   ar
    25    78    76   ar
    26    39    37   am
    27    75    76   ar
    28    75    74    1
    29    36    37    1
    30    36    33    1
    31    37    38    2
    32    74    71    1
    33    35    34    2
    34    33    34    1
    35    33    32    1
    36    73    72    2
    37   101   100    1
    38    72    71    1
    39    34    40   am
    40    30    29    1
    41    48    49   ar
    42    48    46   ar
    43    71    70    1
    44    49    47   ar
    45    80    81    1
    46   100    99   ar
    47   100    98   ar
    48    46    45   ar
    49    40    41    1
    50    26    27    1
    51    26    25    1
    52    86    88   ar
    53    86    85   ar
    54    24    23    2
    55    99    97   ar
    56    88    89   ar
    57    47    45   ar
    58    29    31    1
    59    29    28    2
    60    27    28    1
    61    22    23    1
    62    22    25    1
    63    22    21    1
    64    45    44    1
    65    41    42    1
    66    41    44    1
    67    85    84    1
    68    85    87   ar
    69    98    96   ar
    70    84    81    1
    71    81    82    1
    72    89    87   ar
    73    83    82    2
    74     8     6   ar
    75    42    43    2
    76     7     6   ar
    77    97    95   ar
    78     6     5    1
    79    96    95   ar
    80    18    16   ar
    81    18    19   ar
    82    95    94    1
    83    16    14   ar
    84    20    19    1
    85    19    17   ar
    86     5     2    1
    87    14    13    1
    88    14    15   ar
    89    94    91    1
    90    12    11    2
    91    93    92    2
    92     2     1    1
    93     2     3    1
    94    13    10    1
    95    17    15   ar
    96    10    11    1
    97    10     9    1
    98    92    91    1
    99    90    91    1
   100     3     4    2
