@<TRIPOS>MOLECULE
tmp/4dt2A01.pdb
 82 76 0 0 0
SMALL
GASTEIGER

@<TRIPOS>ATOM
      1  N        -76.2200   41.3660  -27.7980 N.3     5  MET5       -0.1245
      2  CA       -76.4520   41.9350  -26.4890 C.3     5  MET5        0.1570
      3  C        -75.8190   43.3170  -26.3980 C.2     5  MET5        0.2261
      4  O        -74.6390   43.4830  -26.6700 O.2     5  MET5       -0.2867
      5  CB       -75.9000   41.0120  -25.4030 C.3     5  MET5        0.0387
      6  CG       -76.5550   39.6380  -25.3930 C.3     5  MET5        0.0595
      7  SD       -75.9190   38.5040  -24.1370 S.3     5  MET5       -0.1393
      8  CE       -74.2960   38.1390  -24.8000 C.3     5  MET5        0.0692
      9  N        -75.2420   45.4900  -21.0910 N.3     9  SER9       -0.1202
     10  CA       -75.8230   44.2510  -20.6020 C.3     9  SER9        0.2020
     11  C        -75.0760   43.8220  -19.3640 C.2     9  SER9        0.2619
     12  O        -73.9350   44.2160  -19.1680 O.2     9  SER9       -0.2717
     13  CB       -75.7560   43.1680  -21.6660 C.3     9  SER9        0.2103
     14  OG       -76.4360   43.5940  -22.8350 O.3     9  SER9       -0.2182
     15  N        -75.7260   43.0280  -18.5220 N.am   10  ASP10      -0.1959
     16  CA       -75.1170   42.5770  -17.2790 C.3    10  ASP10       0.1840
     17  C        -73.9090   41.6570  -17.5020 C.2    10  ASP10       0.2621
     18  O        -72.9190   41.7230  -16.7680 O.2    10  ASP10      -0.2715
     19  CB       -76.1650   41.9010  -16.3870 C.3    10  ASP10       0.1450
     20  CG       -76.9210   40.7950  -17.1070 C.2    10  ASP10       0.3671
     21  OD1      -76.7010   40.6180  -18.3290 O.co2  10  ASP10      -0.2456
     22  OD2      -77.7450   40.1090  -16.4530 O.co2  10  ASP10      -0.2456
     23  N        -73.9940   40.7990  -18.5120 N.am   11  VAL11      -0.1977
     24  CA       -72.9240   39.8620  -18.8020 C.3    11  VAL11       0.1596
     25  C        -71.6370   40.5800  -19.1990 C.2    11  VAL11       0.2287
     26  O        -70.5700   39.9700  -19.2060 O.2    11  VAL11      -0.2864
     27  CB       -73.3150   38.9090  -19.9300 C.3    11  VAL11       0.0276
     28  CG1      -74.6330   38.2340  -19.6100 C.3    11  VAL11       0.0022
     29  CG2      -73.4140   39.6740  -21.2430 C.3    11  VAL11       0.0022
     30  N        -78.3350   37.2660  -27.6750 N.3   134  PHE134     -0.1241
     31  CA       -79.1230   36.7050  -26.5820 C.3   134  PHE134      0.1605
     32  C        -79.1820   35.1930  -26.6610 C.2   134  PHE134      0.2264
     33  O        -79.2130   34.5310  -25.6330 O.2   134  PHE134     -0.2867
     34  CB       -80.5190   37.3090  -26.5590 C.3   134  PHE134      0.0534
     35  CG       -80.5080   38.7570  -26.2380 C.ar  134  PHE134     -0.0203
     36  CD1      -80.3900   39.1800  -24.9190 C.ar  134  PHE134     -0.0042
     37  CD2      -80.5410   39.7030  -27.2540 C.ar  134  PHE134     -0.0042
     38  CE1      -80.3370   40.5200  -24.6170 C.ar  134  PHE134     -0.0003
     39  CE2      -80.4990   41.0560  -26.9590 C.ar  134  PHE134     -0.0003
     40  CZ       -80.3900   41.4630  -25.6410 C.ar  134  PHE134     -0.0000
     41  N        -76.2310   33.7460  -25.0630 N.3   137  ASN137     -0.1240
     42  CA       -76.2860   33.7290  -23.6100 C.3   137  ASN137      0.1653
     43  C        -77.0230   32.4910  -23.1110 C.2   137  ASN137      0.2266
     44  O        -76.5860   31.8400  -22.1530 O.2   137  ASN137     -0.2867
     45  CB       -76.9140   35.0090  -23.0570 C.3   137  ASN137      0.1155
     46  CG       -76.7000   35.1550  -21.5610 C.2   137  ASN137      0.2627
     47  OD1      -75.6970   34.6680  -21.0220 O.2   137  ASN137     -0.2716
     48  ND2      -77.6440   35.8140  -20.8780 N.am  137  ASN137     -0.0877
     49  N        -75.7630   29.3030  -20.7130 N.3   141  SER141     -0.1217
     50  CA       -76.4100   28.9250  -19.4570 C.3   141  SER141      0.1889
     51  C        -76.8410   27.4660  -19.4990 C.2   141  SER141      0.2288
     52  O        -76.5970   26.7260  -18.5490 O.2   141  SER141     -0.2866
     53  CB       -77.5900   29.8250  -19.1150 C.3   141  SER141      0.2089
     54  OG       -77.8320   30.7320  -20.1570 O.3   141  SER141     -0.2183
     55  N        -73.8340   25.4960  -18.6550 N.3   144  GLU144     -0.1231
     56  CA       -73.3810   25.4670  -17.2670 C.3   144  GLU144      0.1699
     57  C        -74.4230   24.8450  -16.3430 C.2   144  GLU144      0.2592
     58  O        -74.0820   24.3030  -15.2970 O.2   144  GLU144     -0.2718
     59  CB       -72.9330   26.8480  -16.7850 C.3   144  GLU144      0.0402
     60  CG       -74.0150   27.9130  -16.7940 C.3   144  GLU144      0.1161
     61  CD       -73.4410   29.3390  -16.8380 C.2   144  GLU144      0.3649
     62  OE1      -72.1900   29.5100  -16.7350 O.co2 144  GLU144     -0.2457
     63  OE2      -74.2570   30.2840  -16.9880 O.co2 144  GLU144     -0.2457
     64  N        -75.6860   24.8960  -16.7500 N.am  145  LEU145     -0.1980
     65  CA       -76.7620   24.2690  -15.9920 C.3   145  LEU145      0.1596
     66  C        -76.9580   22.7880  -16.3010 C.2   145  LEU145      0.2287
     67  O        -77.9620   22.2100  -15.9050 O.2   145  LEU145     -0.2864
     68  CB       -78.0780   24.9850  -16.2650 C.3   145  LEU145      0.0297
     69  CG       -78.2030   26.3630  -15.6410 C.3   145  LEU145      0.0022
     70  CD1      -79.4900   27.0210  -16.0940 C.3   145  LEU145      0.0001
     71  CD2      -78.1640   26.2000  -14.1540 C.3   145  LEU145      0.0001
     72  N        -67.4660   33.6370  -16.9910 N.3   182  ARG182     -0.1245
     73  CA       -68.1760   32.8280  -16.0020 C.3   182  ARG182      0.1563
     74  C        -68.1360   31.3530  -16.3080 C.2   182  ARG182      0.2260
     75  O        -68.6310   30.5430  -15.5250 O.2   182  ARG182     -0.2867
     76  CB       -69.6260   33.2680  -15.8640 C.3   182  ARG182      0.0307
     77  CG       -70.4990   32.9340  -17.0310 C.3   182  ARG182      0.0489
     78  CD       -71.9140   33.3890  -16.7450 C.3   182  ARG182      0.2205
     79  NE       -72.8850   32.7480  -17.6200 N.pl3 182  ARG182     -0.0865
     80  CZ       -73.4870   33.3490  -18.6360 C.cat 182  ARG182      0.5346
     81  NH1      -73.2150   34.6180  -18.9060 N.pl3 182  ARG182      0.1354
     82  NH2      -74.3610   32.6830  -19.3800 N.pl3 182  ARG182      0.1354
@<TRIPOS>BOND
     1     1     2    1
     2    30    31    1
     3    37    39   ar
     4    37    35   ar
     5    39    40   ar
     6     4     3    2
     7    32    31    1
     8    32    33    2
     9    31    34    1
    10    34    35    1
    11     2     3    1
    12     2     5    1
    13    35    36   ar
    14    40    38   ar
    15     5     6    1
    16     6     7    1
    17    41    42    1
    18    36    38   ar
    19     8     7    1
    20    42    43    1
    21    42    45    1
    22    43    44    2
    23    45    46    1
    24    14    13    1
    25    13    10    1
    26    46    47    2
    27    46    48   am
    28    29    27    1
    29     9    10    1
    30    49    50    1
    31    10    11    1
    32    54    53    1
    33    27    28    1
    34    27    24    1
    35    51    50    1
    36    51    52    2
    37    50    53    1
    38    82    80    1
    39    11    12    2
    40    11    15   am
    41    26    25    2
    42    25    24    1
    43    81    80    1
    44    24    23    1
    45    55    56    1
    46    80    79    2
    47    15    16    1
    48    23    17   am
    49    21    20   ar
    50    79    78    1
    51    17    16    1
    52    17    18    2
    53    16    19    1
    54    56    59    1
    55    56    57    1
    56    20    22   ar
    57    20    19    1
    58    77    78    1
    59    77    76    1
    60    72    73    1
    61    63    61   ar
    62    61    60    1
    63    61    62   ar
    64    60    59    1
    65    64    57   am
    66    64    65    1
    67    57    58    2
    68    74    73    1
    69    74    75    2
    70    66    65    1
    71    66    67    2
    72    68    65    1
    73    68    69    1
    74    70    69    1
    75    73    76    1
    76    69    71    1
