@<TRIPOS>MOLECULE
tmp/4dt6A00.pdb
 198 198 0 0 0
SMALL
GASTEIGER

@<TRIPOS>ATOM
      1  N         -3.2500    7.2910  -12.0650 N.3    20  TRP20      -0.1227
      2  CA        -2.9580    5.8950  -12.3040 C.3    20  TRP20       0.1737
      3  C         -1.4800    5.6870  -12.0780 C.2    20  TRP20       0.2595
      4  O         -0.6870    6.6100  -12.2360 O.2    20  TRP20      -0.2718
      5  CB        -3.2620    5.5400  -13.7650 C.3    20  TRP20       0.0564
      6  CG        -4.7470    5.6040  -14.1480 C.ar   20  TRP20       0.0003
      7  CD1       -5.4690    6.7230  -14.4140 C.ar   20  TRP20       0.0946
      8  CD2       -5.6460    4.5040  -14.2790 C.ar   20  TRP20       0.0152
      9  NE1       -6.7650    6.3910  -14.6990 N.ar   20  TRP20      -0.2442
     10  CE2       -6.9020    5.0330  -14.6270 C.ar   20  TRP20       0.0810
     11  CE3       -5.5140    3.1130  -14.1140 C.ar   20  TRP20       0.0012
     12  CZ2       -8.0330    4.2240  -14.8650 C.ar   20  TRP20       0.0191
     13  CZ3       -6.6440    2.2940  -14.3180 C.ar   20  TRP20       0.0001
     14  CH2       -7.8880    2.8570  -14.7080 C.ar   20  TRP20       0.0015
     15  N         -1.1230    4.4560  -11.7380 N.am   21  PHE21      -0.1962
     16  CA         0.2520    4.0160  -11.6370 C.3    21  PHE21       0.1771
     17  C          0.4440    2.7060  -12.4570 C.2    21  PHE21       0.2619
     18  O         -0.4890    1.9040  -12.6270 O.2    21  PHE21      -0.2715
     19  CB         0.5910    3.8100  -10.1550 C.3    21  PHE21       0.0574
     20  CG         1.9740    3.3270   -9.9010 C.ar   21  PHE21      -0.0200
     21  CD1        3.0450    4.2170   -9.8640 C.ar   21  PHE21      -0.0042
     22  CD2        2.2170    1.9930   -9.6620 C.ar   21  PHE21      -0.0042
     23  CE1        4.3590    3.7830   -9.6090 C.ar   21  PHE21      -0.0003
     24  CE2        3.5340    1.5410   -9.3980 C.ar   21  PHE21      -0.0003
     25  CZ         4.6050    2.4470   -9.3770 C.ar   21  PHE21      -0.0000
     26  N          1.6640    2.5110  -12.9510 N.am   22  PHE22      -0.1974
     27  CA         2.0660    1.3260  -13.6900 C.3    22  PHE22       0.1639
     28  C          3.3760    0.7700  -13.1390 C.2    22  PHE22       0.2290
     29  O          4.3360    1.4930  -13.0050 O.2    22  PHE22      -0.2864
     30  CB         2.2690    1.7020  -15.1590 C.3    22  PHE22       0.0560
     31  CG         2.5670    0.5270  -16.0540 C.ar   22  PHE22      -0.0200
     32  CD1        1.5510   -0.0640  -16.8150 C.ar   22  PHE22      -0.0042
     33  CD2        3.8610    0.0110  -16.1480 C.ar   22  PHE22      -0.0042
     34  CE1        1.8300   -1.1480  -17.6640 C.ar   22  PHE22      -0.0003
     35  CE2        4.1390   -1.0620  -16.9620 C.ar   22  PHE22      -0.0003
     36  CZ         3.1230   -1.6400  -17.7310 C.ar   22  PHE22      -0.0000
     37  N          0.3170   -6.2120  -20.4680 N.3    30  TRP30      -0.1227
     38  CA         0.5160   -4.7990  -20.2690 C.3    30  TRP30       0.1737
     39  C         -0.6230   -4.2100  -19.4330 C.2    30  TRP30       0.2595
     40  O         -0.3600   -3.6010  -18.4060 O.2    30  TRP30      -0.2718
     41  CB         0.6720   -4.0590  -21.6150 C.3    30  TRP30       0.0564
     42  CG         0.9090   -2.5810  -21.4360 C.ar   30  TRP30       0.0003
     43  CD1        2.0990   -1.9550  -21.1980 C.ar   30  TRP30       0.0946
     44  CD2       -0.0770   -1.5620  -21.4460 C.ar   30  TRP30       0.0152
     45  NE1        1.9120   -0.6130  -21.0590 N.ar   30  TRP30      -0.2442
     46  CE2        0.5810   -0.3450  -21.2170 C.ar   30  TRP30       0.0810
     47  CE3       -1.4610   -1.5580  -21.6370 C.ar   30  TRP30       0.0012
     48  CZ2       -0.0950    0.8580  -21.1660 C.ar   30  TRP30       0.0191
     49  CZ3       -2.1190   -0.3680  -21.5910 C.ar   30  TRP30       0.0001
     50  CH2       -1.4440    0.8270  -21.3530 C.ar   30  TRP30       0.0015
     51  N         -1.8650   -4.4180  -19.8750 N.am   31  GLN31      -0.1979
     52  CA        -3.0630   -3.8290  -19.2700 C.3    31  GLN31       0.1601
     53  C         -3.2430   -4.1820  -17.8040 C.2    31  GLN31       0.2287
     54  O         -3.8230   -3.3950  -17.0550 O.2    31  GLN31      -0.2864
     55  CB        -4.3170   -4.2440  -20.0490 C.3    31  GLN31       0.0394
     56  CG        -5.4800   -3.2960  -19.8540 C.3    31  GLN31       0.0908
     57  CD        -6.7520   -3.7470  -20.5510 C.2    31  GLN31       0.2608
     58  OE1       -7.8370   -3.7420  -19.9530 O.2    31  GLN31      -0.2717
     59  NE2       -6.6300   -4.1390  -21.8270 N.am   31  GLN31      -0.0878
     60  N         -1.4930   -1.8140  -15.0470 N.3    34  LEU34      -0.1245
     61  CA        -1.9640   -0.4260  -14.9290 C.3    34  LEU34       0.1561
     62  C         -3.0350   -0.2990  -13.8400 C.2    34  LEU34       0.2260
     63  O         -4.1830   -0.6140  -14.0430 O.2    34  LEU34      -0.2867
     64  CB        -2.4450    0.0520  -16.3200 C.3    34  LEU34       0.0270
     65  CG        -3.0210    1.4280  -16.6600 C.3    34  LEU34       0.0019
     66  CD1       -2.0060    2.5320  -16.5520 C.3    34  LEU34       0.0001
     67  CD2       -3.5770    1.3950  -18.0480 C.3    34  LEU34       0.0001
     68  N          5.4790    4.2500  -14.0440 N.3    64  ASP64      -0.1225
     69  CA         4.9110    5.4710  -14.6500 C.3    64  ASP64       0.1805
     70  C          3.7880    5.9780  -13.7790 C.2    64  ASP64       0.2598
     71  O          3.1850    5.1930  -13.0430 O.2    64  ASP64      -0.2718
     72  CB         4.2930    5.2200  -16.0430 C.3    64  ASP64       0.1424
     73  CG         5.1510    4.3600  -16.9370 C.2    64  ASP64       0.3668
     74  OD1        6.2690    4.7500  -17.2390 O.co2  64  ASP64      -0.2456
     75  OD2        4.7310    3.2780  -17.3650 O.co2  64  ASP64      -0.2456
     76  N          3.5120    7.2790  -13.8630 N.am   65  TYR65      -0.1962
     77  CA         2.2490    7.8390  -13.3910 C.3    65  TYR65       0.1771
     78  C          1.4930    8.3330  -14.6070 C.2    65  TYR65       0.2620
     79  O          2.1230    8.6780  -15.6340 O.2    65  TYR65      -0.2715
     80  CB         2.4500    9.0830  -12.5090 C.3    65  TYR65       0.0574
     81  CG         2.9390    8.8590  -11.1160 C.ar   65  TYR65      -0.0198
     82  CD1        4.1340    9.4700  -10.6800 C.ar   65  TYR65      -0.0009
     83  CD2        2.2170    8.0530  -10.2060 C.ar   65  TYR65      -0.0009
     84  CE1        4.5930    9.3010   -9.3850 C.ar   65  TYR65       0.0417
     85  CE2        2.6910    7.8630   -8.9050 C.ar   65  TYR65       0.0417
     86  CZ         3.8800    8.5070   -8.5080 C.ar   65  TYR65       0.1957
     87  OH         4.3670    8.3560   -7.2330 O.3    65  TYR65      -0.2866
     88  N          0.1700    8.4540  -14.4690 N.am   66  SER66      -0.1950
     89  CA        -0.6120    9.2430  -15.4310 C.3    66  SER66       0.1924
     90  C         -1.8190    9.9000  -14.7900 C.2    66  SER66       0.2314
     91  O         -2.3950    9.3450  -13.8950 O.2    66  SER66      -0.2863
     92  CB        -1.0640    8.3760  -16.6190 C.3    66  SER66       0.2116
     93  OG        -1.9670    7.3630  -16.2040 O.3    66  SER66      -0.2180
     94  N         -6.4940    5.6300  -19.4530 N.3    74  PRO74      -0.2102
     95  CA        -5.1800    6.0540  -19.9410 C.3    74  PRO74       0.1504
     96  C         -4.6090    5.1180  -21.0100 C.2    74  PRO74       0.2576
     97  O         -3.4560    4.6470  -20.9270 O.2    74  PRO74      -0.2718
     98  CB        -4.3240    6.0660  -18.6580 C.3    74  PRO74       0.0282
     99  CG        -5.0060    5.1080  -17.7100 C.3    74  PRO74       0.0208
    100  CD        -6.4630    5.1370  -18.0600 C.3    74  PRO74       0.0893
    101  N         -5.4050    4.8560  -22.0380 N.am   75  MET75      -0.1966
    102  CA        -4.9190    4.0350  -23.1510 C.3    75  MET75       0.1736
    103  C         -5.4910    4.4620  -24.5200 C.2    75  MET75       0.2616
    104  O         -6.6410    4.9290  -24.5920 O.2    75  MET75      -0.2715
    105  CB        -5.1090    2.5410  -22.8590 C.3    75  MET75       0.0427
    106  CG        -6.3970    2.1090  -22.1520 C.3    75  MET75       0.0599
    107  SD        -6.3390    0.3100  -21.7700 S.3    75  MET75      -0.1393
    108  CE        -4.7120    0.2370  -21.0910 C.3    75  MET75       0.0692
    109  N         -4.6810    4.3350  -25.5840 N.am   76  TRP76      -0.1960
    110  CA        -5.1160    4.6310  -26.9530 C.3    76  TRP76       0.1771
    111  C         -6.5120    4.1150  -27.2880 C.2    76  TRP76       0.2619
    112  O         -7.2240    4.7180  -28.0440 O.2    76  TRP76      -0.2715
    113  CB        -4.1920    3.9620  -27.9420 C.3    76  TRP76       0.0590
    114  CG        -2.7180    4.1080  -27.6700 C.ar   76  TRP76       0.0006
    115  CD1       -2.0560    5.2530  -27.3050 C.ar   76  TRP76       0.0946
    116  CD2       -1.7030    3.0860  -27.8190 C.ar   76  TRP76       0.0152
    117  NE1       -0.7040    5.0010  -27.1910 N.ar   76  TRP76      -0.2442
    118  CE2       -0.4570    3.6850  -27.4970 C.ar   76  TRP76       0.0810
    119  CE3       -1.7310    1.7340  -28.1710 C.ar   76  TRP76       0.0012
    120  CZ2        0.7580    2.9690  -27.5230 C.ar   76  TRP76       0.0191
    121  CZ3       -0.5230    1.0170  -28.1810 C.ar   76  TRP76       0.0001
    122  CH2        0.6970    1.6390  -27.8610 C.ar   76  TRP76       0.0015
    123  N         -6.8850    2.9690  -26.7530 N.am   77  GLU77      -0.1977
    124  CA        -8.1180    2.3420  -27.1350 C.3    77  GLU77       0.1602
    125  C         -9.3550    2.9760  -26.5170 C.2    77  GLU77       0.2287
    126  O        -10.4620    2.6120  -26.8930 O.2    77  GLU77      -0.2864
    127  CB        -8.0940    0.8420  -26.8210 C.3    77  GLU77       0.0415
    128  CG        -7.0660    0.0200  -27.6160 C.3    77  GLU77       0.1163
    129  CD        -5.6920    0.0250  -26.9840 C.2    77  GLU77       0.3649
    130  OE1       -5.4980    0.7410  -25.9810 O.co2  77  GLU77      -0.2457
    131  OE2       -4.7950   -0.6880  -27.4910 O.co2  77  GLU77      -0.2457
    132  N         -0.4260   12.9520  -28.7020 N.3    86  ARG86      -0.1245
    133  CA         0.1710   13.5580  -27.5270 C.3    86  ARG86       0.1563
    134  C          1.2880   14.5180  -27.9020 C.2    86  ARG86       0.2260
    135  O          1.8910   14.3800  -28.9740 O.2    86  ARG86      -0.2867
    136  CB         0.7740   12.4440  -26.7060 C.3    86  ARG86       0.0307
    137  CG         1.8020   11.6170  -27.5150 C.3    86  ARG86       0.0489
    138  CD         2.5840   10.6750  -26.6180 C.3    86  ARG86       0.2205
    139  NE         3.4870    9.8100  -27.3790 N.pl3  86  ARG86      -0.0865
    140  CZ         4.2860    8.8800  -26.8450 C.cat  86  ARG86       0.5346
    141  NH1        5.0590    8.1530  -27.6340 N.pl3  86  ARG86       0.1354
    142  NH2        4.3240    8.6850  -25.5290 N.pl3  86  ARG86       0.1354
    143  N          1.0780   11.5710  -19.2150 N.3   127  VAL127     -0.1245
    144  CA         1.8150   10.3670  -18.8360 C.3   127  VAL127      0.1561
    145  C          3.2990   10.7290  -18.6570 C.2   127  VAL127      0.2260
    146  O          3.9300   11.3160  -19.5640 O.2   127  VAL127     -0.2867
    147  CB         1.6840    9.2030  -19.9020 C.3   127  VAL127      0.0252
    148  CG1        2.1700    7.8730  -19.3270 C.3   127  VAL127      0.0019
    149  CG2        0.2460    9.0330  -20.3590 C.3   127  VAL127      0.0019
    150  N          6.7010    8.7230  -18.0100 N.3   129  ASN129     -0.1240
    151  CA         7.3970    7.4550  -18.0360 C.3   129  ASN129      0.1653
    152  C          8.8020    7.5900  -17.4530 C.2   129  ASN129      0.2266
    153  O          9.5910    8.4350  -17.8840 O.2   129  ASN129     -0.2867
    154  CB         7.5340    6.9740  -19.4740 C.3   129  ASN129      0.1155
    155  CG         6.1800    6.7310  -20.1680 C.2   129  ASN129      0.2627
    156  OD1        5.8730    7.3420  -21.1990 O.2   129  ASN129     -0.2716
    157  ND2        5.3940    5.8090  -19.6260 N.am  129  ASN129     -0.0877
    158  N         12.2980    5.8080  -17.2630 N.3   131  ARG131     -0.1245
    159  CA        12.9480    4.8350  -18.1460 C.3   131  ARG131      0.1563
    160  C         14.4420    5.0320  -18.0820 C.2   131  ARG131      0.2260
    161  O         14.9310    6.1850  -18.2210 O.2   131  ARG131     -0.2867
    162  CB        12.5420    5.0790  -19.6100 C.3   131  ARG131      0.0307
    163  CG        11.1070    4.8260  -19.9460 C.3   131  ARG131      0.0489
    164  CD        10.8770    3.3910  -20.2320 C.3   131  ARG131      0.2205
    165  NE         9.4720    3.1490  -20.5310 N.pl3 131  ARG131     -0.0865
    166  CZ         8.5040    3.1040  -19.6110 C.cat 131  ARG131      0.5346
    167  NH1        8.7840    3.2870  -18.3090 N.pl3 131  ARG131      0.1354
    168  NH2        7.2420    2.8890  -19.9890 N.pl3 131  ARG131      0.1354
    169  N         10.2350   10.1960  -20.2530 N.3   136  LYS136     -0.1245
    170  CA         9.2680   10.8870  -21.1220 C.3   136  LYS136      0.1561
    171  C          8.0760   11.4400  -20.3360 C.2   136  LYS136      0.2260
    172  O          7.5590   10.7950  -19.3980 O.2   136  LYS136     -0.2867
    173  CB         8.7230    9.9370  -22.2060 C.3   136  LYS136      0.0271
    174  CG         9.6190    9.7800  -23.4520 C.3   136  LYS136      0.0035
    175  CD         9.3340    8.4980  -24.2370 C.3   136  LYS136      0.0206
    176  CE         9.5380    7.2710  -23.3780 C.3   136  LYS136      0.1093
    177  NZ         9.0490    6.0960  -24.1250 N.3   136  LYS136     -0.1314
    178  N         -1.8020   14.1870  -23.5590 N.3   140  TRP140     -0.1241
    179  CA        -2.7160   13.5490  -24.4920 C.3   140  TRP140      0.1605
    180  C         -3.9240   14.4160  -24.8160 C.2   140  TRP140      0.2264
    181  O         -4.5940   14.9430  -23.9220 O.2   140  TRP140     -0.2867
    182  CB        -3.2060   12.2760  -23.8660 C.3   140  TRP140      0.0550
    183  CG        -2.2150   11.1690  -23.8580 C.ar  140  TRP140      0.0003
    184  CD1       -0.8420   11.2650  -23.7550 C.ar  140  TRP140      0.0946
    185  CD2       -2.5210    9.7760  -23.9210 C.ar  140  TRP140      0.0152
    186  NE1       -0.2860   10.0080  -23.7640 N.ar  140  TRP140     -0.2442
    187  CE2       -1.2870    9.0740  -23.8730 C.ar  140  TRP140      0.0810
    188  CE3       -3.7210    9.0440  -24.0360 C.ar  140  TRP140      0.0012
    189  CZ2       -1.2140    7.6560  -23.9490 C.ar  140  TRP140      0.0191
    190  CZ3       -3.6460    7.6200  -24.0860 C.ar  140  TRP140      0.0001
    191  CH2       -2.3980    6.9520  -24.0400 C.ar  140  TRP140      0.0015
    192  N          1.6970    5.7990  -33.2420 N.3   177  THR177     -0.1218
    193  CA         2.3940    5.1110  -32.1590 C.3   177  THR177      0.1862
    194  C          1.9740    3.6360  -32.0980 C.2   177  THR177      0.2287
    195  O          2.8260    2.7650  -31.9360 O.2   177  THR177     -0.2866
    196  CB         2.1520    5.7840  -30.7880 C.3   177  THR177      0.1770
    197  OG1        2.2940    7.2050  -30.9270 O.3   177  THR177     -0.2211
    198  CG2        3.1300    5.2520  -29.7290 C.3   177  THR177      0.0375
@<TRIPOS>BOND
     1   192   193    1
     2   193   194    1
     3   193   196    1
     4   194   195    2
     5   197   196    1
     6   196   198    1
     7   135   134    2
     8   132   133    1
     9   121   119   ar
    10   121   122   ar
    11   119   116   ar
    12   112   111    2
    13   113   114    1
    14   113   110    1
    15   134   133    1
    16   122   120   ar
    17   116   114   ar
    18   116   118   ar
    19   114   115   ar
    20   141   140    1
    21   128   129    1
    22   128   127    1
    23   133   136    1
    24   120   118   ar
    25   137   136    1
    26   137   138    1
    27   118   117   ar
    28   131   129   ar
    29   139   140    2
    30   139   138    1
    31   115   117   ar
    32   111   110    1
    33   111   123   am
    34   124   127    1
    35   124   123    1
    36   124   125    1
    37   129   130   ar
    38   110   109    1
    39   126   125    2
    40   140   142    1
    41   109   103   am
    42   180   179    1
    43   180   181    2
    44   104   103    2
    45   103   102    1
    46   179   182    1
    47   179   178    1
    48   175   174    1
    49   175   176    1
    50   177   176    1
    51   190   191   ar
    52   190   188   ar
    53   191   189   ar
    54   188   185   ar
    55   189   187   ar
    56   185   187   ar
    57   185   183   ar
    58   187   186   ar
    59   182   183    1
    60   183   184   ar
    61   186   184   ar
    62   174   173    1
    63   102   105    1
    64   102   101    1
    65   105   106    1
    66   173   170    1
    67   106   107    1
    68   101    96   am
    69    59    57   am
    70   107   108    1
    71    47    49   ar
    72    47    44   ar
    73    41    42    1
    74    41    38    1
    75    49    50   ar
    76    44    42   ar
    77    44    46   ar
    78    42    43   ar
    79    50    48   ar
    80    46    48   ar
    81    46    45   ar
    82   156   155    2
    83    43    45   ar
    84   170   171    1
    85   170   169    1
    86    96    97    2
    87    96    95    1
    88    57    58    2
    89    57    56    1
    90   165   164    1
    91   165   166    2
    92    37    38    1
    93   149   147    1
    94   171   172    2
    95    38    39    1
    96   164   163    1
    97   155   157   am
    98   155   154    1
    99    55    56    1
   100    55    52    1
   101   168   166    1
   102   163   162    1
   103    95    94    1
   104    95    98    1
   105   147   148    1
   106   147   144    1
   107    51    39   am
   108    51    52    1
   109   166   167    1
   110   162   159    1
   111   146   145    2
   112   154   151    1
   113    94   100    1
   114    39    40    2
   115    52    53    1
   116   143   144    1
   117   144   145    1
   118    98    99    1
   119   161   160    2
   120   159   160    1
   121   159   158    1
   122   100    99    1
   123    67    65    1
   124   151   150    1
   125   151   152    1
   126   153   152    2
   127    53    54    2
   128    36    34   ar
   129    36    35   ar
   130    34    32   ar
   131    75    73   ar
   132    74    73   ar
   133    35    33   ar
   134    73    72    1
   135    32    31   ar
   136    65    66    1
   137    65    64    1
   138    92    93    1
   139    92    89    1
   140    64    61    1
   141    33    31   ar
   142    31    30    1
   143    72    69    1
   144    79    78    2
   145    89    90    1
   146    89    88    1
   147    30    27    1
   148    60    61    1
   149    61    62    1
   150    12    14   ar
   151    12    10   ar
   152    90    91    2
   153    14    13   ar
   154     9    10   ar
   155     9     7   ar
   156    69    68    1
   157    69    70    1
   158    10     8   ar
   159    78    88   am
   160    78    77    1
   161     7     6   ar
   162    13    11   ar
   163     8     6   ar
   164     8    11   ar
   165     6     5    1
   166    63    62    2
   167    76    70   am
   168    76    77    1
   169    70    71    2
   170     5     2    1
   171    27    28    1
   172    27    26    1
   173    77    80    1
   174    28    29    2
   175    26    17   am
   176    18    17    2
   177    80    81    1
   178    17    16    1
   179     2     3    1
   180     2     1    1
   181     4     3    2
   182     3    15   am
   183    15    16    1
   184    16    19    1
   185    81    82   ar
   186    81    83   ar
   187    82    84   ar
   188    83    85   ar
   189    19    20    1
   190    20    21   ar
   191    20    22   ar
   192    21    23   ar
   193    22    24   ar
   194    23    25   ar
   195    24    25   ar
   196    84    86   ar
   197    85    86   ar
   198    86    87    1
