@<TRIPOS>MOLECULE
tmp/4dt8A00.pdb
 139 131 0 0 0
SMALL
GASTEIGER

@<TRIPOS>ATOM
      1  N         12.0200   -5.6940   33.5980 N.3    28  SER28      -0.1202
      2  CA        10.8430   -5.3290   34.3620 C.3    28  SER28       0.2020
      3  C         10.3900   -6.4560   35.2860 C.2    28  SER28       0.2619
      4  O          9.8250   -6.2130   36.3340 O.2    28  SER28      -0.2717
      5  CB         9.7150   -5.0280   33.4000 C.3    28  SER28       0.2103
      6  OG         8.4750   -5.1170   34.0920 O.3    28  SER28      -0.2182
      7  N         10.6160   -7.7110   34.9070 N.am   29  GLY29      -0.1942
      8  CA        10.2000   -8.8050   35.7830 C.3    29  GLY29       0.2014
      9  C         10.4000  -10.0510   34.9810 C.2    29  GLY29       0.2639
     10  O         10.9440   -9.9990   33.8780 O.2    29  GLY29      -0.2714
     11  N          9.9340  -11.1680   35.5050 N.am   30  GLU30      -0.1963
     12  CA        10.2380  -12.4530   34.9140 C.3    30  GLU30       0.1733
     13  C          9.3110  -13.4790   35.4590 C.2    30  GLU30       0.2616
     14  O          9.1850  -13.5800   36.6480 O.2    30  GLU30      -0.2715
     15  CB        11.6400  -12.8200   35.3240 C.3    30  GLU30       0.0429
     16  CG        12.1860  -14.0270   34.6190 C.3    30  GLU30       0.1163
     17  CD        13.3850  -14.5970   35.3260 C.2    30  GLU30       0.3649
     18  OE1       14.0230  -13.8590   36.0880 O.co2  30  GLU30      -0.2457
     19  OE2       13.6810  -15.7950   35.1030 O.co2  30  GLU30      -0.2457
     20  N          8.6550  -14.2290   34.5910 N.am   31  GLY31      -0.1955
     21  CA         7.8240  -15.3890   34.9750 C.3    31  GLY31       0.1869
     22  C          8.4380  -16.7130   34.5070 C.2    31  GLY31       0.2309
     23  O          9.6390  -16.7770   34.2560 O.2    31  GLY31      -0.2863
     24  N          8.8370  -16.2110   30.2540 N.3    34  CYS34      -0.1235
     25  CA         9.4690  -15.0890   29.5950 C.3    34  CYS34       0.1677
     26  C         10.1540  -14.1950   30.5960 C.2    34  CYS34       0.2270
     27  O          9.7990  -14.2070   31.8030 O.2    34  CYS34      -0.2867
     28  CB         8.4240  -14.2500   28.8630 C.3    34  CYS34       0.0956
     29  SG         7.7350  -15.0890   27.4280 S.3    34  CYS34      -0.0801
     30  N         10.6730  -10.1280   30.9940 N.3    36  ALA36      -0.1245
     31  CA        10.0580   -8.9070   30.5400 C.3    36  ALA36       0.1562
     32  C         11.0270   -7.7420   30.6950 C.2    36  ALA36       0.2260
     33  O         11.6460   -7.5720   31.7740 O.2    36  ALA36      -0.2867
     34  CB         8.7590   -8.6410   31.2940 C.3    36  ALA36       0.0290
     35  N          6.2440   -2.9600   27.4060 N.3    44  ILE44      -0.1245
     36  CA         6.8300   -4.1850   27.9140 C.3    44  ILE44       0.1561
     37  C          7.0400   -5.2280   26.8170 C.2    44  ILE44       0.2260
     38  O          6.1070   -5.6040   26.0740 O.2    44  ILE44      -0.2867
     39  CB         5.9820   -4.7970   29.0140 C.3    44  ILE44       0.0252
     40  CG1        5.8330   -3.8040   30.1800 C.3    44  ILE44       0.0019
     41  CG2        6.5990   -6.1520   29.4050 C.3    44  ILE44       0.0019
     42  CD1        7.1270   -3.4550   30.9260 C.3    44  ILE44       0.0001
     43  N          8.3650   -9.0250   25.9580 N.3    46  LYS46      -0.1245
     44  CA         8.6030  -10.3310   26.5150 C.3    46  LYS46       0.1561
     45  C          9.4440  -11.1670   25.5750 C.2    46  LYS46       0.2260
     46  O          9.1520  -11.2730   24.3940 O.2    46  LYS46      -0.2867
     47  CB         7.2750  -11.0460   26.7630 C.3    46  LYS46       0.0271
     48  CG         6.4650  -10.4880   27.9600 C.3    46  LYS46       0.0035
     49  CD         5.3100  -11.4300   28.3630 C.3    46  LYS46       0.0206
     50  CE         4.4360  -10.7790   29.4200 C.3    46  LYS46       0.1093
     51  NZ         3.3090  -11.6390   29.9260 N.3    46  LYS46      -0.1314
     52  N         -2.9610   -5.4070   28.2940 N.3    76  PRO76      -0.2116
     53  CA        -1.8940   -4.9790   27.3750 C.3    76  PRO76       0.1372
     54  C         -2.3860   -5.0530   25.9070 C.2    76  PRO76       0.2244
     55  O         -3.1660   -5.9260   25.5620 O.2    76  PRO76      -0.2868
     56  CB        -0.7700   -6.0170   27.6310 C.3    76  PRO76       0.0268
     57  CG        -1.0430   -6.4950   29.0070 C.3    76  PRO76       0.0207
     58  CD        -2.5630   -6.6330   29.0330 C.3    76  PRO76       0.0892
     59  N          4.1520   -5.1930   24.2310 N.3    95  PHE95      -0.1227
     60  CA         2.8440   -4.7860   24.5980 C.3    95  PHE95       0.1736
     61  C          2.9370   -3.3690   25.1800 C.2    95  PHE95       0.2596
     62  O          3.9860   -2.9580   25.6960 O.2    95  PHE95      -0.2718
     63  CB         2.3530   -5.7170   25.7360 C.3    95  PHE95       0.0547
     64  CG         2.4460   -7.2110   25.4070 C.ar   95  PHE95      -0.0202
     65  CD1        1.4420   -7.8300   24.6930 C.ar   95  PHE95      -0.0042
     66  CD2        3.5560   -7.9730   25.7970 C.ar   95  PHE95      -0.0042
     67  CE1        1.5130   -9.1960   24.3870 C.ar   95  PHE95      -0.0003
     68  CE2        3.6280   -9.3560   25.5020 C.ar   95  PHE95      -0.0003
     69  CZ         2.6000   -9.9770   24.8060 C.ar   95  PHE95      -0.0000
     70  N          1.8430   -2.6170   25.1250 N.am   96  THR96      -0.1939
     71  CA         1.7250   -1.3840   25.9100 C.3    96  THR96       0.2028
     72  C          2.0200   -1.6780   27.3720 C.2    96  THR96       0.2642
     73  O          1.5840   -2.7080   27.9400 O.2    96  THR96      -0.2714
     74  CB         0.2730   -0.7870   25.8190 C.3    96  THR96       0.1808
     75  OG1       -0.6630   -1.8630   25.8420 O.3    96  THR96      -0.2208
     76  CG2        0.0020   -0.0390   24.4570 C.3    96  THR96       0.0379
     77  N          2.7200   -0.7600   28.0270 N.am   97  LYS97      -0.1963
     78  CA         2.9320   -0.9030   29.4820 C.3    97  LYS97       0.1728
     79  C          1.6720   -0.4940   30.2220 C.2    97  LYS97       0.2616
     80  O          1.2660    0.6650   30.1120 O.2    97  LYS97      -0.2715
     81  CB         4.0210    0.0430   29.9840 C.3    97  LYS97       0.0311
     82  CG         4.4480   -0.2840   31.4140 C.3    97  LYS97       0.0038
     83  CD         5.3650    0.7580   32.0260 C.3    97  LYS97       0.0206
     84  CE         5.3240    0.6090   33.5530 C.3    97  LYS97       0.1093
     85  NZ         6.3820    1.4810   34.1610 N.3    97  LYS97      -0.1314
     86  N          1.0980   -1.3760   31.0360 N.am   98  ILE98      -0.1977
     87  CA         0.0890   -0.9210   31.9550 C.3    98  ILE98       0.1596
     88  C          0.7140   -0.4630   33.2540 C.2    98  ILE98       0.2287
     89  O          1.5410   -1.1710   33.8490 O.2    98  ILE98      -0.2864
     90  CB        -0.8800   -2.0130   32.2520 C.3    98  ILE98       0.0276
     91  CG1       -1.5120   -2.4730   30.9500 C.3    98  ILE98       0.0022
     92  CG2       -1.9800   -1.5470   33.2250 C.3    98  ILE98       0.0022
     93  CD1       -2.0320   -3.8360   31.2350 C.3    98  ILE98       0.0001
     94  N          0.8850    1.0480   37.2610 N.3   100  GLY100     -0.1225
     95  CA         0.3080    0.4940   38.4840 C.3   100  GLY100      0.1811
     96  C          1.2730   -0.4940   39.1300 C.2   100  GLY100      0.2280
     97  O          2.3030   -0.7890   38.5450 O.2   100  GLY100     -0.2866
     98  N         -0.3970  -10.7490   41.8820 N.3   201  ASP201     -0.1225
     99  CA         0.7570  -10.2090   41.1310 C.3   201  ASP201      0.1805
    100  C          0.3320   -9.8040   39.7370 C.2   201  ASP201      0.2597
    101  O          1.0890   -9.1350   39.0710 O.2   201  ASP201     -0.2718
    102  CB         1.9290  -11.1660   41.0040 C.3   201  ASP201      0.1424
    103  CG         2.7180  -11.3040   42.2930 C.2   201  ASP201      0.3668
    104  OD1        2.8520  -10.3130   43.1000 O.co2 201  ASP201     -0.2456
    105  OD2        3.1660  -12.4540   42.5190 O.co2 201  ASP201     -0.2456
    106  N         -0.8790  -10.1950   39.3060 N.am  202  HIS202     -0.1975
    107  CA        -1.3110   -9.8540   37.8930 C.3   202  HIS202      0.1656
    108  C         -2.4370   -8.8490   37.8150 C.2   202  HIS202      0.2291
    109  O         -3.0170   -8.6110   36.7540 O.2   202  HIS202     -0.2864
    110  CB        -1.6290  -11.1230   37.0890 C.3   202  HIS202      0.0771
    111  CG        -0.5030  -12.1470   37.1480 C.ar  202  HIS202      0.0820
    112  ND1       -0.6430  -13.3520   37.7520 N.ar  202  HIS202     -0.2267
    113  CD2        0.8300  -12.0660   36.7340 C.ar  202  HIS202      0.1154
    114  CE1        0.5580  -14.0200   37.7220 C.ar  202  HIS202      0.1986
    115  NE2        1.4490  -13.2300   37.0920 N.ar  202  HIS202     -0.2212
    116  N         -3.1810   -4.9280   38.6320 N.3   204  LEU204     -0.1245
    117  CA        -2.4020   -3.7330   38.8370 C.3   204  LEU204      0.1561
    118  C         -3.3230   -2.6660   39.3960 C.2   204  LEU204      0.2260
    119  O         -4.5500   -2.6020   39.0810 O.2   204  LEU204     -0.2867
    120  CB        -1.6600   -3.2600   37.5620 C.3   204  LEU204      0.0270
    121  CG        -0.5920   -4.2400   37.0120 C.3   204  LEU204      0.0019
    122  CD1        0.2560   -3.6430   35.8920 C.3   204  LEU204      0.0001
    123  CD2        0.3670   -4.8030   38.0820 C.3   204  LEU204      0.0001
    124  N         -2.7900   -8.1740   33.7890 N.3   216  ILE216     -0.1231
    125  CA        -1.7030   -8.5240   32.9160 C.3   216  ILE216      0.1692
    126  C         -1.4580  -10.0210   32.8840 C.2   216  ILE216      0.2592
    127  O         -2.1080  -10.7770   33.5980 O.2   216  ILE216     -0.2718
    128  CB        -0.4160   -7.8100   33.3270 C.3   216  ILE216      0.0266
    129  CG1       -0.0340   -8.1720   34.8150 C.3   216  ILE216      0.0019
    130  CG2       -0.5700   -6.2710   33.1230 C.3   216  ILE216      0.0020
    131  CD1        1.3390   -7.5620   35.2400 C.3   216  ILE216      0.0001
    132  N         -0.5000  -10.4330   32.0810 N.am  217  ASP217     -0.1974
    133  CA        -0.0310  -11.8240   32.0370 C.3   217  ASP217      0.1709
    134  C         -1.0740  -12.8530   31.5840 C.2   217  ASP217      0.2293
    135  O         -1.5980  -13.6640   32.3890 O.2   217  ASP217     -0.2864
    136  CB         0.6000  -12.2080   33.3710 C.3   217  ASP217      0.1436
    137  CG         1.8790  -11.4320   33.6290 C.2   217  ASP217      0.3671
    138  OD1        2.6320  -11.1840   32.6770 O.co2 217  ASP217     -0.2456
    139  OD2        2.1100  -11.0580   34.7800 O.co2 217  ASP217     -0.2456
@<TRIPOS>BOND
     1    59    60    1
     2    67    65   ar
     3    67    69   ar
     4    46    45    2
     5    76    74    1
     6    60    61    1
     7    60    63    1
     8    65    64   ar
     9    69    68   ar
    10    70    61   am
    11    70    71    1
    12    61    62    2
    13    64    63    1
    14    64    66   ar
    15    68    66   ar
    16    55    54    2
    17    45    44    1
    18    74    75    1
    19    74    71    1
    20    54    53    1
    21    71    72    1
    22    43    44    1
    23    38    37    2
    24    44    47    1
    25    47    48    1
    26    37    36    1
    27    72    73    2
    28    72    77   am
    29    53    56    1
    30    53    52    1
    31    35    36    1
    32    29    28    1
    33    56    57    1
    34    36    39    1
    35    48    49    1
    36    77    78    1
    37    52    58    1
    38    49    50    1
    39    28    25    1
    40    57    58    1
    41    39    41    1
    42    39    40    1
    43    50    51    1
    44    78    81    1
    45    78    79    1
    46    25    24    1
    47    25    26    1
    48    81    82    1
    49    80    79    2
    50    40    42    1
    51    79    86   am
    52    31    32    1
    53    31    30    1
    54    31    34    1
    55    26    27    2
    56    32    33    2
    57    91    93    1
    58    91    90    1
    59    86    87    1
    60    82    83    1
    61   134   133    1
    62   134   135    2
    63    87    90    1
    64    87    88    1
    65    83    84    1
    66   133   132    1
    67   133   136    1
    68   132   126   am
    69    90    92    1
    70   138   137   ar
    71   126   125    1
    72   126   127    2
    73   125   128    1
    74   125   124    1
    75   130   128    1
    76    88    89    2
    77   128   129    1
    78   136   137    1
    79     5     6    1
    80     5     2    1
    81    84    85    1
    82     1     2    1
    83   137   139   ar
    84    10     9    2
    85    23    22    2
    86     2     3    1
    87    22    21    1
    88    20    21    1
    89    20    13   am
    90    16    15    1
    91    16    17    1
    92   129   131    1
    93     7     3   am
    94     7     8    1
    95    12    15    1
    96    12    13    1
    97    12    11    1
    98     9    11   am
    99     9     8    1
   100    19    17   ar
   101     3     4    2
   102    17    18   ar
   103    13    14    2
   104   122   121    1
   105   113   115   ar
   106   113   111   ar
   107   109   108    2
   108   121   120    1
   109   121   123    1
   110   110   111    1
   111   110   107    1
   112   115   114   ar
   113   111   112   ar
   114    94    95    1
   115   120   117    1
   116   114   112   ar
   117   108   107    1
   118   107   106    1
   119    95    96    1
   120    97    96    2
   121   116   117    1
   122   117   118    1
   123   101   100    2
   124   119   118    2
   125   106   100   am
   126   100    99    1
   127   102    99    1
   128   102   103    1
   129    99    98    1
   130   103   105   ar
   131   103   104   ar
