@<TRIPOS>MOLECULE
tmp/4dtbA00.pdb
 133 124 0 0 0
SMALL
GASTEIGER

@<TRIPOS>ATOM
      1  N         -4.4550    7.6540   26.3230 N.3    28  SER28      -0.1202
      2  CA        -3.5370    7.2020   27.3870 C.3    28  SER28       0.2020
      3  C         -3.3050    8.2450   28.5150 C.2    28  SER28       0.2619
      4  O         -3.1050    7.8940   29.6630 O.2    28  SER28      -0.2717
      5  CB        -2.1800    6.8630   26.7280 C.3    28  SER28       0.2103
      6  OG        -1.1050    6.9080   27.6730 O.3    28  SER28      -0.2182
      7  N         -3.2520    9.5250   28.1470 N.am   29  GLY29      -0.1942
      8  CA        -2.8290   10.6030   29.0410 C.3    29  GLY29       0.2014
      9  C         -2.5790   11.9020   28.2680 C.2    29  GLY29       0.2639
     10  O         -2.5320   11.9250   27.0450 O.2    29  GLY29      -0.2714
     11  N         -2.4170   12.9960   28.9830 N.am   30  GLU30      -0.1963
     12  CA        -2.3020   14.2990   28.3460 C.3    30  GLU30       0.1733
     13  C         -1.2760   15.0530   29.1380 C.2    30  GLU30       0.2616
     14  O         -1.3120   15.0080   30.3650 O.2    30  GLU30      -0.2715
     15  CB        -3.6330   15.0550   28.4380 C.3    30  GLU30       0.0429
     16  CG        -3.7600   16.1340   27.3860 C.3    30  GLU30       0.1163
     17  CD        -5.0760   16.9140   27.4760 C.2    30  GLU30       0.3649
     18  OE1       -6.1670   16.3040   27.3900 O.co2  30  GLU30      -0.2457
     19  OE2       -4.9980   18.1550   27.6200 O.co2  30  GLU30      -0.2457
     20  N         -0.3510   15.7150   28.4470 N.am   31  GLY31      -0.1955
     21  CA         0.5100   16.7170   29.0670 C.3    31  GLY31       0.1869
     22  C          0.1160   18.1080   28.5880 C.2    31  GLY31       0.2309
     23  O         -0.9410   18.3110   27.9890 O.2    31  GLY31      -0.2863
     24  N          1.0910   17.7420   24.2970 N.3    34  CYS34      -0.1235
     25  CA         0.5140   16.7350   23.4060 C.3    34  CYS34       0.1677
     26  C         -0.5370   15.9300   24.1080 C.2    34  CYS34       0.2270
     27  O         -0.5070   15.7910   25.3290 O.2    34  CYS34      -0.2867
     28  CB         1.5640   15.7460   22.9440 C.3    34  CYS34       0.0956
     29  SG         2.9070   16.4290   22.0160 S.3    34  CYS34      -0.0801
     30  N         -1.8140   12.0650   24.3400 N.3    36  ALA36      -0.1245
     31  CA        -1.2250   10.7610   24.0640 C.3    36  ALA36       0.1562
     32  C         -2.3090    9.7380   23.9020 C.2    36  ALA36       0.2260
     33  O         -3.1730    9.6300   24.7960 O.2    36  ALA36      -0.2867
     34  CB        -0.2350   10.3430   25.1450 C.3    36  ALA36       0.0290
     35  N          1.8450    4.1360   21.9390 N.3    44  ILE44      -0.1245
     36  CA         1.4030    5.4750   22.3420 C.3    44  ILE44       0.1561
     37  C          1.7730    6.3900   21.2190 C.2    44  ILE44       0.2260
     38  O          2.9590    6.4460   20.8530 O.2    44  ILE44      -0.2867
     39  CB         2.1790    5.9910   23.5990 C.3    44  ILE44       0.0252
     40  CG1        2.0560    5.0250   24.7950 C.3    44  ILE44       0.0019
     41  CG2        1.8040    7.4460   23.9400 C.3    44  ILE44       0.0019
     42  CD1        0.6520    4.9240   25.4430 C.3    44  ILE44       0.0001
     43  N          1.6500   10.3680   20.2700 N.3    46  LYS46      -0.1245
     44  CA         1.4630   11.7220   20.7590 C.3    46  LYS46       0.1561
     45  C          1.1360   12.6460   19.6260 C.2    46  LYS46       0.2260
     46  O          1.7980   12.6320   18.6030 O.2    46  LYS46      -0.2867
     47  CB         2.7500   12.1820   21.4180 C.3    46  LYS46       0.0271
     48  CG         3.0360   11.5270   22.7310 C.3    46  LYS46       0.0035
     49  CD         3.8830   12.4900   23.5160 C.3    46  LYS46       0.0206
     50  CE         4.8400   11.7570   24.4290 C.3    46  LYS46       0.1093
     51  NZ         5.4830   12.7240   25.3540 N.3    46  LYS46      -0.1314
     52  N          5.3260    5.6340   19.7400 N.3    95  TYR95      -0.1241
     53  CA         6.2880    4.7310   20.3520 C.3    95  TYR95       0.1605
     54  C          5.6830    3.5780   21.0770 C.2    95  TYR95       0.2264
     55  O          4.4960    3.5680   21.3950 O.2    95  TYR95      -0.2867
     56  CB         7.2780    5.4730   21.2460 C.3    95  TYR95       0.0534
     57  CG         6.7050    6.1500   22.4650 C.ar   95  TYR95      -0.0201
     58  CD1        6.3090    5.4240   23.5850 C.ar   95  TYR95      -0.0009
     59  CD2        6.6270    7.5290   22.5110 C.ar   95  TYR95      -0.0009
     60  CE1        5.8120    6.0770   24.7370 C.ar   95  TYR95       0.0417
     61  CE2        6.1380    8.1760   23.6110 C.ar   95  TYR95       0.0417
     62  CZ         5.7380    7.4580   24.7190 C.ar   95  TYR95       0.1957
     63  OH         5.2840    8.1810   25.7690 O.3    95  TYR95      -0.2866
     64  N          4.5420    1.2680   23.9250 N.3    97  LYS97      -0.1231
     65  CA         4.0620    1.6280   25.2860 C.3    97  LYS97       0.1693
     66  C          4.8810    0.9930   26.4110 C.2    97  LYS97       0.2591
     67  O          5.1820   -0.1780   26.3560 O.2    97  LYS97      -0.2718
     68  CB         2.6550    1.1770   25.4750 C.3    97  LYS97       0.0285
     69  CG         2.1470    1.4240   26.9100 C.3    97  LYS97       0.0035
     70  CD         0.6570    1.0630   27.0250 C.3    97  LYS97       0.0206
     71  CE         0.0500    1.4890   28.3490 C.3    97  LYS97       0.1093
     72  NZ        -1.0250    0.5470   28.6300 N.3    97  LYS97      -0.1314
     73  N          5.2150    1.7870   27.4320 N.am   98  ILE98      -0.1980
     74  CA         5.8460    1.2830   28.5790 C.3    98  ILE98       0.1595
     75  C          4.7190    0.9450   29.5910 C.2    98  ILE98       0.2287
     76  O          4.0270    1.8210   30.1060 O.2    98  ILE98      -0.2864
     77  CB         6.9360    2.2870   29.1430 C.3    98  ILE98       0.0276
     78  CG1        8.1420    2.3500   28.1720 C.3    98  ILE98       0.0022
     79  CG2        7.4160    1.8690   30.5070 C.3    98  ILE98       0.0022
     80  CD1        8.9920    3.6360   28.3000 C.3    98  ILE98       0.0001
     81  N          3.0460    0.1500   33.1280 N.3   100  GLY100     -0.1225
     82  CA         3.3740    0.5260   34.4900 C.3   100  GLY100      0.1811
     83  C          2.5510    1.7570   34.8120 C.2   100  GLY100      0.2280
     84  O          1.9180    2.2800   33.9130 O.2   100  GLY100     -0.2866
     85  N          2.3090    5.5740   37.1970 N.3   102  PRO102     -0.2116
     86  CA         3.2420    6.6000   37.7410 C.3   102  PRO102      0.1372
     87  C          3.6820    6.2670   39.1810 C.2   102  PRO102      0.2244
     88  O          2.8370    5.7840   39.9440 O.2   102  PRO102     -0.2868
     89  CB         2.3590    7.8730   37.7350 C.3   102  PRO102      0.0268
     90  CG         1.5010    7.6940   36.4880 C.3   102  PRO102      0.0207
     91  CD         1.1150    6.1920   36.5750 C.3   102  PRO102      0.0892
     92  N          4.9780   12.0710   37.9400 N.3   201  ASP201     -0.1225
     93  CA         4.0560   11.6660   36.8570 C.3   201  ASP201      0.1805
     94  C          4.8230   11.0190   35.6880 C.2   201  ASP201      0.2597
     95  O          4.2090   10.4100   34.8570 O.2   201  ASP201     -0.2718
     96  CB         3.3290   12.8650   36.2470 C.3   201  ASP201      0.1424
     97  CG         2.4310   13.5750   37.2070 C.2   201  ASP201      0.3668
     98  OD1        1.9700   12.9450   38.2170 O.co2 201  ASP201     -0.2456
     99  OD2        2.1740   14.7870   36.9170 O.co2 201  ASP201     -0.2456
    100  N          6.1330   11.2010   35.6250 N.am  202  HIS202     -0.1975
    101  CA         6.9660   10.7460   34.4730 C.3   202  HIS202      0.1656
    102  C          7.8600    9.5640   34.7960 C.2   202  HIS202      0.2291
    103  O          8.7190    9.1800   34.0030 O.2   202  HIS202     -0.2864
    104  CB         7.7750   11.9320   33.9030 C.3   202  HIS202      0.0771
    105  CG         6.8950   13.0730   33.5060 C.ar  202  HIS202      0.0820
    106  ND1        7.3000   14.3730   33.5630 N.ar  202  HIS202     -0.2267
    107  CD2        5.6080   13.0980   33.0590 C.ar  202  HIS202      0.1154
    108  CE1        6.3030   15.1660   33.1840 C.ar  202  HIS202      0.1986
    109  NE2        5.2700   14.4130   32.8630 N.ar  202  HIS202     -0.2212
    110  N          7.7130    5.6570   35.7690 N.3   204  LEU204     -0.1245
    111  CA         6.7430    4.5850   35.6730 C.3   204  LEU204      0.1561
    112  C          7.1920    3.4580   36.5680 C.2   204  LEU204      0.2260
    113  O          8.4150    3.1650   36.6830 O.2   204  LEU204     -0.2867
    114  CB         6.6530    4.1450   34.2070 C.3   204  LEU204      0.0270
    115  CG         5.9670    5.1840   33.3250 C.3   204  LEU204      0.0019
    116  CD1        5.9300    4.6510   31.9540 C.3   204  LEU204      0.0001
    117  CD2        4.4570    5.4270   33.8500 C.3   204  LEU204      0.0001
    118  N          9.5800    8.7100   31.2260 N.3   216  ILE216     -0.1231
    119  CA         8.9360    9.1390   29.9740 C.3   216  ILE216      0.1692
    120  C          8.9220   10.6820   29.8890 C.2   216  ILE216      0.2592
    121  O          9.3500   11.3310   30.8140 O.2   216  ILE216     -0.2718
    122  CB         7.4990    8.6360   29.8970 C.3   216  ILE216      0.0266
    123  CG1        6.6850    9.1200   31.1230 C.3   216  ILE216      0.0019
    124  CG2        7.4970    7.0570   29.7670 C.3   216  ILE216      0.0020
    125  CD1        5.1870    8.6470   31.0700 C.3   216  ILE216      0.0001
    126  N          8.4070   11.2210   28.7880 N.am  217  ASP217     -0.1974
    127  CA         8.1700   12.6580   28.5630 C.3   217  ASP217      0.1709
    128  C          9.4620   13.5090   28.5580 C.2   217  ASP217      0.2293
    129  O          9.7140   14.3470   29.4480 O.2   217  ASP217     -0.2864
    130  CB         7.1500   13.2180   29.5520 C.3   217  ASP217      0.1436
    131  CG         5.7560   12.6000   29.3840 C.2   217  ASP217      0.3671
    132  OD1        5.4270   12.0560   28.3380 O.co2 217  ASP217     -0.2456
    133  OD2        4.9910   12.6320   30.3350 O.co2 217  ASP217     -0.2456
@<TRIPOS>BOND
     1    46    45    2
     2    45    44    1
     3    52    53    1
     4    43    44    1
     5    53    54    1
     6    53    56    1
     7    44    47    1
     8    38    37    2
     9    54    55    2
    10    37    36    1
    11    56    57    1
    12    47    48    1
    13    35    36    1
    14    29    28    1
    15    36    39    1
    16    57    59   ar
    17    57    58   ar
    18    59    61   ar
    19    48    49    1
    20    28    25    1
    21    25    26    1
    22    25    24    1
    23    49    50    1
    24    58    60   ar
    25    39    41    1
    26    39    40    1
    27    61    62   ar
    28    32    31    1
    29    32    33    2
    30    64    65    1
    31    31    30    1
    32    31    34    1
    33    26    27    2
    34    50    51    1
    35    62    60   ar
    36    62    63    1
    37    40    42    1
    38    65    68    1
    39    65    66    1
    40    68    69    1
    41     1     2    1
    42    67    66    2
    43    66    73   am
    44     5     2    1
    45     5     6    1
    46    69    70    1
    47    70    71    1
    48    10     9    2
    49    16    17    1
    50    16    15    1
    51     2     3    1
    52    18    17   ar
    53    73    74    1
    54    17    19   ar
    55    23    22    2
    56     7     3   am
    57     7     8    1
    58    78    80    1
    59    78    77    1
    60     9    11   am
    61     9     8    1
    62   132   131   ar
    63    12    15    1
    64    12    11    1
    65    12    13    1
    66    71    72    1
    67    20    21    1
    68    20    13   am
    69     3     4    2
    70   128   127    1
    71   128   129    2
    72   127   126    1
    73   127   130    1
    74    74    77    1
    75    74    75    1
    76    22    21    1
    77   126   120   am
    78    13    14    2
    79    77    79    1
    80   131   130    1
    81   131   133   ar
    82    75    76    2
    83   124   122    1
    84   120   119    1
    85   120   121    2
    86   122   119    1
    87   122   123    1
    88   119   118    1
    89   125   123    1
    90   116   115    1
    91   109   107   ar
    92   109   108   ar
    93   107   105   ar
    94    81    82    1
    95   108   106   ar
    96   115   117    1
    97   115   114    1
    98   105   106   ar
    99   105   104    1
   100   104   101    1
   101    84    83    2
   102   103   102    2
   103   114   111    1
   104   101   102    1
   105   101   100    1
   106    82    83    1
   107    95    94    2
   108   100    94   am
   109   111   110    1
   110   111   112    1
   111    94    93    1
   112    96    93    1
   113    96    97    1
   114    90    91    1
   115    90    89    1
   116   112   113    2
   117    91    85    1
   118    93    92    1
   119    99    97   ar
   120    85    86    1
   121    97    98   ar
   122    89    86    1
   123    86    87    1
   124    87    88    2
