@<TRIPOS>MOLECULE
tmp/4dtcB00.pdb
 219 217 0 0 0
SMALL
GASTEIGER

@<TRIPOS>ATOM
      1  N        -16.5590   10.2640   15.8720 N.3    87  ARG87      -0.1245
      2  CA       -16.5360    8.9940   16.5920 C.3    87  ARG87       0.1563
      3  C        -17.9470    8.6040   17.0080 C.2    87  ARG87       0.2260
      4  O        -18.3670    7.4620   16.8100 O.2    87  ARG87      -0.2867
      5  CB       -15.5610    8.9890   17.7870 C.3    87  ARG87       0.0307
      6  CG       -15.2810    7.5660   18.2830 C.3    87  ARG87       0.0489
      7  CD       -14.5900    7.4830   19.6340 C.3    87  ARG87       0.2205
      8  NE       -13.1790    7.9160   19.6380 N.pl3  87  ARG87      -0.0865
      9  CZ       -12.1100    7.1350   19.4030 C.cat  87  ARG87       0.5346
     10  NH1      -12.2350    5.8470   19.0950 N.pl3  87  ARG87       0.1354
     11  NH2      -10.8870    7.6460   19.4690 N.pl3  87  ARG87       0.1354
     12  N        -15.0920   14.2660   21.1420 N.3   167  GLU167     -0.1231
     13  CA       -14.1030   13.2280   21.3320 C.3   167  GLU167      0.1699
     14  C        -13.5710   13.2210   22.7530 C.2   167  GLU167      0.2592
     15  O        -13.5410   12.1720   23.3810 O.2   167  GLU167     -0.2718
     16  CB       -12.9670   13.3610   20.3120 C.3   167  GLU167      0.0402
     17  CG       -11.7700   12.4560   20.5700 C.3   167  GLU167      0.1161
     18  CD       -11.9210   11.0250   20.0400 C.2   167  GLU167      0.3649
     19  OE1      -12.9570   10.7100   19.3880 O.co2 167  GLU167     -0.2457
     20  OE2      -10.9860   10.2070   20.2730 O.co2 167  GLU167     -0.2457
     21  N        -13.2150   14.3930   23.2670 N.am  168  GLU168     -0.1966
     22  CA       -12.3670   14.5200   24.4590 C.3   168  GLU168      0.1733
     23  C        -13.0800   14.6500   25.8060 C.2   168  GLU168      0.2616
     24  O        -12.5490   14.2280   26.8400 O.2   168  GLU168     -0.2715
     25  CB       -11.3940   15.7090   24.2980 C.3   168  GLU168      0.0429
     26  CG       -10.3140   15.5550   23.2240 C.3   168  GLU168      0.1163
     27  CD        -9.6090   14.2110   23.2690 C.2   168  GLU168      0.3649
     28  OE1       -9.5930   13.5830   24.3640 O.co2 168  GLU168     -0.2457
     29  OE2       -9.0780   13.7870   22.2070 O.co2 168  GLU168     -0.2457
     30  N        -14.2670   15.2450   25.7900 N.am  169  VAL169     -0.1963
     31  CA       -14.9550   15.5970   27.0200 C.3   169  VAL169      0.1727
     32  C        -16.1210   14.6470   27.2800 C.2   169  VAL169      0.2616
     33  O        -16.0620   13.8610   28.2170 O.2   169  VAL169     -0.2715
     34  CB       -15.3570   17.1090   27.0240 C.3   169  VAL169      0.0290
     35  CG1      -16.3020   17.4480   28.1620 C.3   169  VAL169      0.0023
     36  CG2      -14.1110   17.9880   27.1140 C.3   169  VAL169      0.0023
     37  N        -17.1390   14.6950   26.4180 N.am  170  PHE170     -0.1960
     38  CA       -18.4540   14.0940   26.6660 C.3   170  PHE170      0.1771
     39  C        -18.6740   12.7370   26.0330 C.2   170  PHE170      0.2620
     40  O        -19.5110   11.9860   26.5050 O.2   170  PHE170     -0.2715
     41  CB       -19.5350   15.0170   26.1270 C.3   170  PHE170      0.0574
     42  CG       -19.8010   16.1980   26.9940 C.ar  170  PHE170     -0.0200
     43  CD1      -20.3830   16.0380   28.2510 C.ar  170  PHE170     -0.0042
     44  CD2      -19.4850   17.4780   26.5600 C.ar  170  PHE170     -0.0042
     45  CE1      -20.6400   17.1340   29.0590 C.ar  170  PHE170     -0.0003
     46  CE2      -19.7310   18.5810   27.3670 C.ar  170  PHE170     -0.0003
     47  CZ       -20.3130   18.4070   28.6140 C.ar  170  PHE170     -0.0000
     48  N        -17.9630   12.4610   24.9370 N.am  171  SER171     -0.1950
     49  CA       -18.0350   11.2020   24.1950 C.3   171  SER171      0.1924
     50  C        -19.3950   11.0000   23.5820 C.2   171  SER171      0.2314
     51  O        -19.8790    9.8660   23.4680 O.2   171  SER171     -0.2863
     52  CB       -17.7250   10.0250   25.0860 C.3   171  SER171      0.2116
     53  OG       -16.4360   10.1450   25.6010 O.3   171  SER171     -0.2180
     54  N        -10.0180   10.7410   35.6600 N.3   318  ARG318     -0.1231
     55  CA        -9.3070    9.7280   34.8770 C.3   318  ARG318      0.1694
     56  C         -8.9810   10.3110   33.5000 C.2   318  ARG318      0.2592
     57  O         -7.8200   10.3070   33.0610 O.2   318  ARG318     -0.2718
     58  CB       -10.1490    8.4550   34.7540 C.3   318  ARG318      0.0321
     59  CG       -10.2960    7.6880   36.0610 C.3   318  ARG318      0.0489
     60  CD       -10.2040    6.1820   35.8400 C.3   318  ARG318      0.2205
     61  NE        -9.8800    5.4210   37.0510 N.pl3 318  ARG318     -0.0865
     62  CZ       -10.7900    4.8190   37.8320 C.cat 318  ARG318      0.5346
     63  NH1      -12.0830    4.8800   37.5400 N.pl3 318  ARG318      0.1354
     64  NH2      -10.4230    4.1430   38.9160 N.pl3 318  ARG318      0.1354
     65  N        -10.0300   10.8000   32.8380 N.am  319  PHE319     -0.1962
     66  CA        -9.9260   11.6400   31.6510 C.3   319  PHE319      0.1771
     67  C        -10.6570   12.9750   31.8890 C.2   319  PHE319      0.2619
     68  O        -10.1800   14.0540   31.5140 O.2   319  PHE319     -0.2715
     69  CB       -10.5180   10.9280   30.4470 C.3   319  PHE319      0.0574
     70  CG        -9.7630    9.7040   30.0350 C.ar  319  PHE319     -0.0200
     71  CD1       -8.7070    9.7900   29.1210 C.ar  319  PHE319     -0.0042
     72  CD2      -10.1080    8.4580   30.5450 C.ar  319  PHE319     -0.0042
     73  CE1       -7.9960    8.6540   28.7370 C.ar  319  PHE319     -0.0003
     74  CE2       -9.4000    7.3170   30.1710 C.ar  319  PHE319     -0.0003
     75  CZ        -8.3440    7.4120   29.2610 C.ar  319  PHE319     -0.0000
     76  N        -11.8220   12.8930   32.5190 N.am  320  ARG320     -0.1964
     77  CA       -12.4650   14.0560   33.0860 C.3   320  ARG320      0.1714
     78  C        -12.8590   13.7200   34.5320 C.2   320  ARG320      0.2458
     79  O        -12.7640   12.5660   34.9520 O.2   320  ARG320     -0.2730
     80  CB       -13.6720   14.4600   32.2400 C.3   320  ARG320      0.0347
     81  CG       -14.8670   13.5440   32.4090 C.3   320  ARG320      0.0492
     82  CD       -15.8610   13.6950   31.2830 C.3   320  ARG320      0.2205
     83  NE       -17.0190   14.4280   31.7200 N.pl3 320  ARG320     -0.0865
     84  CZ       -18.3040   14.0970   31.6100 C.cat 320  ARG320      0.5346
     85  NH1      -19.1760   14.9540   32.1000 N.pl3 320  ARG320      0.1354
     86  NH2      -18.7450   12.9890   31.0260 N.pl3 320  ARG320      0.1354
     87  N        -13.2780   14.7310   35.3090 N.am  321  PRO321     -0.2716
     88  CA       -13.7920   14.4720   36.6420 C.3   321  PRO321      0.1536
     89  C        -15.0370   13.6150   36.5370 C.2   321  PRO321      0.2599
     90  O        -15.7570   13.7190   35.5410 O.2   321  PRO321     -0.2715
     91  CB       -14.1760   15.8600   37.1320 C.3   321  PRO321      0.0310
     92  CG       -13.3230   16.7940   36.3410 C.3   321  PRO321      0.0237
     93  CD       -13.2720   16.1710   34.9970 C.3   321  PRO321      0.0939
     94  N        -15.2770   12.7810   37.5500 N.am  322  SER322     -0.1936
     95  CA       -16.3980   11.8260   37.5450 C.3   322  SER322      0.2055
     96  C        -17.7490   12.5140   37.7450 C.2   322  SER322      0.2642
     97  O        -17.8020   13.6470   38.2120 O.2   322  SER322     -0.2714
     98  CB       -16.1970   10.7370   38.6040 C.3   322  SER322      0.2130
     99  OG       -16.2760   11.2800   39.9110 O.3   322  SER322     -0.2179
    100  N        -18.8250   11.8360   37.3610 N.am  323  GLU323     -0.1976
    101  CA       -20.1710   12.3660   37.5450 C.3   323  GLU323      0.1602
    102  C        -20.6250   12.1740   39.0030 C.2   323  GLU323      0.2287
    103  O        -20.1380   11.2770   39.6900 O.2   323  GLU323     -0.2864
    104  CB       -21.1610   11.7200   36.5580 C.3   323  GLU323      0.0415
    105  CG       -21.6420   10.3090   36.9060 C.3   323  GLU323      0.1163
    106  CD       -20.5750    9.2470   36.7140 C.2   323  GLU323      0.3649
    107  OE1      -19.7840    9.0110   37.6430 O.co2 323  GLU323     -0.2457
    108  OE2      -20.5240    8.6390   35.6280 O.co2 323  GLU323     -0.2457
    109  N         -0.4320   -0.1290   23.7630 N.3   509  TYR509     -0.1241
    110  CA        -1.1790    1.1580   23.7940 C.3   509  TYR509      0.1605
    111  C         -0.4880    2.2120   24.6740 C.2   509  TYR509      0.2264
    112  O         -0.0920    3.2680   24.1700 O.2   509  TYR509     -0.2867
    113  CB        -2.6810    1.0260   24.1310 C.3   509  TYR509      0.0534
    114  CG        -3.4490    2.2900   23.8570 C.ar  509  TYR509     -0.0201
    115  CD1       -3.6580    2.7310   22.5510 C.ar  509  TYR509     -0.0009
    116  CD2       -3.9370    3.0810   24.9060 C.ar  509  TYR509     -0.0009
    117  CE1       -4.3460    3.9180   22.2970 C.ar  509  TYR509      0.0417
    118  CE2       -4.6480    4.2590   24.6680 C.ar  509  TYR509      0.0417
    119  CZ        -4.8490    4.6690   23.3640 C.ar  509  TYR509      0.1957
    120  OH        -5.5550    5.8240   23.1200 O.3   509  TYR509     -0.2866
    121  N         -2.7770    4.4560   17.1530 N.3   592  SER592     -0.1202
    122  CA        -3.1410    5.7020   17.8720 C.3   592  SER592      0.2020
    123  C         -2.0290    6.0390   18.8830 C.2   592  SER592      0.2618
    124  O         -0.8500    5.9500   18.5360 O.2   592  SER592     -0.2717
    125  CB        -4.4970    5.4990   18.5540 C.3   592  SER592      0.2103
    126  OG        -5.1080    6.7120   18.9190 O.3   592  SER592     -0.2182
    127  N         -2.3630    6.3570   20.1340 N.am  593  TYR593     -0.1975
    128  CA        -1.2920    6.5260   21.1420 C.3   593  TYR593      0.1639
    129  C         -0.1860    5.4600   21.0520 C.2   593  TYR593      0.2290
    130  O          1.0010    5.7580   21.2010 O.2   593  TYR593     -0.2864
    131  CB        -1.8120    6.5710   22.5880 C.3   593  TYR593      0.0560
    132  CG        -0.8080    7.1950   23.5600 C.ar  593  TYR593     -0.0198
    133  CD1        0.2910    6.4810   24.0420 C.ar  593  TYR593     -0.0009
    134  CD2       -0.9490    8.5190   23.9750 C.ar  593  TYR593     -0.0009
    135  CE1        1.2010    7.0710   24.9120 C.ar  593  TYR593      0.0417
    136  CE2       -0.0600    9.1050   24.8570 C.ar  593  TYR593      0.0417
    137  CZ         1.0110    8.3930   25.3190 C.ar  593  TYR593      0.1957
    138  OH         1.8830    9.0380   26.1800 O.3   593  TYR593     -0.2866
    139  N          0.6010    9.3400   16.6890 N.3   618  VAL618     -0.1245
    140  CA         1.0100   10.6800   17.0790 C.3   618  VAL618      0.1561
    141  C          2.5190   10.7570   16.8860 C.2   618  VAL618      0.2260
    142  O          3.2380    9.8210   17.2220 O.2   618  VAL618     -0.2867
    143  CB         0.6250   10.9490   18.5500 C.3   618  VAL618      0.0252
    144  CG1        1.4790   12.0410   19.1600 C.3   618  VAL618      0.0019
    145  CG2       -0.8480   11.3210   18.6420 C.3   618  VAL618      0.0019
    146  N          3.3390   16.2130   19.7870 N.3   621  TRP621     -0.1241
    147  CA         2.1700   16.5870   20.5640 C.3   621  TRP621      0.1605
    148  C          1.5510   17.9000   20.1760 C.2   621  TRP621      0.2264
    149  O          0.3810   18.1680   20.4480 O.2   621  TRP621     -0.2867
    150  CB         2.5090   16.5230   22.0410 C.3   621  TRP621      0.0550
    151  CG         2.5510   15.0900   22.4330 C.ar  621  TRP621      0.0003
    152  CD1        3.6660   14.3160   22.7800 C.ar  621  TRP621      0.0946
    153  CD2        1.4200   14.1590   22.4220 C.ar  621  TRP621      0.0152
    154  NE1        3.2980   13.0120   23.0120 N.ar  621  TRP621     -0.2442
    155  CE2        1.9700   12.8490   22.8140 C.ar  621  TRP621      0.0810
    156  CE3        0.0490   14.2750   22.1420 C.ar  621  TRP621      0.0012
    157  CZ2        1.1700   11.7350   22.9240 C.ar  621  TRP621      0.0191
    158  CZ3       -0.7510   13.1370   22.2640 C.ar  621  TRP621      0.0001
    159  CH2       -0.2060   11.9000   22.6430 C.ar  621  TRP621      0.0015
    160  N         -1.5690   17.3010   18.0310 N.3   624  TYR624     -0.1241
    161  CA        -2.7840   16.7070   18.5650 C.3   624  TYR624      0.1605
    162  C         -3.7130   17.7850   19.1400 C.2   624  TYR624      0.2264
    163  O         -3.3870   18.9600   19.1060 O.2   624  TYR624     -0.2867
    164  CB        -2.5000   15.5600   19.5490 C.3   624  TYR624      0.0534
    165  CG        -3.6790   14.6130   19.6390 C.ar  624  TYR624     -0.0201
    166  CD1       -4.2880   14.1460   18.4850 C.ar  624  TYR624     -0.0009
    167  CD2       -4.2220   14.2280   20.8680 C.ar  624  TYR624     -0.0009
    168  CE1       -5.3870   13.3010   18.5360 C.ar  624  TYR624      0.0417
    169  CE2       -5.3250   13.3780   20.9330 C.ar  624  TYR624      0.0417
    170  CZ        -5.9080   12.9070   19.7590 C.ar  624  TYR624      0.1957
    171  OH        -7.0130   12.0490   19.7990 O.3   624  TYR624     -0.2866
    172  N         -7.0410   16.9150   24.8930 N.3   628  TYR628     -0.1241
    173  CA        -6.2450   15.7690   25.2770 C.3   628  TYR628      0.1605
    174  C         -4.8360   16.1900   25.6670 C.2   628  TYR628      0.2264
    175  O         -4.4590   16.0560   26.8440 O.2   628  TYR628     -0.2867
    176  CB        -6.1830   14.7610   24.1490 C.3   628  TYR628      0.0534
    177  CG        -5.5470   13.4520   24.5400 C.ar  628  TYR628     -0.0201
    178  CD1       -4.1840   13.2000   24.2890 C.ar  628  TYR628     -0.0009
    179  CD2       -6.3070   12.4530   25.1480 C.ar  628  TYR628     -0.0009
    180  CE1       -3.6090   11.9850   24.6350 C.ar  628  TYR628      0.0417
    181  CE2       -5.7440   11.2380   25.4960 C.ar  628  TYR628      0.0417
    182  CZ        -4.4050   11.0180   25.2400 C.ar  628  TYR628      0.1957
    183  OH        -3.8930    9.8180   25.5970 O.3   628  TYR628     -0.2866
    184  N         -3.7770   18.1000   28.7200 N.3   631  ARG631     -0.1245
    185  CA        -4.2310   17.5130   29.9710 C.3   631  ARG631      0.1563
    186  C         -3.0010   16.9720   30.6470 C.2   631  ARG631      0.2260
    187  O         -2.8900   17.0010   31.8480 O.2   631  ARG631     -0.2867
    188  CB        -5.2480   16.4000   29.7170 C.3   631  ARG631      0.0307
    189  CG        -6.3270   16.2790   30.7760 C.3   631  ARG631      0.0489
    190  CD        -6.8910   14.8480   30.9000 C.3   631  ARG631      0.2205
    191  NE        -7.5030   14.2320   29.7030 N.pl3 631  ARG631     -0.0865
    192  CZ        -8.5840   14.6940   29.0670 C.cat 631  ARG631      0.5346
    193  NH1       -9.1980   15.8170   29.4680 N.pl3 631  ARG631      0.1354
    194  NH2       -9.0600   14.0250   28.0160 N.pl3 631  ARG631      0.1354
    195  N         -8.6670   12.7640   13.1660 N.3   672  ASN672     -0.1225
    196  CA        -8.2700   12.7170   14.5900 C.3   672  ASN672      0.1785
    197  C         -6.7740   12.8570   14.7830 C.2   672  ASN672      0.2597
    198  O         -6.2900   13.8810   15.2740 O.2   672  ASN672     -0.2718
    199  CB        -8.7310   11.4090   15.1940 C.3   672  ASN672      0.1169
    200  CG        -8.6150   11.3860   16.6740 C.2   672  ASN672      0.2627
    201  OD1       -7.7230   12.0090   17.2340 O.2   672  ASN672     -0.2716
    202  ND2       -9.5020   10.6290   17.3350 N.am  672  ASN672     -0.0877
    203  N         -6.0360   11.8140   14.4240 N.am  673  VAL673     -0.1980
    204  CA        -4.6010   11.9470   14.3070 C.3   673  VAL673      0.1595
    205  C         -4.3970   12.1890   12.8300 C.2   673  VAL673      0.2287
    206  O         -4.4430   11.2640   12.0190 O.2   673  VAL673     -0.2864
    207  CB        -3.8410   10.7140   14.8270 C.3   673  VAL673      0.0276
    208  CG1       -2.3220   10.8700   14.6150 C.3   673  VAL673      0.0022
    209  CG2       -4.1810   10.4860   16.3030 C.3   673  VAL673      0.0022
    210  N         -9.3890    7.1930   11.6460 N.3   702  HIS702     -0.1241
    211  CA        -8.4930    6.7640   12.6810 C.3   702  HIS702      0.1621
    212  C         -8.7560    5.3170   12.9630 C.2   702  HIS702      0.2264
    213  O         -7.9290    4.6150   13.5800 O.2   702  HIS702     -0.2867
    214  CB        -8.6510    7.6310   13.9270 C.3   702  HIS702      0.0745
    215  CG        -7.5280    7.4740   14.8780 C.ar  702  HIS702      0.0817
    216  ND1       -6.2310    7.5950   14.4940 N.ar  702  HIS702     -0.2268
    217  CD2       -7.5120    7.1460   16.2220 C.ar  702  HIS702      0.1154
    218  CE1       -5.4270    7.3620   15.5550 C.ar  702  HIS702      0.1986
    219  NE2       -6.2080    7.0880   16.6140 N.ar  702  HIS702     -0.2212
@<TRIPOS>BOND
     1   210   211    1
     2   206   205    2
     3   211   212    1
     4   211   214    1
     5   205   204    1
     6   212   213    2
     7   195   196    1
     8   214   215    1
     9   204   203    1
    10   204   207    1
    11   203   197   am
    12   216   215   ar
    13   216   218   ar
    14   196   197    1
    15   196   199    1
    16   208   207    1
    17   197   198    2
    18   207   209    1
    19   215   217   ar
    20   199   200    1
    21   218   219   ar
    22     1     2    1
    23   217   219   ar
    24     2     3    1
    25     2     5    1
    26   200   201    2
    27   200   202   am
    28   139   140    1
    29     4     3    2
    30   141   140    1
    31   141   142    2
    32   140   143    1
    33   121   122    1
    34     5     6    1
    35   122   125    1
    36   122   123    1
    37   160   161    1
    38     6     7    1
    39   166   168   ar
    40   166   165   ar
    41   168   170   ar
    42   124   123    2
    43   143   145    1
    44   143   144    1
    45   125   126    1
    46   161   162    1
    47   161   164    1
    48   123   127   am
    49    10     9    1
    50   163   162    2
    51    19    18   ar
    52     9    11    1
    53     9     8    2
    54   164   165    1
    55     7     8    1
    56   165   167   ar
    57   170   171    1
    58   170   169   ar
    59   146   147    1
    60    18    20   ar
    61    18    17    1
    62   127   128    1
    63   148   149    2
    64   148   147    1
    65    16    17    1
    66    16    13    1
    67   147   150    1
    68   167   169   ar
    69   129   128    1
    70   129   130    2
    71   128   131    1
    72    12    13    1
    73    13    14    1
    74   150   151    1
    75   156   158   ar
    76   156   153   ar
    77    29    27   ar
    78   158   159   ar
    79   117   115   ar
    80   117   119   ar
    81   153   151   ar
    82   153   155   ar
    83   151   152   ar
    84   115   114   ar
    85   131   132    1
    86   159   157   ar
    87    14    21   am
    88    14    15    2
    89   152   154   ar
    90   155   157   ar
    91   155   154   ar
    92   120   119    1
    93    26    27    1
    94    26    25    1
    95    21    22    1
    96    27    28   ar
    97   119   118   ar
    98    51    50    2
    99   132   134   ar
   100   132   133   ar
   101    50    49    1
   102   109   110    1
   103   110   113    1
   104   110   111    1
   105   114   113    1
   106   114   116   ar
   107   134   136   ar
   108   133   135   ar
   109   176   177    1
   110   176   173    1
   111   112   111    2
   112    49    48    1
   113    49    52    1
   114   178   177   ar
   115   178   180   ar
   116    25    22    1
   117    22    23    1
   118   177   179   ar
   119   180   182   ar
   120   118   116   ar
   121   136   137   ar
   122   172   173    1
   123   135   137   ar
   124    48    39   am
   125    52    53    1
   126   179   181   ar
   127   182   181   ar
   128   182   183    1
   129   173   174    1
   130   137   138    1
   131   174   175    2
   132    30    23   am
   133    30    31    1
   134    23    24    2
   135    39    40    2
   136    39    38    1
   137    41    38    1
   138    41    42    1
   139    37    38    1
   140    37    32   am
   141    44    42   ar
   142    44    46   ar
   143    42    43   ar
   144    31    34    1
   145    31    32    1
   146    34    36    1
   147    34    35    1
   148    32    33    2
   149    46    47   ar
   150   194   192    1
   151    43    45   ar
   152    47    45   ar
   153   184   185    1
   154    73    71   ar
   155    73    75   ar
   156   192   193    1
   157   192   191    2
   158    71    70   ar
   159    75    74   ar
   160   191   190    1
   161   188   185    1
   162   188   189    1
   163   185   186    1
   164    70    69    1
   165    70    72   ar
   166    74    72   ar
   167    69    66    1
   168   186   187    2
   169   189   190    1
   170    86    84    1
   171    82    83    1
   172    82    81    1
   173    68    67    2
   174    84    83    2
   175    84    85    1
   176    66    67    1
   177    66    65    1
   178    67    76   am
   179    80    81    1
   180    80    77    1
   181    76    77    1
   182    65    56   am
   183    57    56    2
   184    77    78    1
   185    56    55    1
   186    78    79    2
   187    78    87   am
   188    58    55    1
   189    58    59    1
   190    55    54    1
   191    93    87    1
   192    93    92    1
   193    87    88    1
   194    90    89    2
   195   108   106   ar
   196    60    59    1
   197    60    61    1
   198    92    91    1
   199    89    88    1
   200    89    94   am
   201   104   105    1
   202   104   101    1
   203    88    91    1
   204   106   105    1
   205   106   107   ar
   206    61    62    2
   207   100   101    1
   208   100    96   am
   209    63    62    1
   210   101   102    1
   211    95    94    1
   212    95    96    1
   213    95    98    1
   214    96    97    2
   215    62    64    1
   216    98    99    1
   217   102   103    2
