@<TRIPOS>MOLECULE
tmp/4dtfA00.pdb
 213 199 0 0 0
SMALL
GASTEIGER

@<TRIPOS>ATOM
      1  N         38.2700   83.9000   15.0340 N.3     5  PHE5       -0.1228
      2  CA        37.4960   84.9400   15.6940 C.3     5  PHE5        0.1721
      3  C         36.8900   84.3700   16.9740 C.2     5  PHE5        0.2437
      4  O         36.4180   83.2290   16.9470 O.2     5  PHE5       -0.2733
      5  CB        36.3160   85.4030   14.8040 C.3     5  PHE5        0.0547
      6  CG        36.6290   86.0970   13.4990 C.ar    5  PHE5       -0.0202
      7  CD1       37.5700   87.1180   13.4400 C.ar    5  PHE5       -0.0042
      8  CD2       35.9310   85.7770   12.3400 C.ar    5  PHE5       -0.0042
      9  CE1       37.8200   87.7920   12.2420 C.ar    5  PHE5       -0.0003
     10  CE2       36.1860   86.4480   11.1420 C.ar    5  PHE5       -0.0003
     11  CZ        37.1300   87.4490   11.1000 C.ar    5  PHE5       -0.0000
     12  N         36.8060   85.1600   18.0720 N.am    6  PRO6       -0.2718
     13  CA        36.0200   84.6920   19.2230 C.3     6  PRO6        0.1535
     14  C         34.5670   84.5920   18.7250 C.2     6  PRO6        0.2599
     15  O         34.1750   85.3390   17.8240 O.2     6  PRO6       -0.2715
     16  CB        36.1780   85.8090   20.2580 C.3     6  PRO6        0.0310
     17  CG        36.5950   87.0130   19.4950 C.3     6  PRO6        0.0237
     18  CD        37.2770   86.5520   18.2470 C.3     6  PRO6        0.0939
     19  N         33.8080   83.6210   19.2340 N.am    7  THR7       -0.1951
     20  CA        32.4300   83.3960   18.7990 C.3     7  THR7        0.1897
     21  C         31.3710   83.9630   19.7680 C.2     7  THR7        0.2313
     22  O         30.2510   84.2430   19.3400 O.2     7  THR7       -0.2863
     23  CB        32.2060   81.8950   18.5520 C.3     7  THR7        0.1794
     24  OG1       32.4510   81.1730   19.7590 O.3     7  THR7       -0.2208
     25  CG2       33.0550   81.3390   17.4120 C.3     7  THR7        0.0378
     26  N         29.8490   86.7550   22.6540 N.3     9  PHE9       -0.1241
     27  CA        29.8010   88.1270   23.1510 C.3     9  PHE9        0.1605
     28  C         28.6010   88.2980   24.0870 C.2     9  PHE9        0.2264
     29  O         27.5430   87.7340   23.8020 O.2     9  PHE9       -0.2867
     30  CB        29.7890   89.1610   22.0020 C.3     9  PHE9        0.0534
     31  CG        31.1180   89.1820   21.2790 C.ar    9  PHE9       -0.0203
     32  CD1       32.1900   89.9160   21.7780 C.ar    9  PHE9       -0.0042
     33  CD2       31.3190   88.4100   20.1400 C.ar    9  PHE9       -0.0042
     34  CE1       33.4330   89.8840   21.1460 C.ar    9  PHE9       -0.0003
     35  CE2       32.5650   88.3660   19.5210 C.ar    9  PHE9       -0.0003
     36  CZ        33.6090   89.1150   20.0180 C.ar    9  PHE9       -0.0000
     37  N         27.5730   92.4980   18.9180 N.3    13  SER13      -0.1202
     38  CA        28.9620   92.5980   18.5100 C.3    13  SER13       0.2020
     39  C         29.1390   93.2800   17.1590 C.2    13  SER13       0.2619
     40  O         28.1970   93.3800   16.3720 O.2    13  SER13      -0.2717
     41  CB        29.5890   91.2140   18.5070 C.3    13  SER13       0.2103
     42  OG        28.7750   90.3220   17.7640 O.3    13  SER13      -0.2182
     43  N         30.3650   93.7450   16.8940 N.am   14  ILE14      -0.1965
     44  CA        30.7110   94.4090   15.6500 C.3    14  ILE14       0.1727
     45  C         32.1290   94.0430   15.1860 C.2    14  ILE14       0.2617
     46  O         33.0660   93.9860   15.9850 O.2    14  ILE14      -0.2715
     47  CB        30.4730   95.9540   15.7140 C.3    14  ILE14       0.0290
     48  CG1       30.5960   96.6240   14.3100 C.3    14  ILE14       0.0022
     49  CG2       31.3730   96.6360   16.7660 C.3    14  ILE14       0.0023
     50  CD1       29.7990   97.8910   14.1190 C.3    14  ILE14       0.0001
     51  N         32.2360   93.7950   13.8900 N.am   15  GLY15      -0.1940
     52  CA        33.4740   93.5480   13.1800 C.3    15  GLY15       0.2014
     53  C         33.5300   94.4830   11.9900 C.2    15  GLY15       0.2639
     54  O         32.4920   94.9830   11.5280 O.2    15  GLY15      -0.2714
     55  N         34.7390   94.7640   11.5110 N.am   16  ILE16      -0.1963
     56  CA        34.9340   95.6600   10.3650 C.3    16  ILE16       0.1727
     57  C         35.8520   95.0350    9.3250 C.2    16  ILE16       0.2616
     58  O         36.6840   94.1930    9.6560 O.2    16  ILE16      -0.2715
     59  CB        35.4050   97.0920   10.7680 C.3    16  ILE16       0.0290
     60  CG1       36.8130   97.0830   11.4240 C.3    16  ILE16       0.0022
     61  CG2       34.3580   97.8360   11.6150 C.3    16  ILE16       0.0023
     62  CD1       37.4740   98.4740   11.6220 C.3    16  ILE16       0.0001
     63  N         35.7050   95.4640    8.0690 N.am   17  GLU17      -0.1977
     64  CA        36.5300   95.0120    6.9530 C.3    17  GLU17       0.1602
     65  C         37.0170   96.2520    6.2460 C.2    17  GLU17       0.2287
     66  O         36.2180   97.1540    6.0050 O.2    17  GLU17      -0.2864
     67  CB        35.6990   94.1560    5.9910 C.3    17  GLU17       0.0415
     68  CG        35.3560   92.7880    6.5480 C.3    17  GLU17       0.1163
     69  CD        34.2720   92.0670    5.7770 C.2    17  GLU17       0.3649
     70  OE1       33.1190   92.5600    5.7460 O.co2  17  GLU17      -0.2457
     71  OE2       34.5790   91.0070    5.1890 O.co2  17  GLU17      -0.2457
     72  N         43.8250   82.6820    2.8130 N.3    33  GLN33      -0.1231
     73  CA        43.5120   84.0830    2.8070 C.3    33  GLN33       0.1698
     74  C         44.3380   84.8800    3.8510 C.2    33  GLN33       0.2592
     75  O         44.7770   85.9310    3.5600 O.2    33  GLN33      -0.2718
     76  CB        42.0240   84.3640    3.0090 C.3    33  GLN33       0.0381
     77  CG        41.0030   83.7060    2.0940 C.3    33  GLN33       0.0905
     78  CD        41.3230   83.7750    0.6200 C.2    33  GLN33       0.2608
     79  OE1       41.5300   82.7550   -0.0210 O.2    33  GLN33      -0.2717
     80  NE2       41.3190   84.9520    0.0740 N.am   33  GLN33      -0.0878
     81  N         44.5240   84.3430    5.0450 N.am   34  LYS34      -0.1980
     82  CA        45.2490   85.0070    6.1270 C.3    34  LYS34       0.1596
     83  C         46.7380   84.7940    6.0500 C.2    34  LYS34       0.2287
     84  O         47.1870   83.6520    5.9450 O.2    34  LYS34      -0.2864
     85  CB        44.7380   84.5190    7.4870 C.3    34  LYS34       0.0298
     86  CG        43.4210   85.1470    7.9170 C.3    34  LYS34       0.0038
     87  CD        42.2320   84.2850    7.5840 C.3    34  LYS34       0.0206
     88  CE        41.7930   83.4450    8.7470 C.3    34  LYS34       0.1093
     89  NZ        40.3130   83.3280    8.7930 N.3    34  LYS34      -0.1314
     90  N         43.0880   90.8370   11.3050 N.3    48  MET48      -0.1245
     91  CA        43.8110   89.9230   10.4340 C.3    48  MET48       0.1570
     92  C         44.2840   90.6580    9.2010 C.2    48  MET48       0.2261
     93  O         43.6090   91.5740    8.7220 O.2    48  MET48      -0.2867
     94  CB        42.8850   88.7970    9.9600 C.3    48  MET48       0.0387
     95  CG        42.3990   87.8830   11.0630 C.3    48  MET48       0.0595
     96  SD        41.1790   86.7560   10.3710 S.3    48  MET48      -0.1393
     97  CE        40.8960   85.7010   11.7520 C.3    48  MET48       0.0692
     98  N         44.7350   90.0160    5.3680 N.3    50  THR50      -0.1218
     99  CA        44.2540   89.0610    4.3840 C.3    50  THR50       0.1862
    100  C         44.4240   89.5160    2.9630 C.2    50  THR50       0.2287
    101  O         44.4450   90.7180    2.6820 O.2    50  THR50      -0.2866
    102  CB        42.7470   88.7580    4.5920 C.3    50  THR50       0.1770
    103  OG1       41.9900   89.9080    4.2040 O.3    50  THR50      -0.2211
    104  CG2       42.3970   88.3330    6.0340 C.3    50  THR50       0.0375
    105  N         42.5800   89.8530   -0.5980 N.3    52  ASP52      -0.1239
    106  CA        41.1840   90.0920   -0.9220 C.3    52  ASP52       0.1674
    107  C         40.8820   89.8710   -2.4120 C.2    52  ASP52       0.2266
    108  O         40.5960   88.7460   -2.8020 O.2    52  ASP52      -0.2867
    109  CB        40.8150   91.5020   -0.4290 C.3    52  ASP52       0.1410
    110  CG        39.3640   91.9270   -0.5570 C.2    52  ASP52       0.3668
    111  OD1       38.5040   91.0690   -0.8330 O.co2  52  ASP52      -0.2456
    112  OD2       39.0980   93.1320   -0.3880 O.co2  52  ASP52      -0.2456
    113  N         43.1650   93.3090    2.6260 N.3    79  GLU79      -0.1245
    114  CA        42.0260   93.7040    3.4260 C.3    79  GLU79       0.1567
    115  C         42.3110   93.4260    4.8940 C.2    79  GLU79       0.2260
    116  O         42.7050   92.3140    5.2690 O.2    79  GLU79      -0.2867
    117  CB        40.7600   92.9950    2.9470 C.3    79  GLU79       0.0388
    118  CG        39.4830   93.4430    3.6580 C.3    79  GLU79       0.1160
    119  CD        38.2610   92.6400    3.2690 C.2    79  GLU79       0.3649
    120  OE1       38.3830   91.4000    3.1460 O.co2  79  GLU79      -0.2457
    121  OE2       37.1730   93.2390    3.1170 O.co2  79  GLU79      -0.2457
    122  N         40.8440   92.7980    8.4570 N.3    81  VAL81      -0.1231
    123  CA        39.5890   92.2370    8.9830 C.3    81  VAL81       0.1692
    124  C         39.6620   92.1720   10.4990 C.2    81  VAL81       0.2592
    125  O         40.4230   91.3700   11.0400 O.2    81  VAL81      -0.2718
    126  CB        39.2510   90.8590    8.3320 C.3    81  VAL81       0.0266
    127  CG1       37.9030   90.3380    8.8280 C.3    81  VAL81       0.0020
    128  CG2       39.2540   90.9540    6.7960 C.3    81  VAL81       0.0020
    129  N         38.9040   93.0350   11.1860 N.am   82  SER82      -0.1952
    130  CA        38.9770   93.0620   12.6400 C.3    82  SER82       0.1924
    131  C         38.4530   91.8010   13.3090 C.2    82  SER82       0.2314
    132  O         37.6030   91.1070   12.7490 O.2    82  SER82      -0.2863
    133  CB        38.2730   94.2940   13.2080 C.3    82  SER82       0.2116
    134  OG        36.8610   94.1410   13.2330 O.3    82  SER82      -0.2180
    135  N         36.0250   90.5900   16.0290 N.3    84  PRO84      -0.2116
    136  CA        34.8650   91.3020   16.5900 C.3    84  PRO84       0.1372
    137  C         35.0450   91.7120   18.0470 C.2    84  PRO84       0.2244
    138  O         35.8080   91.0870   18.7930 O.2    84  PRO84      -0.2868
    139  CB        33.7320   90.2790   16.4570 C.3    84  PRO84       0.0268
    140  CG        34.4290   88.9420   16.4220 C.3    84  PRO84       0.0207
    141  CD        35.6570   89.2180   15.6210 C.3    84  PRO84       0.0892
    142  N         31.0260   96.8940    7.6340 N.3   164  ALA164     -0.1231
    143  CA        30.8700   96.6170    9.0510 C.3   164  ALA164      0.1694
    144  C         29.9120   95.4260    9.1440 C.2   164  ALA164      0.2592
    145  O         28.9980   95.3210    8.3300 O.2   164  ALA164     -0.2718
    146  CB        30.2840   97.8250    9.7600 C.3   164  ALA164      0.0304
    147  N         30.1420   94.5160   10.1080 N.am  165  THR165     -0.1953
    148  CA        29.3000   93.3380   10.3580 C.3   165  THR165      0.1897
    149  C         28.8180   93.4140   11.7900 C.2   165  THR165      0.2313
    150  O         29.6270   93.5530   12.7000 O.2   165  THR165     -0.2863
    151  CB        30.0270   92.0230    9.9970 C.3   165  THR165      0.1794
    152  OG1       30.3230   92.0270    8.6010 O.3   165  THR165     -0.2208
    153  CG2       29.1960   90.7780   10.3070 C.3   165  THR165      0.0378
    154  N         26.5440   91.6000   14.8610 N.3   167  GLY167     -0.1225
    155  CA        25.9610   90.3720   15.3850 C.3   167  GLY167      0.1811
    156  C         25.0190   90.6920   16.5210 C.2   167  GLY167      0.2280
    157  O         25.3720   91.4850   17.3910 O.2   167  GLY167     -0.2866
    158  N         24.8120   90.7210   -3.5510 N.3   261  LYS261     -0.1245
    159  CA        25.1300   91.0250   -2.1510 C.3   261  LYS261      0.1561
    160  C         24.7760   92.5040   -1.8480 C.2   261  LYS261      0.2260
    161  O         24.1190   92.7920   -0.8420 O.2   261  LYS261     -0.2867
    162  CB        26.6250   90.7730   -1.9020 C.3   261  LYS261      0.0271
    163  CG        27.0090   89.3200   -1.6990 C.3   261  LYS261      0.0035
    164  CD        28.4870   89.2570   -1.3430 C.3   261  LYS261      0.0206
    165  CE        28.9470   87.8890   -0.9670 C.3   261  LYS261      0.1093
    166  NZ        30.3510   87.9200   -0.4760 N.3   261  LYS261     -0.1314
    167  N         24.4080   87.1910    7.1850 N.3   269  ARG269     -0.1245
    168  CA        25.6620   86.4440    7.1460 C.3   269  ARG269      0.1563
    169  C         25.5570   85.1050    7.8440 C.2   269  ARG269      0.2260
    170  O         26.5350   84.3640    7.8630 O.2   269  ARG269     -0.2867
    171  CB        26.8040   87.2920    7.7460 C.3   269  ARG269      0.0307
    172  CG        27.1920   88.5010    6.8730 C.3   269  ARG269      0.0489
    173  CD        27.9910   88.1540    5.6190 C.3   269  ARG269      0.2205
    174  NE        29.2450   87.4630    5.9370 N.pl3 269  ARG269     -0.0865
    175  CZ        29.4730   86.1790    5.6800 C.cat 269  ARG269      0.5346
    176  NH1       28.5460   85.4380    5.0820 N.pl3 269  ARG269      0.1354
    177  NH2       30.6360   85.6300    5.9980 N.pl3 269  ARG269      0.1354
    178  N         29.4630   80.8650    2.4200 N.3   320  HIS320     -0.1241
    179  CA        29.7900   80.4760    3.7920 C.3   320  HIS320      0.1621
    180  C         29.3760   81.5020    4.8550 C.2   320  HIS320      0.2264
    181  O         29.8480   82.6360    4.8540 O.2   320  HIS320     -0.2867
    182  CB        31.2650   80.0440    3.9390 C.3   320  HIS320      0.0745
    183  CG        31.5930   79.5350    5.3150 C.ar  320  HIS320      0.0817
    184  ND1       30.9480   78.4220    5.8510 N.ar  320  HIS320     -0.2268
    185  CD2       32.4540   80.0270    6.2370 C.ar  320  HIS320      0.1154
    186  CE1       31.4430   78.2730    7.0700 C.ar  320  HIS320      0.1986
    187  NE2       32.3640   79.2050    7.3440 N.ar  320  HIS320     -0.2212
    188  N         28.5560   82.8480    8.9740 N.3   322  ILE322     -0.1245
    189  CA        29.1100   82.8810   10.3330 C.3   322  ILE322      0.1561
    190  C         27.9690   82.2510   11.1680 C.2   322  ILE322      0.2260
    191  O         26.9880   82.9260   11.5140 O.2   322  ILE322     -0.2867
    192  CB        29.5240   84.3000   10.8000 C.3   322  ILE322      0.0252
    193  CG1       30.6250   84.8690    9.8770 C.3   322  ILE322      0.0019
    194  CG2       30.0210   84.2530   12.2650 C.3   322  ILE322      0.0019
    195  CD1       30.7000   86.4040    9.8000 C.3   322  ILE322      0.0001
    196  N         28.3830   81.8150   15.9280 N.3   325  ALA325     -0.1245
    197  CA        28.4450   82.9800   16.8070 C.3   325  ALA325      0.1562
    198  C         27.3140   82.8860   17.8180 C.2   325  ALA325      0.2260
    199  O         26.2040   82.4460   17.4810 O.2   325  ALA325     -0.2867
    200  CB        28.3370   84.2640   16.0090 C.3   325  ALA325      0.0290
    201  N         23.4410   83.8790   17.8220 N.3   336  ALA336     -0.1245
    202  CA        23.6740   85.2180   17.2980 C.3   336  ALA336      0.1562
    203  C         23.5650   85.0820   15.7820 C.2   336  ALA336      0.2260
    204  O         23.9900   84.0740   15.2090 O.2   336  ALA336     -0.2867
    205  CB        25.0630   85.7360   17.6810 C.3   336  ALA336      0.0290
    206  N         24.2570   87.3510   12.1650 N.3   338  LEU338     -0.1245
    207  CA        25.1060   88.4390   11.6890 C.3   338  LEU338      0.1561
    208  C         24.6590   89.0810   10.4080 C.2   338  LEU338      0.2260
    209  O         24.0270   88.4420    9.5660 O.2   338  LEU338     -0.2867
    210  CB        26.5670   87.9490   11.5890 C.3   338  LEU338      0.0270
    211  CG        27.3520   87.9830   12.9130 C.3   338  LEU338      0.0019
    212  CD1       26.8370   86.9360   13.9180 C.3   338  LEU338      0.0001
    213  CD2       28.7910   87.7430   12.6670 C.3   338  LEU338      0.0001
@<TRIPOS>BOND
     1   158   159    1
     2   108   107    2
     3   107   106    1
     4   159   162    1
     5   159   160    1
     6   162   163    1
     7   160   161    2
     8   163   164    1
     9   164   165    1
    10   165   166    1
    11   106   105    1
    12   106   109    1
    13   111   110   ar
    14   110   109    1
    15   110   112   ar
    16    79    78    2
    17    80    78   am
    18    78    77    1
    19    77    76    1
    20   178   179    1
    21   113   114    1
    22   101   100    2
    23    73    72    1
    24    73    76    1
    25    73    74    1
    26   117   114    1
    27   117   118    1
    28   100    99    1
    29   121   119   ar
    30   120   119   ar
    31   119   118    1
    32   114   115    1
    33    75    74    2
    34   179   182    1
    35   179   180    1
    36    74    81   am
    37   182   183    1
    38   103   102    1
    39    99   102    1
    40    99    98    1
    41   102   104    1
    42   181   180    2
    43   115   116    2
    44    81    82    1
    45   176   175    1
    46    71    69   ar
    47   183   184   ar
    48   183   185   ar
    49   173   174    1
    50   173   172    1
    51   175   174    2
    52   175   177    1
    53    70    69   ar
    54    69    68    1
    55   184   186   ar
    56    84    83    2
    57    67    68    1
    58    67    64    1
    59    66    65    2
    60    83    82    1
    61    82    85    1
    62   185   187   ar
    63    65    64    1
    64   128   126    1
    65   172   171    1
    66    64    63    1
    67   186   187   ar
    68   168   167    1
    69   168   171    1
    70   168   169    1
    71    85    86    1
    72    87    86    1
    73    87    88    1
    74   142   143    1
    75   169   170    2
    76    63    57   am
    77   145   144    2
    78   126   127    1
    79   126   123    1
    80   122   123    1
    81   152   151    1
    82    93    92    2
    83    88    89    1
    84   188   189    1
    85   123   124    1
    86   143   144    1
    87   143   146    1
    88   144   147   am
    89    92    91    1
    90    57    58    2
    91    57    56    1
    92   209   208    2
    93   195   193    1
    94   193   192    1
    95    94    91    1
    96    94    95    1
    97   151   153    1
    98   151   148    1
    99   147   148    1
   100   189   192    1
   101   189   190    1
   102   148   149    1
   103    56    59    1
   104    56    55    1
   105    96    95    1
   106    96    97    1
   107   208   207    1
   108    91    90    1
   109   124   125    2
   110   124   129   am
   111    59    60    1
   112    59    61    1
   113   192   194    1
   114    11    10   ar
   115    11     9   ar
   116    10     8   ar
   117   190   191    2
   118   129   130    1
   119    60    62    1
   120    55    53   am
   121    54    53    2
   122   210   207    1
   123   210   211    1
   124   207   206    1
   125   149   150    2
   126    53    52    1
   127     9     7   ar
   128     8     6   ar
   129   130   133    1
   130   130   131    1
   131   213   211    1
   132   132   131    2
   133   211   212    1
   134    52    51    1
   135   133   134    1
   136     7     6   ar
   137     6     5    1
   138    51    45   am
   139    50    48    1
   140    48    47    1
   141     5     2    1
   142   154   155    1
   143     1     2    1
   144    45    44    1
   145    45    46    2
   146   204   203    2
   147   155   156    1
   148   141   135    1
   149   141   140    1
   150    44    47    1
   151    44    43    1
   152     2     3    1
   153    47    49    1
   154   203   202    1
   155   196   197    1
   156   200   197    1
   157   135   136    1
   158    40    39    2
   159   140   139    1
   160   139   136    1
   161   156   157    2
   162   136   137    1
   163   197   198    1
   164    43    39   am
   165     4     3    2
   166     3    12   am
   167    39    38    1
   168   202   205    1
   169   202   201    1
   170    25    23    1
   171   199   198    2
   172    42    41    1
   173    15    14    2
   174   137   138    2
   175    12    18    1
   176    12    13    1
   177    18    17    1
   178    41    38    1
   179    38    37    1
   180    23    20    1
   181    23    24    1
   182    14    13    1
   183    14    19   am
   184    20    19    1
   185    20    21    1
   186    13    16    1
   187    22    21    2
   188    17    16    1
   189    35    36   ar
   190    35    33   ar
   191    36    34   ar
   192    33    31   ar
   193    34    32   ar
   194    31    32   ar
   195    31    30    1
   196    30    27    1
   197    26    27    1
   198    27    28    1
   199    29    28    2
