@<TRIPOS>MOLECULE
tmp/4dtgB01.pdb
 79 76 0 0 0
SMALL
GASTEIGER

@<TRIPOS>ATOM
      1  N         17.9720   38.0670   21.5250 N.3    39  GLN39      -0.1231
      2  CA        18.8310   38.5290   22.5590 C.3    39  GLN39       0.1698
      3  C         19.1620   37.3220   23.4360 C.2    39  GLN39       0.2593
      4  O         18.2680   36.7700   24.0250 O.2    39  GLN39      -0.2718
      5  CB        18.2110   39.7150   23.3130 C.3    39  GLN39       0.0381
      6  CG        19.2210   40.3780   24.1810 C.3    39  GLN39       0.0905
      7  CD        18.6960   41.6870   24.7740 C.2    39  GLN39       0.2608
      8  OE1       17.5000   41.8380   25.0350 O.2    39  GLN39      -0.2717
      9  NE2       19.6270   42.5500   25.1370 N.am   39  GLN39      -0.0878
     10  N         20.4370   36.9680   23.3580 N.am   40  THR40      -0.1940
     11  CA        20.9790   35.8850   24.2230 C.3    40  THR40       0.2013
     12  C         21.0210   36.2130   25.6730 C.2    40  THR40       0.2484
     13  O         20.9580   37.3330   26.1320 O.2    40  THR40      -0.2729
     14  CB        22.4050   35.4530   23.7490 C.3    40  THR40       0.1807
     15  OG1       23.3600   36.4490   24.0870 O.3    40  THR40      -0.2208
     16  CG2       22.4740   35.0350   22.2770 C.3    40  THR40       0.0379
     17  N         21.1460   35.1810   26.5340 N.am   41  PRO41      -0.2726
     18  CA        21.3110   35.4160   27.9250 C.3    41  PRO41       0.1402
     19  C         22.5340   36.2770   28.2830 C.2    41  PRO41       0.2269
     20  O         22.5480   36.8010   29.3440 O.2    41  PRO41      -0.2865
     21  CB        21.4570   33.9370   28.5170 C.3    41  PRO41       0.0296
     22  CG        20.8840   33.0910   27.3900 C.3    41  PRO41       0.0237
     23  CD        21.2840   33.7450   26.1650 C.3    41  PRO41       0.0939
     24  N         23.1280   38.7550   26.7200 N.3    43  LYS43      -0.1301
     25  CA        22.5340   40.0550   26.3360 C.3    43  LYS43       0.1247
     26  C         23.1110   40.5340   25.0070 C.3    43  LYS43       0.2009
     27  O         22.9200   41.7590   24.6200 O.3    43  LYS43      -0.2188
     28  CB        22.7000   41.1510   27.4510 C.3    43  LYS43       0.0218
     29  CG        22.2910   40.8530   28.8750 C.3    43  LYS43       0.0031
     30  CD        20.8500   40.3660   29.1140 C.3    43  LYS43       0.0205
     31  CE        20.6260   39.8640   30.5470 C.3    43  LYS43       0.1093
     32  NZ        19.2010   39.4230   30.5940 N.3    43  LYS43      -0.1314
     33  N         17.2560   32.3330   23.6840 N.3    92  ALA92      -0.1231
     34  CA        17.2850   33.8250   23.4960 C.3    92  ALA92       0.1694
     35  C         15.8500   34.1850   23.7090 C.2    92  ALA92       0.2591
     36  O         14.9070   33.3430   23.5320 O.2    92  ALA92      -0.2718
     37  CB        17.7290   34.1040   22.0630 C.3    92  ALA92       0.0304
     38  N         15.6800   35.4810   24.0140 N.am   93  VAL93      -0.1980
     39  CA        14.4400   36.1970   23.7710 C.3    93  VAL93       0.1595
     40  C         14.3260   36.6590   22.3360 C.2    93  VAL93       0.2287
     41  O         15.3380   37.1570   21.7710 O.2    93  VAL93      -0.2864
     42  CB        14.3910   37.4330   24.7840 C.3    93  VAL93       0.0276
     43  CG1       13.2330   38.3740   24.4350 C.3    93  VAL93       0.0022
     44  CG2       14.2540   36.8880   26.1790 C.3    93  VAL93       0.0022
     45  N         12.4770   38.9160   19.5150 N.3    95  TYR95      -0.1241
     46  CA        11.6550   40.0840   19.3650 C.3    95  TYR95       0.1605
     47  C         11.2590   40.3500   17.8900 C.2    95  TYR95       0.2264
     48  O         12.0170   40.0550   16.9730 O.2    95  TYR95      -0.2867
     49  CB        12.4870   41.3300   19.6910 C.3    95  TYR95       0.0534
     50  CG        13.0360   41.3950   20.9960 C.ar   95  TYR95      -0.0201
     51  CD1       12.2280   41.6530   22.1500 C.ar   95  TYR95      -0.0009
     52  CD2       14.4000   41.3060   21.1600 C.ar   95  TYR95      -0.0009
     53  CE1       12.8180   41.7440   23.4060 C.ar   95  TYR95       0.0417
     54  CE2       14.9740   41.3910   22.4140 C.ar   95  TYR95       0.0417
     55  CZ        14.1650   41.6000   23.5150 C.ar   95  TYR95       0.1957
     56  OH        14.7220   41.6770   24.7120 O.3    95  TYR95      -0.2866
     57  N         10.2250   34.0550   24.9360 N.3   116  THR116     -0.1218
     58  CA        11.5420   33.4940   25.3370 C.3   116  THR116      0.1862
     59  C         11.5470   32.0100   24.9280 C.2   116  THR116      0.2287
     60  O         10.5360   31.3230   25.1400 O.2   116  THR116     -0.2866
     61  CB        11.7880   33.5940   26.8540 C.3   116  THR116      0.1770
     62  OG1       11.8560   34.9590   27.2330 O.3   116  THR116     -0.2211
     63  CG2       13.1310   32.8480   27.3320 C.3   116  THR116      0.0375
     64  N         13.1090   29.6070   32.5830 N.3   156  GLU156     -0.1231
     65  CA        12.6910   31.0090   32.5000 C.3   156  GLU156      0.1684
     66  C         11.7110   31.2340   31.3120 C.2   156  GLU156      0.2434
     67  O         11.7160   30.4850   30.3660 O.2   156  GLU156     -0.2733
     68  CB        13.9280   31.8940   32.3340 C.3   156  GLU156      0.0402
     69  CG        14.7050   32.0540   33.6280 C.3   156  GLU156      0.1161
     70  CD        14.2840   33.2900   34.4430 C.2   156  GLU156      0.3649
     71  OE1       15.1590   34.1720   34.5700 O.co2 156  GLU156     -0.2457
     72  OE2       13.0930   33.4100   34.9510 O.co2 156  GLU156     -0.2457
     73  N         10.8240   32.2270   31.3780 N.am  157  PRO157     -0.2729
     74  CA        10.7090   33.2610   32.3890 C.3   157  PRO157      0.1401
     75  C          9.4100   33.0930   33.2130 C.2   157  PRO157      0.2269
     76  O          8.5380   32.2530   32.8940 O.2   157  PRO157     -0.2865
     77  CB        10.5180   34.5450   31.5220 C.3   157  PRO157      0.0296
     78  CG         9.5970   34.0220   30.4620 C.3   157  PRO157      0.0237
     79  CD         9.9900   32.5770   30.1910 C.3   157  PRO157      0.0939
@<TRIPOS>BOND
     1    48    47    2
     2    47    46    1
     3    46    45    1
     4    46    49    1
     5    49    50    1
     6    50    52   ar
     7    50    51   ar
     8    52    54   ar
     9     1     2    1
    10    41    40    2
    11    37    34    1
    12    51    53   ar
    13    16    14    1
    14    40    39    1
    15    54    55   ar
    16     2     5    1
    17     2     3    1
    18     5     6    1
    19    10     3   am
    20    10    11    1
    21    53    55   ar
    22     3     4    2
    23    34    33    1
    24    34    35    1
    25    55    56    1
    26    36    35    2
    27    35    38   am
    28    14    15    1
    29    14    11    1
    30    39    38    1
    31    39    42    1
    32     6     7    1
    33    11    12    1
    34    43    42    1
    35    27    26    1
    36     7     8    2
    37     7     9   am
    38    42    44    1
    39    59    60    2
    40    59    58    1
    41    57    58    1
    42    26    25    1
    43    58    61    1
    44    12    13    2
    45    12    17   am
    46    23    17    1
    47    23    22    1
    48    25    24    1
    49    25    28    1
    50    17    18    1
    51    61    62    1
    52    61    63    1
    53    22    21    1
    54    28    29    1
    55    18    19    1
    56    18    21    1
    57    19    20    2
    58    29    30    1
    59    30    31    1
    60    79    78    1
    61    79    73    1
    62    67    66    2
    63    78    77    1
    64    31    32    1
    65    66    73   am
    66    66    65    1
    67    73    74    1
    68    77    74    1
    69    68    65    1
    70    68    69    1
    71    74    75    1
    72    65    64    1
    73    76    75    2
    74    69    70    1
    75    70    71   ar
    76    70    72   ar
