@<TRIPOS>MOLECULE
tmp/4dthA00.pdb
 194 184 0 0 0
SMALL
GASTEIGER

@<TRIPOS>ATOM
      1  N         38.4330   83.9800   15.1330 N.3     5  PHE5       -0.1228
      2  CA        37.5950   84.9890   15.7390 C.3     5  PHE5        0.1721
      3  C         36.9740   84.4530   17.0160 C.2     5  PHE5        0.2437
      4  O         36.4590   83.3240   17.0080 O.2     5  PHE5       -0.2733
      5  CB        36.4260   85.3490   14.8080 C.3     5  PHE5        0.0547
      6  CG        36.7690   86.0970   13.5410 C.ar    5  PHE5       -0.0202
      7  CD1       37.6500   87.1720   13.5640 C.ar    5  PHE5       -0.0042
      8  CD2       36.1650   85.7650   12.3350 C.ar    5  PHE5       -0.0042
      9  CE1       37.9330   87.8920   12.3980 C.ar    5  PHE5       -0.0003
     10  CE2       36.4540   86.4800   11.1650 C.ar    5  PHE5       -0.0003
     11  CZ        37.3420   87.5360   11.2020 C.ar    5  PHE5       -0.0000
     12  N         36.9090   85.2880   18.0820 N.am    6  PRO6       -0.2718
     13  CA        36.0870   84.8950   19.2370 C.3     6  PRO6        0.1535
     14  C         34.6470   84.7340   18.6970 C.2     6  PRO6        0.2599
     15  O         34.2650   85.4110   17.7280 O.2     6  PRO6       -0.2715
     16  CB        36.1790   86.0890   20.1860 C.3     6  PRO6        0.0310
     17  CG        36.6760   87.2210   19.3640 C.3     6  PRO6        0.0237
     18  CD        37.4110   86.6780   18.2010 C.3     6  PRO6        0.0939
     19  N         33.8810   83.8070   19.2670 N.am    7  THR7       -0.1951
     20  CA        32.5170   83.5260   18.8010 C.3     7  THR7        0.1897
     21  C         31.4660   84.0840   19.7550 C.2     7  THR7        0.2313
     22  O         30.3390   84.3460   19.3270 O.2     7  THR7       -0.2863
     23  CB        32.3190   82.0100   18.6300 C.3     7  THR7        0.1794
     24  OG1       32.6580   81.3590   19.8580 O.3     7  THR7       -0.2208
     25  CG2       33.1310   81.4310   17.4810 C.3     7  THR7        0.0378
     26  N         29.9460   86.8860   22.6230 N.3     9  PHE9       -0.1241
     27  CA        29.8870   88.2480   23.1630 C.3     9  PHE9        0.1605
     28  C         28.7120   88.3840   24.1150 C.2     9  PHE9        0.2264
     29  O         27.6750   87.7640   23.8790 O.2     9  PHE9       -0.2867
     30  CB        29.8480   89.3140   22.0530 C.3     9  PHE9        0.0534
     31  CG        31.1800   89.3710   21.3360 C.ar    9  PHE9       -0.0203
     32  CD1       32.2430   90.1020   21.8610 C.ar    9  PHE9       -0.0042
     33  CD2       31.4000   88.6280   20.1800 C.ar    9  PHE9       -0.0042
     34  CE1       33.4980   90.1030   21.2280 C.ar    9  PHE9       -0.0003
     35  CE2       32.6560   88.6310   19.5480 C.ar    9  PHE9       -0.0003
     36  CZ        33.6940   89.3700   20.0750 C.ar    9  PHE9       -0.0000
     37  N         27.7370   92.7030   18.9110 N.3    13  SER13      -0.1202
     38  CA        29.1410   92.7730   18.5160 C.3    13  SER13       0.2020
     39  C         29.3300   93.4370   17.1570 C.2    13  SER13       0.2619
     40  O         28.3890   93.5070   16.3590 O.2    13  SER13      -0.2717
     41  CB        29.7450   91.3760   18.4980 C.3    13  SER13       0.2103
     42  OG        28.9520   90.5400   17.6730 O.3    13  SER13      -0.2182
     43  N         30.5590   93.9130   16.8900 N.am   14  ILE14      -0.1965
     44  CA        30.8660   94.5550   15.6260 C.3    14  ILE14       0.1727
     45  C         32.2540   94.1700   15.1370 C.2    14  ILE14       0.2617
     46  O         33.1930   94.0890   15.9290 O.2    14  ILE14      -0.2715
     47  CB        30.6560   96.1020   15.6800 C.3    14  ILE14       0.0290
     48  CG1       30.7880   96.7630   14.2870 C.3    14  ILE14       0.0022
     49  CG2       31.5610   96.7800   16.7260 C.3    14  ILE14       0.0023
     50  CD1       29.9890   98.0230   14.0840 C.3    14  ILE14       0.0001
     51  N         32.3410   93.9490   13.8360 N.am   15  GLY15      -0.1940
     52  CA        33.5780   93.6840   13.1200 C.3    15  GLY15       0.2014
     53  C         33.6620   94.6180   11.9360 C.2    15  GLY15       0.2639
     54  O         32.6340   95.1230   11.4710 O.2    15  GLY15      -0.2714
     55  N         34.8820   94.9010   11.4660 N.am   16  ILE16      -0.1963
     56  CA        35.0740   95.8070   10.3310 C.3    16  ILE16       0.1727
     57  C         36.0110   95.1830    9.2970 C.2    16  ILE16       0.2616
     58  O         36.8740   94.3770    9.6460 O.2    16  ILE16      -0.2715
     59  CB        35.5250   97.2480   10.7340 C.3    16  ILE16       0.0290
     60  CG1       36.9210   97.2420   11.4280 C.3    16  ILE16       0.0022
     61  CG2       34.4530   97.9760   11.5860 C.3    16  ILE16       0.0023
     62  CD1       37.6010   98.6390   11.6090 C.3    16  ILE16       0.0001
     63  N         35.8170   95.5560    8.0300 N.am   17  GLU17      -0.1977
     64  CA        36.6210   95.1220    6.8870 C.3    17  GLU17       0.1602
     65  C         37.0960   96.3780    6.2200 C.2    17  GLU17       0.2287
     66  O         36.3090   97.3050    6.0070 O.2    17  GLU17      -0.2864
     67  CB        35.8080   94.2630    5.9170 C.3    17  GLU17       0.0415
     68  CG        35.4470   92.9030    6.4770 C.3    17  GLU17       0.1163
     69  CD        34.3730   92.1860    5.6840 C.2    17  GLU17       0.3649
     70  OE1       33.2350   92.7030    5.6020 O.co2  17  GLU17      -0.2457
     71  OE2       34.6750   91.1030    5.1390 O.co2  17  GLU17      -0.2457
     72  N         40.9620   93.0220    8.4670 N.3    81  VAL81      -0.1231
     73  CA        39.6950   92.4690    8.9800 C.3    81  VAL81       0.1692
     74  C         39.7750   92.3970   10.4990 C.2    81  VAL81       0.2592
     75  O         40.5660   91.6210   11.0370 O.2    81  VAL81      -0.2718
     76  CB        39.3970   91.0780    8.3350 C.3    81  VAL81       0.0266
     77  CG1       38.0910   90.4940    8.8680 C.3    81  VAL81       0.0020
     78  CG2       39.3540   91.1680    6.8100 C.3    81  VAL81       0.0020
     79  N         38.9820   93.2150   11.1990 N.am   82  SER82      -0.1952
     80  CA        39.0810   93.2240   12.6560 C.3    82  SER82       0.1924
     81  C         38.5830   91.9500   13.3180 C.2    82  SER82       0.2314
     82  O         37.7250   91.2530   12.7650 O.2    82  SER82      -0.2863
     83  CB        38.3520   94.4290   13.2500 C.3    82  SER82       0.2116
     84  OG        36.9400   94.2660   13.2280 O.3    82  SER82      -0.2180
     85  N         36.1910   90.7370   16.0050 N.3    84  PRO84      -0.2116
     86  CA        35.0300   91.4560   16.5540 C.3    84  PRO84       0.1372
     87  C         35.1910   91.8610   18.0090 C.2    84  PRO84       0.2244
     88  O         35.9740   91.2450   18.7490 O.2    84  PRO84      -0.2868
     89  CB        33.8830   90.4560   16.3780 C.3    84  PRO84       0.0268
     90  CG        34.5730   89.1000   16.3450 C.3    84  PRO84       0.0207
     91  CD        35.8040   89.3850   15.5490 C.3    84  PRO84       0.0892
     92  N         30.2550   94.6270   10.0920 N.3   165  THR165     -0.1218
     93  CA        29.4040   93.4770   10.3730 C.3   165  THR165      0.1862
     94  C         28.9420   93.5770   11.8120 C.2   165  THR165      0.2287
     95  O         29.7730   93.7130   12.7100 O.2   165  THR165     -0.2866
     96  CB        30.1010   92.1580   10.0030 C.3   165  THR165      0.1770
     97  OG1       30.3420   92.1560    8.5900 O.3   165  THR165     -0.2211
     98  CG2       29.2770   90.9250   10.3770 C.3   165  THR165      0.0375
     99  N         26.6540   91.8100   14.9190 N.3   167  GLY167     -0.1225
    100  CA        26.0720   90.5800   15.4370 C.3   167  GLY167      0.1811
    101  C         25.1220   90.8900   16.5700 C.2   167  GLY167      0.2280
    102  O         25.4770   91.6560   17.4660 O.2   167  GLY167     -0.2866
    103  N         24.8830   90.8830   -3.5850 N.3   261  LYS261     -0.1245
    104  CA        25.1430   91.2050   -2.1810 C.3   261  LYS261      0.1561
    105  C         24.8270   92.6840   -1.9070 C.2   261  LYS261      0.2260
    106  O         24.2150   92.9970   -0.8840 O.2   261  LYS261     -0.2867
    107  CB        26.6130   90.9220   -1.8470 C.3   261  LYS261      0.0271
    108  CG        26.9870   89.4570   -1.7750 C.3   261  LYS261      0.0035
    109  CD        28.4640   89.3900   -1.3510 C.3   261  LYS261      0.0206
    110  CE        28.9540   88.0040   -1.0720 C.3   261  LYS261      0.1093
    111  NZ        30.3670   88.0290   -0.5970 N.3   261  LYS261     -0.1314
    112  N         23.3120   92.8460    4.4640 N.3   267  LEU267     -0.1245
    113  CA        23.3890   91.4560    4.0330 C.3   267  LEU267      0.1561
    114  C         23.3860   90.4380    5.1790 C.2   267  LEU267      0.2260
    115  O         24.3360   90.4110    5.9600 O.2   267  LEU267     -0.2867
    116  CB        24.6560   91.2720    3.1620 C.3   267  LEU267      0.0270
    117  CG        24.9770   89.8650    2.6480 C.3   267  LEU267      0.0019
    118  CD1       23.9670   89.4090    1.6000 C.3   267  LEU267      0.0001
    119  CD2       26.4020   89.8080    2.0820 C.3   267  LEU267      0.0001
    120  N         24.4070   87.3700    7.1800 N.3   269  ARG269     -0.1245
    121  CA        25.6470   86.5980    7.1240 C.3   269  ARG269      0.1563
    122  C         25.5350   85.2640    7.8340 C.2   269  ARG269      0.2260
    123  O         26.5200   84.5270    7.8940 O.2   269  ARG269     -0.2867
    124  CB        26.8280   87.4080    7.7150 C.3   269  ARG269      0.0307
    125  CG        27.2570   88.6030    6.8670 C.3   269  ARG269      0.0489
    126  CD        28.0660   88.2500    5.6210 C.3   269  ARG269      0.2205
    127  NE        29.3090   87.5370    5.9280 N.pl3 269  ARG269     -0.0865
    128  CZ        29.4990   86.2400    5.7070 C.cat 269  ARG269      0.5346
    129  NH1       28.5320   85.5000    5.1810 N.pl3 269  ARG269      0.1354
    130  NH2       30.6570   85.6750    6.0050 N.pl3 269  ARG269      0.1354
    131  N         24.4730   84.1750    0.9820 N.3   318  ALA318     -0.1231
    132  CA        25.5610   84.5640    0.0840 C.3   318  ALA318      0.1694
    133  C         26.8770   83.9000    0.4770 C.2   318  ALA318      0.2593
    134  O         27.8060   84.5580    0.9430 O.2   318  ALA318     -0.2718
    135  CB        25.7050   86.0930    0.0670 C.3   318  ALA318      0.0304
    136  N         26.9500   82.5920    0.2640 N.am  319  GLY319     -0.1942
    137  CA        28.1620   81.8330    0.5740 C.3   319  GLY319      0.2014
    138  C         28.3440   81.5460    2.0510 C.2   319  GLY319      0.2639
    139  O         27.4370   81.8070    2.8580 O.2   319  GLY319     -0.2714
    140  N         29.5250   80.9940    2.4110 N.am  320  HIS320     -0.1959
    141  CA        29.8320   80.6040    3.7860 C.3   320  HIS320      0.1787
    142  C         29.3960   81.6370    4.8320 C.2   320  HIS320      0.2621
    143  O         29.7830   82.7950    4.7500 O.2   320  HIS320     -0.2715
    144  CB        31.2960   80.1680    3.9480 C.3   320  HIS320      0.0785
    145  CG        31.6060   79.6500    5.3160 C.ar  320  HIS320      0.0821
    146  ND1       30.9460   78.5510    5.8460 N.ar  320  HIS320     -0.2267
    147  CD2       32.5150   80.0890    6.2130 C.ar  320  HIS320      0.1154
    148  CE1       31.4540   78.3820    7.0540 C.ar  320  HIS320      0.1986
    149  NE2       32.4070   79.2800    7.3150 N.ar  320  HIS320     -0.2212
    150  N         28.5530   81.2150    5.7550 N.am  321  GLY321     -0.1940
    151  CA        28.0440   82.0980    6.7960 C.3   321  GLY321      0.2014
    152  C         28.8620   82.0720    8.0660 C.2   321  GLY321      0.2638
    153  O         29.7690   81.2460    8.2050 O.2   321  GLY321     -0.2714
    154  N         28.5490   82.9880    8.9890 N.am  322  ILE322     -0.1977
    155  CA        29.1310   83.0410   10.3340 C.3   322  ILE322      0.1596
    156  C         28.0200   82.4070   11.1740 C.2   322  ILE322      0.2287
    157  O         27.0290   83.0690   11.5140 O.2   322  ILE322     -0.2864
    158  CB        29.5110   84.4800   10.7680 C.3   322  ILE322      0.0276
    159  CG1       30.5760   85.0670    9.7990 C.3   322  ILE322      0.0022
    160  CG2       30.0310   84.4750   12.2250 C.3   322  ILE322      0.0022
    161  CD1       30.6200   86.5820    9.7050 C.3   322  ILE322      0.0001
    162  N         28.4440   81.9570   15.9470 N.3   325  ALA325     -0.1245
    163  CA        28.4860   83.1320   16.8240 C.3   325  ALA325      0.1562
    164  C         27.3730   83.0400   17.8650 C.2   325  ALA325      0.2260
    165  O         26.2590   82.6080   17.5480 O.2   325  ALA325     -0.2867
    166  CB        28.3390   84.4060   16.0140 C.3   325  ALA325      0.0290
    167  N         24.3160   87.5340   12.2390 N.3   338  LEU338     -0.1245
    168  CA        25.1780   88.6080   11.7580 C.3   338  LEU338      0.1561
    169  C         24.7520   89.2580   10.4730 C.2   338  LEU338      0.2260
    170  O         24.1550   88.6130    9.6220 O.2   338  LEU338     -0.2867
    171  CB        26.6130   88.0830   11.6400 C.3   338  LEU338      0.0270
    172  CG        27.4260   88.1330   12.9430 C.3   338  LEU338      0.0019
    173  CD1       26.9440   87.0930   13.9770 C.3   338  LEU338      0.0001
    174  CD2       28.8460   87.9120   12.6540 C.3   338  LEU338      0.0001
    175  N         26.0420   92.1890    7.3580 N.3   340  GLU340     -0.1245
    176  CA        27.0860   92.9980    6.7510 C.3   340  GLU340      0.1567
    177  C         26.4990   94.2440    6.1000 C.2   340  GLU340      0.2260
    178  O         25.6460   94.1440    5.2080 O.2   340  GLU340     -0.2867
    179  CB        27.8520   92.1500    5.7160 C.3   340  GLU340      0.0388
    180  CG        28.9390   92.9060    4.9720 C.3   340  GLU340      0.1160
    181  CD        29.6440   92.1000    3.8980 C.2   340  GLU340      0.3649
    182  OE1       29.8640   90.8870    4.1050 O.co2 340  GLU340     -0.2457
    183  OE2       30.0440   92.7040    2.8790 O.co2 340  GLU340     -0.2457
    184  N         27.0120   96.6880    3.5230 N.3   342  ARG342     -0.1245
    185  CA        27.7700   96.7830    2.2610 C.3   342  ARG342      0.1563
    186  C         28.4150   98.1540    2.0850 C.2   342  ARG342      0.2260
    187  O         29.5380   98.2590    1.5940 O.2   342  ARG342     -0.2867
    188  CB        26.9010   96.3770    1.0650 C.3   342  ARG342      0.0307
    189  CG        26.4100   94.9100    1.1510 C.3   342  ARG342      0.0489
    190  CD        27.5420   93.8890    0.9970 C.3   342  ARG342      0.2205
    191  NE        28.0790   93.8880   -0.3690 N.pl3 342  ARG342     -0.0865
    192  CZ        29.1660   93.2320   -0.7610 C.cat 342  ARG342      0.5346
    193  NH1       29.8670   92.5120    0.1090 N.pl3 342  ARG342      0.1354
    194  NH2       29.5520   93.2760   -2.0310 N.pl3 342  ARG342      0.1354
@<TRIPOS>BOND
     1   103   104    1
     2   104   105    1
     3   104   107    1
     4   194   192    1
     5   105   106    2
     6   107   108    1
     7   108   109    1
     8   109   110    1
     9   110   111    1
    10   192   191    2
    11   192   193    1
    12   191   190    1
    13   135   132    1
    14   132   133    1
    15   132   131    1
    16   136   133   am
    17   136   137    1
    18   133   134    2
    19   137   138    1
    20   190   189    1
    21   188   189    1
    22   188   185    1
    23   187   186    2
    24   118   117    1
    25   138   140   am
    26   138   139    2
    27   119   117    1
    28   186   185    1
    29   185   184    1
    30   140   141    1
    31   117   116    1
    32   183   181   ar
    33   116   113    1
    34   141   144    1
    35   141   142    1
    36   181   182   ar
    37   181   180    1
    38   144   145    1
    39   113   112    1
    40   113   114    1
    41   143   142    2
    42   142   150   am
    43   180   179    1
    44    71    69   ar
    45   114   115    2
    46   129   128    1
    47   178   177    2
    48   145   146   ar
    49   145   147   ar
    50    70    69   ar
    51   126   127    1
    52   126   125    1
    53    69    68    1
    54   128   127    2
    55   128   130    1
    56   179   176    1
    57   150   151    1
    58   146   148   ar
    59    67    68    1
    60    67    64    1
    61    66    65    2
    62   177   176    1
    63   147   149   ar
    64    65    64    1
    65   176   175    1
    66   151   152    1
    67    78    76    1
    68   125   124    1
    69    64    63    1
    70   148   149   ar
    71   121   120    1
    72   121   124    1
    73   121   122    1
    74   122   123    2
    75    63    57   am
    76   152   153    2
    77   152   154   am
    78    76    77    1
    79    76    73    1
    80    72    73    1
    81    97    96    1
    82    73    74    1
    83   154   155    1
    84    57    58    2
    85    57    56    1
    86   170   169    2
    87   161   159    1
    88   159   158    1
    89    96    93    1
    90    96    98    1
    91    92    93    1
    92    56    59    1
    93    56    55    1
    94   155   158    1
    95   155   156    1
    96    93    94    1
    97   169   168    1
    98    74    75    2
    99    74    79   am
   100    59    60    1
   101    59    61    1
   102   158   160    1
   103    10    11   ar
   104    10     8   ar
   105   156   157    2
   106    79    80    1
   107    11     9   ar
   108    60    62    1
   109    55    53   am
   110    54    53    2
   111   171   168    1
   112   171   172    1
   113   168   167    1
   114    94    95    2
   115    53    52    1
   116     8     6   ar
   117     9     7   ar
   118   174   172    1
   119    80    83    1
   120    80    81    1
   121    82    81    2
   122   172   173    1
   123    52    51    1
   124    84    83    1
   125     6     7   ar
   126     6     5    1
   127    51    45   am
   128    50    48    1
   129    48    47    1
   130     5     2    1
   131    99   100    1
   132     1     2    1
   133    45    44    1
   134    45    46    2
   135   100   101    1
   136    91    85    1
   137    91    90    1
   138    44    47    1
   139    44    43    1
   140    47    49    1
   141     2     3    1
   142   162   163    1
   143    85    86    1
   144   166   163    1
   145    90    89    1
   146    40    39    2
   147    89    86    1
   148    86    87    1
   149   101   102    2
   150   163   164    1
   151    43    39   am
   152     4     3    2
   153     3    12   am
   154    39    38    1
   155    25    23    1
   156   165   164    2
   157    42    41    1
   158    15    14    2
   159    87    88    2
   160    12    18    1
   161    12    13    1
   162    18    17    1
   163    41    38    1
   164    38    37    1
   165    23    20    1
   166    23    24    1
   167    14    13    1
   168    14    19   am
   169    20    19    1
   170    20    21    1
   171    13    16    1
   172    22    21    2
   173    17    16    1
   174    35    36   ar
   175    35    33   ar
   176    36    34   ar
   177    33    31   ar
   178    34    32   ar
   179    31    32   ar
   180    31    30    1
   181    30    27    1
   182    26    27    1
   183    27    28    1
   184    29    28    2
