@<TRIPOS>MOLECULE
tmp/4dtkA00.pdb
 188 177 0 0 0
SMALL
GASTEIGER

@<TRIPOS>ATOM
      1  N         24.9540  -33.8040   -5.0720 N.3    12  LEU12      -0.1231
      2  CA        24.1130  -34.9480   -5.4370 C.3    12  LEU12       0.1693
      3  C         22.8430  -34.4920   -6.1720 C.2    12  LEU12       0.2592
      4  O         22.3090  -35.2160   -7.0090 O.2    12  LEU12      -0.2718
      5  CB        23.7490  -35.7730   -4.1820 C.3    12  LEU12       0.0284
      6  CG        24.9260  -36.4420   -3.4240 C.3    12  LEU12       0.0019
      7  CD1       24.4460  -37.0560   -2.1000 C.3    12  LEU12       0.0001
      8  CD2       25.6160  -37.5220   -4.2880 C.3    12  LEU12       0.0001
      9  N         22.3800  -33.2950   -5.8560 N.am   13  GLY13      -0.1957
     10  CA        21.1780  -32.7340   -6.4530 C.3    13  GLY13       0.1869
     11  C         20.7630  -31.4310   -5.8090 C.2    13  GLY13       0.2309
     12  O         21.2420  -31.0690   -4.7230 O.2    13  GLY13      -0.2863
     13  N         13.8800  -28.5720   -2.5980 N.3    17  PHE17      -0.1241
     14  CA        14.3720  -29.0130   -1.2860 C.3    17  PHE17       0.1605
     15  C         15.6640  -28.3020   -0.8240 C.2    17  PHE17       0.2264
     16  O         15.9940  -28.3710    0.3610 O.2    17  PHE17      -0.2867
     17  CB        14.5900  -30.5430   -1.3000 C.3    17  PHE17       0.0534
     18  CG        15.4580  -31.0460   -2.4390 C.ar   17  PHE17      -0.0203
     19  CD1       14.8850  -31.5330   -3.6130 C.ar   17  PHE17      -0.0042
     20  CD2       16.8490  -31.0330   -2.3380 C.ar   17  PHE17      -0.0042
     21  CE1       15.6870  -31.9920   -4.6680 C.ar   17  PHE17      -0.0003
     22  CE2       17.6470  -31.4930   -3.3910 C.ar   17  PHE17      -0.0003
     23  CZ        17.0610  -31.9730   -4.5470 C.ar   17  PHE17      -0.0000
     24  N         21.9690  -30.5030   -2.0800 N.3    20  VAL20      -0.1245
     25  CA        22.4320  -31.6620   -1.3190 C.3    20  VAL20       0.1561
     26  C         23.7760  -32.1290   -1.8470 C.2    20  VAL20       0.2260
     27  O         23.9110  -32.4120   -3.0410 O.2    20  VAL20      -0.2867
     28  CB        21.3810  -32.8030   -1.2700 C.3    20  VAL20       0.0252
     29  CG1       21.9230  -34.0390   -0.5500 C.3    20  VAL20       0.0019
     30  CG2       20.0890  -32.3350   -0.6130 C.3    20  VAL20       0.0019
     31  N         24.9480  -37.1100    3.9480 N.3    33  ALA33      -0.1245
     32  CA        24.4240  -36.1980    2.9380 C.3    33  ALA33       0.1562
     33  C         24.3110  -34.8490    3.6340 C.2    33  ALA33       0.2260
     34  O         23.8630  -34.7650    4.7760 O.2    33  ALA33      -0.2867
     35  CB        23.0680  -36.6600    2.4220 C.3    33  ALA33       0.0290
     36  N         22.6650  -31.2950    3.4200 N.3    35  LYS35      -0.1245
     37  CA        21.5480  -30.5530    2.8310 C.3    35  LYS35       0.1561
     38  C         21.4940  -29.1100    3.3050 C.2    35  LYS35       0.2260
     39  O         21.3540  -28.8370    4.5050 O.2    35  LYS35      -0.2867
     40  CB        20.2270  -31.3050    3.0950 C.3    35  LYS35       0.0271
     41  CG        18.9740  -30.6300    2.5340 C.3    35  LYS35       0.0035
     42  CD        17.7190  -31.4300    2.9460 C.3    35  LYS35       0.0206
     43  CE        16.5310  -31.1720    2.0540 C.3    35  LYS35       0.1093
     44  NZ        15.3470  -32.0110    2.4540 N.3    35  LYS35      -0.1314
     45  N         11.0240  -28.7240    8.9370 N.3    57  GLU57      -0.1245
     46  CA        11.7420  -29.9040    8.4670 C.3    57  GLU57       0.1567
     47  C         12.6000  -30.5390    9.5910 C.2    57  GLU57       0.2260
     48  O         12.5750  -31.7600    9.7470 O.2    57  GLU57      -0.2867
     49  CB        12.6010  -29.5470    7.2500 C.3    57  GLU57       0.0388
     50  CG        13.1250  -30.7640    6.5300 C.3    57  GLU57       0.1160
     51  CD        13.9640  -30.4900    5.2960 C.2    57  GLU57       0.3649
     52  OE1       13.8840  -29.3790    4.7190 O.co2  57  GLU57      -0.2457
     53  OE2       14.6790  -31.4260    4.8850 O.co2  57  GLU57      -0.2457
     54  N         11.9490  -34.1990   11.3660 N.3    61  LEU61      -0.1245
     55  CA        13.0490  -35.1720   11.3160 C.3    61  LEU61       0.1561
     56  C         13.3890  -35.6850   12.7070 C.2    61  LEU61       0.2260
     57  O         13.5950  -36.8900   12.8790 O.2    61  LEU61      -0.2867
     58  CB        14.2980  -34.5470   10.6500 C.3    61  LEU61       0.0270
     59  CG        14.3090  -34.5190    9.1170 C.3    61  LEU61       0.0019
     60  CD1       15.4050  -33.5830    8.6200 C.3    61  LEU61       0.0001
     61  CD2       14.5240  -35.9130    8.5370 C.3    61  LEU61       0.0001
     62  N         14.7230  -41.7180    6.8640 N.3    72  ILE72      -0.1245
     63  CA        16.0330  -41.0760    6.9630 C.3    72  ILE72       0.1561
     64  C         16.3000  -40.5740    8.4090 C.2    72  ILE72       0.2260
     65  O         15.3630  -40.1470    9.1180 O.2    72  ILE72      -0.2867
     66  CB        16.2260  -39.9590    5.8840 C.3    72  ILE72       0.0252
     67  CG1       17.7330  -39.6170    5.6290 C.3    72  ILE72       0.0019
     68  CG2       15.4150  -38.6880    6.2030 C.3    72  ILE72       0.0019
     69  CD1       18.3960  -40.4790    4.6610 C.3    72  ILE72       0.0001
     70  N         22.4930  -35.6410    7.1560 N.3    88  LEU88      -0.1231
     71  CA        21.6110  -36.7940    7.0950 C.3    88  LEU88       0.1693
     72  C         22.4060  -38.0290    6.7540 C.2    88  LEU88       0.2592
     73  O         23.4800  -37.9220    6.1780 O.2    88  LEU88      -0.2718
     74  CB        20.5260  -36.5450    6.0360 C.3    88  LEU88       0.0284
     75  CG        19.6140  -35.3470    6.3750 C.3    88  LEU88       0.0019
     76  CD1       19.4290  -34.4280    5.1870 C.3    88  LEU88       0.0001
     77  CD2       18.3150  -35.7940    7.0230 C.3    88  LEU88       0.0001
     78  N         21.8750  -39.2090    7.0800 N.am   89  GLU89      -0.1966
     79  CA        22.5560  -40.4410    6.7080 C.3    89  GLU89       0.1733
     80  C         22.5620  -40.6110    5.1800 C.2    89  GLU89       0.2616
     81  O         21.7260  -40.0320    4.4640 O.2    89  GLU89      -0.2715
     82  CB        21.9430  -41.6510    7.4420 C.3    89  GLU89       0.0429
     83  CG        20.6980  -42.2330    6.8150 C.3    89  GLU89       0.1163
     84  CD        19.9670  -43.2230    7.6980 C.2    89  GLU89       0.3649
     85  OE1       20.5390  -44.2940    8.0130 O.co2  89  GLU89      -0.2457
     86  OE2       18.7890  -42.9530    8.0190 O.co2  89  GLU89      -0.2457
     87  N         23.5270  -41.3690    4.6850 N.am   90  ARG90      -0.1964
     88  CA        23.6470  -41.6260    3.2640 C.3    90  ARG90       0.1714
     89  C         24.0040  -43.0900    3.0740 C.2    90  ARG90       0.2458
     90  O         25.1460  -43.4670    3.3320 O.2    90  ARG90      -0.2730
     91  CB        24.6910  -40.6860    2.6020 C.3    90  ARG90       0.0347
     92  CG        25.0450  -41.0420    1.1440 C.3    90  ARG90       0.0492
     93  CD        25.9310  -40.0170    0.4350 C.3    90  ARG90       0.2205
     94  NE        27.2750  -39.8400    1.0230 N.pl3  90  ARG90      -0.0865
     95  CZ        28.3310  -40.6090    0.7650 C.cat  90  ARG90       0.5346
     96  NH1       28.2150  -41.6670   -0.0310 N.pl3  90  ARG90       0.1354
     97  NH2       29.5080  -40.3380    1.3160 N.pl3  90  ARG90       0.1354
     98  N         23.0350  -43.9350    2.6520 N.am   91  PRO91      -0.2727
     99  CA        23.3660  -45.3420    2.3590 C.3    91  PRO91       0.1402
    100  C         24.3200  -45.3860    1.1690 C.2    91  PRO91       0.2269
    101  O         24.3180  -44.4650    0.3470 O.2    91  PRO91      -0.2865
    102  CB        22.0080  -45.9510    1.9650 C.3    91  PRO91       0.0296
    103  CG        20.9520  -44.9810    2.5450 C.3    91  PRO91       0.0237
    104  CD        21.6190  -43.6440    2.3300 C.3    91  PRO91       0.0939
    105  N         23.5990  -46.6450   -3.1470 N.3    94  VAL94      -0.1231
    106  CA        22.2150  -46.1690   -3.0770 C.3    94  VAL94       0.1692
    107  C         21.7940  -45.6410   -4.4540 C.2    94  VAL94       0.2592
    108  O         22.6420  -45.2520   -5.2680 O.2    94  VAL94      -0.2718
    109  CB        22.1010  -45.0640   -1.9710 C.3    94  VAL94       0.0266
    110  CG1       22.8480  -43.7840   -2.3750 C.3    94  VAL94       0.0020
    111  CG2       20.6530  -44.7660   -1.5790 C.3    94  VAL94       0.0020
    112  N         20.4750  -45.6340   -4.6910 N.am   95  GLN95      -0.1966
    113  CA        19.8180  -45.0830   -5.8620 C.3    95  GLN95       0.1733
    114  C         18.4230  -44.6840   -5.4360 C.2    95  GLN95       0.2616
    115  O         17.7540  -45.4530   -4.7230 O.2    95  GLN95      -0.2715
    116  CB        19.7450  -46.0930   -7.0080 C.3    95  GLN95       0.0408
    117  CG        19.3230  -45.4510   -8.3310 C.3    95  GLN95       0.0908
    118  CD        19.4030  -46.3880   -9.5070 C.2    95  GLN95       0.2608
    119  OE1       19.0260  -47.5580   -9.4170 O.2    95  GLN95      -0.2717
    120  NE2       19.8730  -45.8790  -10.6490 N.am   95  GLN95      -0.0878
    121  N         17.9620  -43.5070   -5.8790 N.am   96  ASP96      -0.1971
    122  CA        16.5990  -43.1510   -5.5430 C.3    96  ASP96       0.1709
    123  C         15.6510  -43.9170   -6.4600 C.2    96  ASP96       0.2293
    124  O         16.0580  -44.4230   -7.5170 O.2    96  ASP96      -0.2864
    125  CB        16.3360  -41.6290   -5.4470 C.3    96  ASP96       0.1436
    126  CG        16.3950  -40.7800   -6.7090 C.2    96  ASP96       0.3671
    127  OD1       15.9960  -41.2750   -7.7790 O.co2  96  ASP96      -0.2456
    128  OD2       16.6710  -39.5640   -6.5870 O.co2  96  ASP96      -0.2456
    129  N         15.2140  -42.7540  -10.2290 N.3    99  ASP99      -0.1239
    130  CA        16.3210  -43.1970  -11.0990 C.3    99  ASP99       0.1674
    131  C         16.2460  -44.6760  -11.3950 C.2    99  ASP99       0.2266
    132  O         16.4940  -45.0880  -12.5190 O.2    99  ASP99      -0.2867
    133  CB        17.6860  -42.8480  -10.4810 C.3    99  ASP99       0.1410
    134  CG        18.0650  -41.3810  -10.5640 C.2    99  ASP99       0.3668
    135  OD1       17.3760  -40.6210  -11.2940 O.co2  99  ASP99      -0.2456
    136  OD2       19.0340  -40.9880   -9.8980 O.co2  99  ASP99      -0.2456
    137  N         11.0300  -39.9340   -6.1170 N.3   139  GLU139     -0.1231
    138  CA        12.2300  -39.1030   -5.8560 C.3   139  GLU139      0.1699
    139  C         12.5800  -39.0160   -4.3790 C.2   139  GLU139      0.2592
    140  O         13.7530  -38.7860   -4.0480 O.2   139  GLU139     -0.2718
    141  CB        12.0480  -37.6730   -6.3750 C.3   139  GLU139      0.0402
    142  CG        11.8900  -37.5520   -7.8780 C.3   139  GLU139      0.1161
    143  CD        11.4340  -36.1650   -8.2850 C.2   139  GLU139      0.3649
    144  OE1       12.0760  -35.1800   -7.8540 O.co2 139  GLU139     -0.2457
    145  OE2       10.4010  -36.0600   -8.9850 O.co2 139  GLU139     -0.2457
    146  N         11.5650  -39.1910   -3.4960 N.am  140  ASN140     -0.1974
    147  CA        11.7330  -39.1290   -2.0480 C.3   140  ASN140      0.1688
    148  C         11.8830  -40.4950   -1.3790 C.2   140  ASN140      0.2292
    149  O         11.6480  -40.6440   -0.1790 O.2   140  ASN140     -0.2864
    150  CB        10.6360  -38.2770   -1.4140 C.3   140  ASN140      0.1181
    151  CG        10.7450  -36.8380   -1.8300 C.2   140  ASN140      0.2629
    152  OD1       11.8250  -36.3640   -2.1460 O.2   140  ASN140     -0.2716
    153  ND2        9.6420  -36.1130   -1.8460 N.am  140  ASN140     -0.0877
    154  N         14.7860  -43.6770   -1.1260 N.3   142  LEU142     -0.1245
    155  CA        16.1170  -44.1950   -1.4440 C.3   142  LEU142      0.1561
    156  C         16.0940  -45.6930   -1.3460 C.2   142  LEU142      0.2260
    157  O         15.4330  -46.2510   -0.4600 O.2   142  LEU142     -0.2867
    158  CB        17.2120  -43.6630   -0.4940 C.3   142  LEU142      0.0270
    159  CG        17.4240  -42.1680   -0.4250 C.3   142  LEU142      0.0019
    160  CD1       18.5300  -41.8530    0.5710 C.3   142  LEU142      0.0001
    161  CD2       17.7150  -41.5780   -1.8360 C.3   142  LEU142      0.0001
    162  N         12.6370  -40.1030    2.5630 N.3   153  ILE153     -0.1231
    163  CA        13.4540  -38.9060    2.8060 C.3   153  ILE153      0.1692
    164  C         12.6490  -37.6440    2.5270 C.2   153  ILE153      0.2592
    165  O         11.5940  -37.7140    1.9040 O.2   153  ILE153     -0.2718
    166  CB        14.7380  -38.9180    1.8810 C.3   153  ILE153      0.0266
    167  CG1       14.3830  -38.7530    0.3670 C.3   153  ILE153      0.0019
    168  CG2       15.6170  -40.1560    2.1240 C.3   153  ILE153      0.0020
    169  CD1       15.5430  -38.3480   -0.5860 C.3   153  ILE153      0.0001
    170  N         13.2550  -36.4830    2.8430 N.am  154  ASP154     -0.1960
    171  CA        12.7590  -35.1490    2.5230 C.3   154  ASP154      0.1840
    172  C         11.4410  -34.7930    3.1720 C.2   154  ASP154      0.2622
    173  O         10.3730  -34.8870    2.5630 O.2   154  ASP154     -0.2715
    174  CB        12.7530  -34.8850    1.0050 C.3   154  ASP154      0.1450
    175  CG        12.6970  -33.4000    0.6460 C.2   154  ASP154      0.3671
    176  OD1       12.6050  -32.5580    1.5740 O.co2 154  ASP154     -0.2456
    177  OD2       12.7960  -33.0830   -0.5400 O.co2 154  ASP154     -0.2456
    178  N         11.5540  -34.2580    4.3760 N.am  155  PHE155     -0.1974
    179  CA        10.4160  -33.7980    5.1610 C.3   155  PHE155      0.1639
    180  C         10.1860  -32.2890    4.9860 C.2   155  PHE155      0.2290
    181  O          9.4460  -31.6940    5.7620 O.2   155  PHE155     -0.2864
    182  CB        10.6250  -34.1870    6.6350 C.3   155  PHE155      0.0560
    183  CG        10.4000  -35.6660    6.8370 C.ar  155  PHE155     -0.0200
    184  CD1       11.3960  -36.5920    6.5170 C.ar  155  PHE155     -0.0042
    185  CD2        9.1750  -36.1440    7.3110 C.ar  155  PHE155     -0.0042
    186  CE1       11.1750  -37.9670    6.6770 C.ar  155  PHE155     -0.0003
    187  CE2        8.9560  -37.5230    7.4640 C.ar  155  PHE155     -0.0003
    188  CZ         9.9490  -38.4240    7.1280 C.ar  155  PHE155     -0.0000
@<TRIPOS>BOND
     1   132   131    2
     2   131   130    1
     3   135   134   ar
     4   130   133    1
     5   130   129    1
     6   120   118   am
     7   134   133    1
     8   134   136   ar
     9   118   119    2
    10   118   117    1
    11   145   143   ar
    12   117   116    1
    13   143   142    1
    14   143   144   ar
    15   142   141    1
    16   127   126   ar
    17   124   123    2
    18     4     3    2
    19   116   113    1
    20   126   128   ar
    21   126   125    1
    22   123   122    1
    23    10     9    1
    24    10    11    1
    25   141   138    1
    26     3     9   am
    27     3     2    1
    28   137   138    1
    29   121   122    1
    30   121   114   am
    31   113   114    1
    32   113   112    1
    33   138   139    1
    34    11    12    2
    35   122   125    1
    36     2     1    1
    37     2     5    1
    38   114   115    2
    39   108   107    2
    40   112   107   am
    41    21    23   ar
    42    21    19   ar
    43    23    22   ar
    44   107   106    1
    45   139   140    2
    46   139   146   am
    47     8     6    1
    48     5     6    1
    49    19    18   ar
    50   146   147    1
    51     6     7    1
    52    22    20   ar
    53   105   106    1
    54   106   109    1
    55    27    26    2
    56    13    14    1
    57    18    20   ar
    58    18    17    1
    59   110   109    1
    60   152   151    2
    61    24    25    1
    62   147   150    1
    63   147   148    1
    64   109   111    1
    65    26    25    1
    66   153   151   am
    67   161   159    1
    68   151   150    1
    69   155   156    1
    70   155   154    1
    71   155   158    1
    72   148   149    2
    73   156   157    2
    74    25    28    1
    75    17    14    1
    76    14    15    1
    77    28    30    1
    78    28    29    1
    79    15    16    2
    80   169   167    1
    81   177   175   ar
    82   158   159    1
    83   159   160    1
    84    96    95    1
    85   101   100    2
    86   167   166    1
    87    93    94    1
    88    93    92    1
    89   175   174    1
    90   175   176   ar
    91    95    94    2
    92    95    97    1
    93   174   171    1
    94    92    91    1
    95   100    99    1
    96   166   168    1
    97   166   163    1
    98   165   164    2
    99   102    99    1
   100   102   103    1
   101    43    44    1
   102    43    42    1
   103   104   103    1
   104   104    98    1
   105    99    98    1
   106    35    32    1
   107   171   170    1
   108   171   172    1
   109   164   163    1
   110   164   170   am
   111    41    42    1
   112    41    40    1
   113   162   163    1
   114   173   172    2
   115    91    88    1
   116    98    89   am
   117    37    40    1
   118    37    38    1
   119    37    36    1
   120    32    33    1
   121    32    31    1
   122    89    88    1
   123    89    90    2
   124   172   178   am
   125    88    87    1
   126    38    39    2
   127    33    34    2
   128   178   179    1
   129    81    80    2
   130    69    67    1
   131    87    80   am
   132    52    51   ar
   133    53    51   ar
   134   180   179    1
   135   180   181    2
   136   179   182    1
   137    80    79    1
   138    76    75    1
   139    51    50    1
   140    67    66    1
   141    66    68    1
   142    66    63    1
   143    74    75    1
   144    74    71    1
   145    73    72    2
   146    75    77    1
   147   184   186   ar
   148   184   183   ar
   149    50    49    1
   150   182   183    1
   151   186   188   ar
   152    79    78    1
   153    79    82    1
   154    72    78   am
   155    72    71    1
   156    83    82    1
   157    83    84    1
   158   183   185   ar
   159    62    63    1
   160    63    64    1
   161    71    70    1
   162   188   187   ar
   163    49    46    1
   164   185   187   ar
   165    84    85   ar
   166    84    86   ar
   167    64    65    2
   168    46    45    1
   169    46    47    1
   170    61    59    1
   171    60    59    1
   172    59    58    1
   173    47    48    2
   174    58    55    1
   175    55    54    1
   176    55    56    1
   177    56    57    2
