@<TRIPOS>MOLECULE
tmp/4dtpA00.pdb
 139 132 0 0 0
SMALL
GASTEIGER

@<TRIPOS>ATOM
      1  N          1.9900   18.3280  -29.4280 N.3   282  PHE282     -0.1241
      2  CA         0.8780   17.9600  -28.5440 C.3   282  PHE282      0.1605
      3  C         -0.3890   18.7870  -28.7530 C.2   282  PHE282      0.2264
      4  O         -1.0350   19.2400  -27.8130 O.2   282  PHE282     -0.2867
      5  CB         1.3290   17.8850  -27.0790 C.3   282  PHE282      0.0534
      6  CG         2.2020   16.6970  -26.8120 C.ar  282  PHE282     -0.0203
      7  CD1        1.6380   15.4760  -26.4470 C.ar  282  PHE282     -0.0042
      8  CD2        3.5790   16.7700  -27.0120 C.ar  282  PHE282     -0.0042
      9  CE1        2.4390   14.3590  -26.2450 C.ar  282  PHE282     -0.0003
     10  CE2        4.3850   15.6590  -26.8050 C.ar  282  PHE282     -0.0003
     11  CZ         3.8120   14.4520  -26.4190 C.ar  282  PHE282     -0.0000
     12  N         -0.8840   15.5780   -7.9030 N.3   411  ASP411     -0.1225
     13  CA        -0.4480   14.4580   -8.7280 C.3   411  ASP411      0.1805
     14  C          1.0300   14.0870   -8.6060 C.2   411  ASP411      0.2598
     15  O          1.8630   14.8620   -8.1360 O.2   411  ASP411     -0.2718
     16  CB        -0.9150   14.5890  -10.1960 C.3   411  ASP411      0.1424
     17  CG         0.0370   15.3720  -11.0440 C.2   411  ASP411      0.3668
     18  OD1        0.2170   16.5700  -10.7880 O.co2 411  ASP411     -0.2456
     19  OD2        0.6170   14.7860  -11.9690 O.co2 411  ASP411     -0.2456
     20  N          1.3250   12.8670   -9.0170 N.am  412  LEU412     -0.1966
     21  CA         2.6480   12.2910   -8.8630 C.3   412  LEU412      0.1728
     22  C          3.5690   12.7830   -9.9600 C.2   412  LEU412      0.2617
     23  O          3.1890   12.8130  -11.1340 O.2   412  LEU412     -0.2715
     24  CB         2.5360   10.7600   -8.8510 C.3   412  LEU412      0.0311
     25  CG         1.8970   10.2610   -7.5400 C.3   412  LEU412      0.0022
     26  CD1        1.0350    9.0150   -7.7110 C.3   412  LEU412      0.0001
     27  CD2        2.9730   10.0450   -6.4770 C.3   412  LEU412      0.0001
     28  N          4.7740   13.1870   -9.5700 N.am  413  THR413     -0.1937
     29  CA         5.7980   13.5980  -10.5220 C.3   413  THR413      0.2028
     30  C          6.2120   12.4210  -11.3960 C.2   413  THR413      0.2643
     31  O          6.5920   11.3680  -10.8800 O.2   413  THR413     -0.2714
     32  CB         7.0440   14.1580   -9.7860 C.3   413  THR413      0.1808
     33  OG1        6.6640   15.3070   -9.0220 O.3   413  THR413     -0.2208
     34  CG2        8.1530   14.5380  -10.7660 C.3   413  THR413      0.0379
     35  N          6.1060   12.6040  -12.7140 N.am  414  SER414     -0.1935
     36  CA         6.6420   11.6600  -13.6850 C.3   414  SER414      0.2055
     37  C          6.3980   10.2100  -13.2360 C.2   414  SER414      0.2643
     38  O          7.3470    9.4610  -12.9690 O.2   414  SER414     -0.2714
     39  CB         8.1400   11.9490  -13.8720 C.3   414  SER414      0.2130
     40  OG         8.7160   11.1290  -14.8630 O.3   414  SER414     -0.2179
     41  N          5.1280    9.8200  -13.1380 N.am  415  LEU415     -0.1963
     42  CA         4.7860    8.6090  -12.3860 C.3   415  LEU415      0.1728
     43  C          5.4400    7.3230  -12.8780 C.2   415  LEU415      0.2616
     44  O          6.1010    6.6490  -12.1040 O.2   415  LEU415     -0.2715
     45  CB         3.2720    8.4120  -12.2230 C.3   415  LEU415      0.0311
     46  CG         2.9730    7.1120  -11.4530 C.3   415  LEU415      0.0022
     47  CD1        3.3830    7.2360   -9.9800 C.3   415  LEU415      0.0001
     48  CD2        1.5200    6.6780  -11.5740 C.3   415  LEU415      0.0001
     49  N          5.2550    6.9750  -14.1490 N.am  416  TYR416     -0.1974
     50  CA         5.7100    5.6660  -14.6170 C.3   416  TYR416      0.1639
     51  C          7.2430    5.5130  -14.5820 C.2   416  TYR416      0.2290
     52  O          7.7280    4.4740  -14.1410 O.2   416  TYR416     -0.2864
     53  CB         5.1070    5.3020  -15.9800 C.3   416  TYR416      0.0560
     54  CG         3.6730    4.7550  -15.9160 C.ar  416  TYR416     -0.0198
     55  CD1        2.8950    4.8630  -14.7560 C.ar  416  TYR416     -0.0009
     56  CD2        3.0950    4.1480  -17.0310 C.ar  416  TYR416     -0.0009
     57  CE1        1.5810    4.3790  -14.7190 C.ar  416  TYR416      0.0417
     58  CE2        1.7950    3.6580  -16.9990 C.ar  416  TYR416      0.0417
     59  CZ         1.0380    3.7740  -15.8440 C.ar  416  TYR416      0.1957
     60  OH        -0.2630    3.2810  -15.8320 O.3   416  TYR416     -0.2866
     61  N         14.7120   16.3860  -18.3690 N.3   482  ARG482     -0.1245
     62  CA        13.3160   16.8260  -18.4360 C.3   482  ARG482      0.1563
     63  C         12.9880   17.7720  -17.2870 C.2   482  ARG482      0.2260
     64  O         12.3320   18.7900  -17.4930 O.2   482  ARG482     -0.2867
     65  CB        12.3590   15.6240  -18.4250 C.3   482  ARG482      0.0307
     66  CG        10.8780   15.9640  -18.6180 C.3   482  ARG482      0.0489
     67  CD        10.1340   16.1700  -17.3060 C.3   482  ARG482      0.2205
     68  NE         8.7720   16.6520  -17.5430 N.pl3 482  ARG482     -0.0865
     69  CZ         7.7260   16.4020  -16.7610 C.cat 482  ARG482      0.5346
     70  NH1        7.8600   15.6680  -15.6540 N.pl3 482  ARG482      0.1354
     71  NH2        6.5340   16.8950  -17.0870 N.pl3 482  ARG482      0.1354
     72  N         11.6040   21.6570  -17.4940 N.3   486  LYS486     -0.1245
     73  CA        10.3010   21.9850  -16.9250 C.3   486  LYS486      0.1561
     74  C         10.4220   23.1280  -15.9170 C.2   486  LYS486      0.2260
     75  O          9.5430   23.9940  -15.8510 O.2   486  LYS486     -0.2867
     76  CB         9.6100   20.7640  -16.3020 C.3   486  LYS486      0.0271
     77  CG         8.2110   21.1090  -15.8000 C.3   486  LYS486      0.0035
     78  CD         7.4370   19.9360  -15.2380 C.3   486  LYS486      0.0206
     79  CE         6.0620   20.4030  -14.7740 C.3   486  LYS486      0.1093
     80  NZ         5.3840   19.3880  -13.9160 N.3   486  LYS486     -0.1314
     81  N          9.5970   14.0930  -21.4860 N.3   560  LYS560     -0.1231
     82  CA         8.5370   13.3730  -20.7770 C.3   560  LYS560      0.1693
     83  C          7.9440   12.2560  -21.6680 C.2   560  LYS560      0.2591
     84  O          7.7600   11.1150  -21.2140 O.2   560  LYS560     -0.2718
     85  CB         7.4360   14.3430  -20.2880 C.3   560  LYS560      0.0285
     86  CG         6.1690   13.6340  -19.8360 C.3   560  LYS560      0.0035
     87  CD         5.0110   14.5810  -19.5830 C.3   560  LYS560      0.0206
     88  CE         3.7670   13.7630  -19.2870 C.3   560  LYS560      0.1093
     89  NZ         2.5700   14.6120  -19.0690 N.3   560  LYS560     -0.1314
     90  N          7.6630   12.5820  -22.9340 N.am  561  ALA561     -0.1980
     91  CA         7.1650   11.5920  -23.8890 C.3   561  ALA561      0.1597
     92  C          8.1580   10.4400  -24.1040 C.2   561  ALA561      0.2287
     93  O          7.7510    9.2820  -24.1850 O.2   561  ALA561     -0.2864
     94  CB         6.8180   12.2460  -25.2170 C.3   561  ALA561      0.0319
     95  N          8.1900    8.2140  -20.7720 N.3   564  ASN564     -0.1225
     96  CA         6.9200    7.4770  -20.7210 C.3   564  ASN564      0.1785
     97  C          6.8490    6.4440  -21.8320 C.2   564  ASN564      0.2597
     98  O          6.2730    5.3680  -21.6520 O.2   564  ASN564     -0.2718
     99  CB         5.7080    8.4160  -20.7760 C.3   564  ASN564      0.1169
    100  CG         5.5030    9.1700  -19.4780 C.2   564  ASN564      0.2627
    101  OD1        6.0960    8.8250  -18.4490 O.2   564  ASN564     -0.2716
    102  ND2        4.6640   10.2030  -19.5120 N.am  564  ASN564     -0.0877
    103  N          7.4530    6.7850  -22.9730 N.am  565  GLY565     -0.1957
    104  CA         7.5930    5.8700  -24.1070 C.3   565  GLY565      0.1869
    105  C          8.3450    4.5850  -23.7700 C.2   565  GLY565      0.2309
    106  O          8.0300    3.5190  -24.3190 O.2   565  GLY565     -0.2863
    107  N          8.3380    3.1080  -20.7220 N.3   567  ALA567     -0.1231
    108  CA         7.3670    2.3250  -19.9530 C.3   567  ALA567      0.1694
    109  C          6.3620    1.6270  -20.8800 C.2   567  ALA567      0.2592
    110  O          6.0510    0.4470  -20.6870 O.2   567  ALA567     -0.2718
    111  CB         6.6530    3.2010  -18.9250 C.3   567  ALA567      0.0304
    112  N          5.8780    2.3590  -21.8850 N.am  568  GLY568     -0.1957
    113  CA         5.0150    1.7990  -22.9340 C.3   568  GLY568      0.1869
    114  C          5.6970    0.7580  -23.8100 C.2   568  GLY568      0.2309
    115  O          5.0910   -0.2780  -24.1640 O.2   568  GLY568     -0.2863
    116  N         -5.2300    7.7570  -12.8990 N.3   622  THR622     -0.1203
    117  CA        -3.8560    7.2700  -13.0700 C.3   622  THR622      0.1994
    118  C         -2.8850    7.5960  -11.9190 C.2   622  THR622      0.2617
    119  O         -2.3260    6.6810  -11.3080 O.2   622  THR622     -0.2717
    120  CB        -3.2510    7.6740  -14.4380 C.3   622  THR622      0.1784
    121  OG1       -4.1630    7.3140  -15.4860 O.3   622  THR622     -0.2211
    122  CG2       -1.9100    6.9790  -14.6660 C.3   622  THR622      0.0376
    123  N         -2.6880    8.8820  -11.6390 N.am  623  ASP623     -0.1973
    124  CA        -1.7050    9.3270  -10.6450 C.3   623  ASP623      0.1709
    125  C         -2.1210   10.6190   -9.9380 C.2   623  ASP623      0.2293
    126  O         -1.3010   11.2660   -9.2790 O.2   623  ASP623     -0.2864
    127  CB        -0.3490    9.5560  -11.3270 C.3   623  ASP623      0.1436
    128  CG        -0.3430   10.7850  -12.2210 C.2   623  ASP623      0.3671
    129  OD1       -1.4120   11.1520  -12.7590 O.co2 623  ASP623     -0.2456
    130  OD2        0.7420   11.3910  -12.3930 O.co2 623  ASP623     -0.2456
    131  N         -1.4000   20.3520   -7.3730 N.3   686  GLU686     -0.1245
    132  CA        -1.4590   20.8510   -8.7270 C.3   686  GLU686      0.1567
    133  C         -2.3470   22.0990   -8.7890 C.2   686  GLU686      0.2260
    134  O         -1.8340   23.2230   -8.7890 O.2   686  GLU686     -0.2867
    135  CB        -1.9290   19.7460   -9.6720 C.3   686  GLU686      0.0388
    136  CG        -1.6670   20.0250  -11.1410 C.3   686  GLU686      0.1160
    137  CD        -1.6030   18.7570  -11.9650 C.2   686  GLU686      0.3649
    138  OE1       -0.5540   18.5150  -12.5990 O.co2 686  GLU686     -0.2457
    139  OE2       -2.5950   17.9930  -11.9630 O.co2 686  GLU686     -0.2457
@<TRIPOS>BOND
     1     1     2    1
     2     3     2    1
     3     3     4    2
     4     2     5    1
     5     5     6    1
     6     8     6   ar
     7     8    10   ar
     8     6     7   ar
     9    10    11   ar
    10     7     9   ar
    11    11     9   ar
    12    94    91    1
    13   106   105    2
    14    93    92    2
    15   115   114    2
    16   104   105    1
    17   104   103    1
    18    92    91    1
    19    91    90    1
    20   114   113    1
    21   103    97   am
    22    90    83   am
    23   113   112    1
    24   112   109   am
    25    97    98    2
    26    97    96    1
    27    83    84    2
    28    83    82    1
    29    81    82    1
    30   109   110    2
    31   109   108    1
    32    82    85    1
    33    99    96    1
    34    99   100    1
    35    95    96    1
    36   107   108    1
    37    85    86    1
    38   108   111    1
    39    86    87    1
    40    87    88    1
    41   102   100   am
    42   100   101    2
    43    88    89    1
    44    66    65    1
    45    66    67    1
    46    62    65    1
    47    62    61    1
    48    62    63    1
    49    68    67    1
    50    68    69    2
    51    72    73    1
    52    64    63    2
    53    71    69    1
    54    56    58   ar
    55    56    54   ar
    56    58    59   ar
    57    73    76    1
    58    73    74    1
    59    69    70    1
    60    76    77    1
    61    53    54    1
    62    53    50    1
    63    74    75    2
    64    54    55   ar
    65    59    60    1
    66    59    57   ar
    67    77    78    1
    68   121   120    1
    69    78    79    1
    70    40    39    1
    71    79    80    1
    72    55    57   ar
    73   122   120    1
    74    50    51    1
    75    50    49    1
    76    51    52    2
    77   120   117    1
    78    49    43   am
    79    39    36    1
    80    36    37    1
    81    36    35    1
    82    37    41   am
    83    37    38    2
    84    41    42    1
    85   117   116    1
    86   117   118    1
    87    43    42    1
    88    43    44    2
    89   129   128   ar
    90    35    30   am
    91   138   137   ar
    92   130   128   ar
    93    42    45    1
    94    45    46    1
    95   128   127    1
    96    19    17   ar
    97   137   139   ar
    98   137   136    1
    99   118   123   am
   100   118   119    2
   101   123   124    1
   102    48    46    1
   103    46    47    1
   104    30    31    2
   105    30    29    1
   106   127   124    1
   107   136   135    1
   108    23    22    2
   109    17    18   ar
   110    17    16    1
   111    34    32    1
   112   124   125    1
   113    29    32    1
   114    29    28    1
   115    16    13    1
   116    22    28   am
   117    22    21    1
   118   125   126    2
   119    32    33    1
   120   135   132    1
   121    20    21    1
   122    20    14   am
   123    21    24    1
   124    24    25    1
   125   133   134    2
   126   133   132    1
   127    13    14    1
   128    13    12    1
   129   132   131    1
   130    14    15    2
   131    26    25    1
   132    25    27    1
