@<TRIPOS>MOLECULE
tmp/4dttA01.pdb
 114 108 0 0 0
SMALL
GASTEIGER

@<TRIPOS>ATOM
      1  N        109.2490  -78.3140  -11.8160 N.3   290  HIS290     -0.1241
      2  CA       109.8830  -77.4170  -10.8630 C.3   290  HIS290      0.1621
      3  C        111.1710  -76.8090  -11.4300 C.2   290  HIS290      0.2264
      4  O        111.3690  -75.5930  -11.3510 O.2   290  HIS290     -0.2867
      5  CB       110.1480  -78.1300   -9.5270 C.3   290  HIS290      0.0745
      6  CG       110.7170  -77.2350   -8.4470 C.ar  290  HIS290      0.0817
      7  ND1      111.6030  -77.6940   -7.4820 N.ar  290  HIS290     -0.2268
      8  CD2      110.5250  -75.9130   -8.1770 C.ar  290  HIS290      0.1154
      9  CE1      111.9280  -76.6990   -6.6660 C.ar  290  HIS290      0.1986
     10  NE2      111.2900  -75.6090   -7.0680 N.ar  290  HIS290     -0.2212
     11  N        110.5570  -74.4380  -13.9960 N.3   293  GLY293     -0.1210
     12  CA       109.8720  -73.3970  -13.2460 C.3   293  GLY293      0.1956
     13  C        110.9090  -72.5310  -12.5540 C.2   293  GLY293      0.2611
     14  O        110.9010  -71.3010  -12.6710 O.2   293  GLY293     -0.2717
     15  N        111.8380  -73.1780  -11.8710 N.am  294  HIS294     -0.1975
     16  CA       112.8440  -72.4660  -11.1340 C.3   294  HIS294      0.1656
     17  C        113.6460  -71.5450  -12.0220 C.2   294  HIS294      0.2291
     18  O        113.9470  -70.4190  -11.6240 O.2   294  HIS294     -0.2864
     19  CB       113.7600  -73.4530  -10.4430 C.3   294  HIS294      0.0771
     20  CG       115.0440  -72.8590   -9.9570 C.ar  294  HIS294      0.0820
     21  ND1      115.1020  -71.9680   -8.9070 N.ar  294  HIS294     -0.2267
     22  CD2      116.3220  -73.0510  -10.3630 C.ar  294  HIS294      0.1154
     23  CE1      116.3620  -71.6400   -8.6890 C.ar  294  HIS294      0.1986
     24  NE2      117.1210  -72.2870   -9.5540 N.ar  294  HIS294     -0.2212
     25  N        111.1520  -68.7520  -14.0080 N.3   297  GLY297     -0.1225
     26  CA       110.6780  -67.8440  -12.9770 C.3   297  GLY297      0.1811
     27  C        111.7670  -67.0120  -12.3150 C.2   297  GLY297      0.2280
     28  O        111.4740  -66.0600  -11.5790 O.2   297  GLY297     -0.2866
     29  N        114.6270  -64.5990  -11.0710 N.3   299  GLU299     -0.1245
     30  CA       114.6770  -63.1510  -11.0290 C.3   299  GLU299      0.1567
     31  C        116.1180  -62.5890  -10.8770 C.2   299  GLU299      0.2260
     32  O        116.3070  -61.3890  -10.8360 O.2   299  GLU299     -0.2867
     33  CB       113.7410  -62.6550   -9.9040 C.3   299  GLU299      0.0388
     34  CG       112.3200  -62.4590  -10.3940 C.3   299  GLU299      0.1160
     35  CD       111.2510  -62.5530   -9.3210 C.2   299  GLU299      0.3649
     36  OE1      111.3020  -61.7570   -8.3530 O.co2 299  GLU299     -0.2457
     37  OE2      110.3390  -63.4100   -9.4810 O.co2 299  GLU299     -0.2457
     38  N        107.1620  -61.1180  -12.7290 N.3   317  LEU317     -0.1231
     39  CA       106.8990  -62.2450  -13.6350 C.3   317  LEU317      0.1693
     40  C        106.6960  -63.5030  -12.8360 C.2   317  LEU317      0.2592
     41  O        107.2690  -63.6460  -11.7900 O.2   317  LEU317     -0.2718
     42  CB       108.0700  -62.4460  -14.5890 C.3   317  LEU317      0.0284
     43  CG       108.0820  -63.6460  -15.5230 C.3   317  LEU317      0.0019
     44  CD1      108.8730  -63.3300  -16.7790 C.3   317  LEU317      0.0001
     45  CD2      108.6490  -64.8680  -14.8160 C.3   317  LEU317      0.0001
     46  N        105.9090  -64.4340  -13.3330 N.am  318  VAL318     -0.1966
     47  CA       105.6910  -65.6870  -12.6370 C.3   318  VAL318      0.1727
     48  C        105.6740  -66.8150  -13.6410 C.2   318  VAL318      0.2617
     49  O        104.9410  -66.7590  -14.6300 O.2   318  VAL318     -0.2715
     50  CB       104.3390  -65.6700  -11.9440 C.3   318  VAL318      0.0290
     51  CG1      103.9310  -67.0490  -11.5600 C.3   318  VAL318      0.0023
     52  CG2      104.3790  -64.7620  -10.7300 C.3   318  VAL318      0.0023
     53  N        106.4590  -67.8530  -13.4130 N.am  319  GLY319     -0.1940
     54  CA       106.4730  -68.9490  -14.3870 C.3   319  GLY319      0.2014
     55  C        106.5090  -70.2810  -13.7060 C.2   319  GLY319      0.2639
     56  O        107.0000  -70.3850  -12.6000 O.2   319  GLY319     -0.2714
     57  N        105.9860  -71.3080  -14.3430 N.am  320  GLY320     -0.1939
     58  CA       106.1560  -72.6350  -13.7740 C.3   320  GLY320      0.2014
     59  C        105.0070  -73.5450  -14.0800 C.2   320  GLY320      0.2639
     60  O        104.1180  -73.1790  -14.8510 O.2   320  GLY320     -0.2714
     61  N        105.0190  -74.7310  -13.4780 N.am  321  GLN321     -0.1963
     62  CA       103.9490  -75.6760  -13.7700 C.3   321  GLN321      0.1733
     63  C        102.6820  -75.2550  -13.0200 C.2   321  GLN321      0.2616
     64  O        102.7790  -74.6140  -11.9780 O.2   321  GLN321     -0.2715
     65  CB       104.3680  -77.1340  -13.5070 C.3   321  GLN321      0.0408
     66  CG       104.6380  -77.4740  -12.0680 C.3   321  GLN321      0.0908
     67  CD       104.9880  -78.9340  -11.8480 C.2   321  GLN321      0.2608
     68  OE1      105.4370  -79.6380  -12.7530 O.2   321  GLN321     -0.2717
     69  NE2      104.8190  -79.3840  -10.6190 N.am  321  GLN321     -0.0878
     70  N        101.5140  -75.5750  -13.5700 N.am  322  LYS322     -0.1977
     71  CA       100.2560  -75.1730  -12.9800 C.3   322  LYS322      0.1596
     72  C         99.3480  -76.3830  -12.8860 C.2   322  LYS322      0.2287
     73  O         99.1150  -77.0350  -13.8830 O.2   322  LYS322     -0.2864
     74  CB        99.6170  -74.1070  -13.8410 C.3   322  LYS322      0.0298
     75  CG        98.3240  -73.5830  -13.2890 C.3   322  LYS322      0.0038
     76  CD        97.9030  -72.3380  -14.0330 C.3   322  LYS322      0.0206
     77  CE        96.4130  -72.3480  -14.3120 C.3   322  LYS322      0.1093
     78  NZ        96.1930  -71.8940  -15.7230 N.3   322  LYS322     -0.1314
     79  N        102.9570  -72.1790  -17.2980 N.3   332  ILE332     -0.1245
     80  CA       102.5730  -70.7960  -17.5110 C.3   332  ILE332      0.1561
     81  C        103.7260  -69.8290  -17.3140 C.2   332  ILE332      0.2260
     82  O        104.7260  -70.1230  -16.6290 O.2   332  ILE332     -0.2867
     83  CB       101.3130  -70.3850  -16.6860 C.3   332  ILE332      0.0252
     84  CG1      101.5530  -70.5420  -15.1940 C.3   332  ILE332      0.0019
     85  CG2      100.1040  -71.2500  -17.0400 C.3   332  ILE332      0.0019
     86  CD1      102.2580  -69.3980  -14.5910 C.3   332  ILE332      0.0001
     87  N        103.5180  -65.5890  -16.7050 N.3   334  ASN334     -0.1240
     88  CA       102.6040  -64.4630  -16.6000 C.3   334  ASN334      0.1653
     89  C        103.3720  -63.2610  -16.1550 C.2   334  ASN334      0.2266
     90  O        104.2150  -63.3520  -15.2860 O.2   334  ASN334     -0.2867
     91  CB       101.4660  -64.7420  -15.6080 C.3   334  ASN334      0.1155
     92  CG       100.6950  -66.0290  -15.9290 C.2   334  ASN334      0.2627
     93  OD1      100.6620  -66.5030  -17.0770 O.2   334  ASN334     -0.2716
     94  ND2      100.0590  -66.5920  -14.9130 N.am  334  ASN334     -0.0877
     95  N        116.5290  -61.9980   -4.2510 N.3   567  TYR567     -0.1241
     96  CA       115.7980  -63.1600   -4.7110 C.3   567  TYR567      0.1605
     97  C        116.6500  -64.4070   -4.5030 C.2   567  TYR567      0.2264
     98  O        116.1570  -65.4140   -3.9580 O.2   567  TYR567     -0.2867
     99  CB       115.4150  -63.0000   -6.1650 C.3   567  TYR567      0.0534
    100  CG       114.7120  -64.1970   -6.7300 C.ar  567  TYR567     -0.0201
    101  CD1      113.3150  -64.2970   -6.7000 C.ar  567  TYR567     -0.0009
    102  CD2      115.4520  -65.2260   -7.2910 C.ar  567  TYR567     -0.0009
    103  CE1      112.6810  -65.3760   -7.2020 C.ar  567  TYR567      0.0417
    104  CE2      114.8430  -66.3060   -7.8010 C.ar  567  TYR567      0.0417
    105  CZ       113.4440  -66.4020   -7.7650 C.ar  567  TYR567      0.1957
    106  OH       112.8590  -67.5620   -8.3080 O.3   567  TYR567     -0.2866
    107  N        115.0000  -67.7160   -2.1380 N.3   571  LEU571     -0.1245
    108  CA       115.2300  -69.1300   -2.3980 C.3   571  LEU571      0.1561
    109  C        116.0720  -69.8450   -1.3580 C.2   571  LEU571      0.2260
    110  O        115.8350  -71.0000   -1.1300 O.2   571  LEU571     -0.2867
    111  CB       115.8830  -69.3030   -3.7560 C.3   571  LEU571      0.0270
    112  CG       114.9800  -68.7370   -4.8290 C.3   571  LEU571      0.0019
    113  CD1      115.4630  -69.2010   -6.1290 C.3   571  LEU571      0.0001
    114  CD2      113.5580  -69.2090   -4.6080 C.3   571  LEU571      0.0001
@<TRIPOS>BOND
     1    80    81    1
     2    80    79    1
     3    80    83    1
     4    81    82    2
     5    93    92    2
     6    85    83    1
     7    44    43    1
     8    87    88    1
     9    83    84    1
    10    88    89    1
    11    88    91    1
    12    89    90    2
    13    92    91    1
    14    92    94   am
    15    78    77    1
    16    43    45    1
    17    43    42    1
    18    84    86    1
    19    60    59    2
    20    49    48    2
    21    42    39    1
    22    54    55    1
    23    54    53    1
    24    57    58    1
    25    57    55   am
    26    77    76    1
    27    59    58    1
    28    59    61   am
    29    76    75    1
    30    25    26    1
    31    11    12    1
    32    73    72    2
    33    74    75    1
    34    74    71    1
    35    62    65    1
    36    62    61    1
    37    62    63    1
    38    55    56    2
    39    48    53   am
    40    48    47    1
    41    39    40    1
    42    39    38    1
    43    70    63   am
    44    70    71    1
    45    65    66    1
    46    46    40   am
    47    46    47    1
    48    12    13    1
    49    63    64    2
    50    71    72    1
    51    26    27    1
    52    40    41    2
    53    68    67    2
    54    14    13    2
    55    47    50    1
    56    13    15   am
    57    27    28    2
    58    66    67    1
    59    17    18    2
    60    17    16    1
    61    50    51    1
    62    50    52    1
    63    15    16    1
    64    67    69   am
    65     1     2    1
    66     3     4    2
    67     3     2    1
    68    16    19    1
    69    29    30    1
    70    30    31    1
    71    30    33    1
    72    31    32    2
    73     2     5    1
    74    19    20    1
    75    34    33    1
    76    34    35    1
    77    22    20   ar
    78    22    24   ar
    79    20    21   ar
    80    24    23   ar
    81     5     6    1
    82    37    35   ar
    83    35    36   ar
    84    21    23   ar
    85     6     8   ar
    86     6     7   ar
    87   106   105    1
    88     8    10   ar
    89   104   105   ar
    90   104   102   ar
    91   105   103   ar
    92     7     9   ar
    93   102   100   ar
    94   103   101   ar
    95    10     9   ar
    96   100   101   ar
    97   100    99    1
    98    99    96    1
    99   113   112    1
   100   112   114    1
   101   112   111    1
   102    96    97    1
   103    96    95    1
   104    97    98    2
   105   111   108    1
   106   108   107    1
   107   108   109    1
   108   109   110    2
