@<TRIPOS>MOLECULE
tmp/4dttA00.pdb
 191 189 0 0 0
SMALL
GASTEIGER

@<TRIPOS>ATOM
      1  N         80.2730  -78.6940   -4.7480 N.3    66  HIS66      -0.1241
      2  CA        80.5120  -77.5630   -3.8660 C.3    66  HIS66       0.1621
      3  C         79.3140  -77.3560   -2.9080 C.2    66  HIS66       0.2264
      4  O         79.5140  -77.2080   -1.7020 O.2    66  HIS66      -0.2867
      5  CB        80.8600  -76.2840   -4.6320 C.3    66  HIS66       0.0745
      6  CG        80.8450  -75.0430   -3.7830 C.ar   66  HIS66       0.0817
      7  ND1       80.1890  -73.8900   -4.1610 N.ar   66  HIS66      -0.2268
      8  CD2       81.3930  -74.7760   -2.5690 C.ar   66  HIS66       0.1154
      9  CE1       80.3320  -72.9670   -3.2200 C.ar   66  HIS66       0.1986
     10  NE2       81.0590  -73.4770   -2.2420 N.ar   66  HIS66      -0.2212
     11  N         79.0000  -79.8240   -0.2200 N.3    69  GLU69      -0.1231
     12  CA        80.0200  -79.5180    0.7820 C.3    69  GLU69       0.1699
     13  C         79.4320  -78.5800    1.8360 C.2    69  GLU69       0.2592
     14  O         79.6280  -78.7740    3.0300 O.2    69  GLU69      -0.2718
     15  CB        81.2570  -78.8880    0.1070 C.3    69  GLU69       0.0402
     16  CG        82.3930  -78.4620    1.0380 C.3    69  GLU69       0.1161
     17  CD        82.7870  -76.9970    0.8760 C.2    69  GLU69       0.3649
     18  OE1       82.2940  -76.1550    1.6520 O.co2  69  GLU69      -0.2457
     19  OE2       83.5850  -76.6750   -0.0240 O.co2  69  GLU69      -0.2457
     20  N         78.7110  -77.5620    1.3860 N.am   70  HIS70      -0.1976
     21  CA        78.0660  -76.6570    2.3050 C.3    70  HIS70       0.1656
     22  C         77.0700  -77.3460    3.2320 C.2    70  HIS70       0.2291
     23  O         76.9220  -76.9290    4.3780 O.2    70  HIS70      -0.2864
     24  CB        77.3670  -75.5310    1.5560 C.3    70  HIS70       0.0771
     25  CG        78.2160  -74.3180    1.3590 C.ar   70  HIS70       0.0820
     26  ND1       78.1760  -73.2360    2.2100 N.ar   70  HIS70      -0.2267
     27  CD2       79.1200  -74.0060    0.3990 C.ar   70  HIS70       0.1154
     28  CE1       79.0190  -72.3100    1.7830 C.ar   70  HIS70       0.1986
     29  NE2       79.6000  -72.7480    0.6810 N.ar   70  HIS70      -0.2212
     30  N         77.5700  -79.8600    6.8650 N.3    73  PHE73      -0.1241
     31  CA        77.6470  -79.1950    8.1600 C.3    73  PHE73       0.1605
     32  C         76.2650  -79.0310    8.8520 C.2    73  PHE73       0.2264
     33  O         76.1580  -79.0260   10.0890 O.2    73  PHE73      -0.2867
     34  CB        78.3080  -77.8360    7.9990 C.3    73  PHE73       0.0534
     35  CG        79.7730  -77.8930    7.6680 C.ar   73  PHE73      -0.0203
     36  CD1       80.2060  -78.1440    6.3780 C.ar   73  PHE73      -0.0042
     37  CD2       80.7210  -77.6230    8.6320 C.ar   73  PHE73      -0.0042
     38  CE1       81.5460  -78.1620    6.0690 C.ar   73  PHE73      -0.0003
     39  CE2       82.0590  -77.6440    8.3240 C.ar   73  PHE73      -0.0003
     40  CZ        82.4670  -77.9190    7.0390 C.ar   73  PHE73      -0.0000
     41  N         87.3260  -74.7430   15.5830 N.3    95  SER95      -0.1202
     42  CA        86.8850  -74.0340   14.4010 C.3    95  SER95       0.2020
     43  C         86.8710  -75.0700   13.2730 C.2    95  SER95       0.2619
     44  O         87.4880  -76.1520   13.3860 O.2    95  SER95      -0.2717
     45  CB        87.8470  -72.8890   14.0800 C.3    95  SER95       0.2103
     46  OG        89.1560  -73.3750   13.7930 O.3    95  SER95      -0.2182
     47  N         86.1660  -74.7610   12.1890 N.am   96  SER96      -0.1937
     48  CA        86.0890  -75.7040   11.0820 C.3    96  SER96       0.2055
     49  C         85.9040  -75.0830    9.7070 C.2    96  SER96       0.2643
     50  O         85.5390  -73.9190    9.6000 O.2    96  SER96      -0.2714
     51  CB        84.9600  -76.6700   11.3160 C.3    96  SER96       0.2130
     52  OG        85.0980  -77.7230   10.3890 O.3    96  SER96      -0.2179
     53  N         86.1430  -75.8700    8.6570 N.am   97  ASN97      -0.1957
     54  CA        85.9380  -75.4290    7.2720 C.3    97  ASN97       0.1819
     55  C         86.1220  -76.5140    6.2450 C.2    97  ASN97       0.2621
     56  O         86.6430  -77.5990    6.5240 O.2    97  ASN97      -0.2715
     57  CB        86.9140  -74.3330    6.9080 C.3    97  ASN97       0.1195
     58  CG        86.2510  -73.1600    6.2950 C.2    97  ASN97       0.2630
     59  OD1       85.3520  -73.2690    5.4630 O.2    97  ASN97      -0.2716
     60  ND2       86.6840  -72.0000    6.7150 N.am   97  ASN97      -0.0877
     61  N         85.7460  -76.1750    5.0280 N.am   98  ALA98      -0.1963
     62  CA        85.8280  -77.0920    3.9200 C.3    98  ALA98       0.1728
     63  C         86.1400  -76.3070    2.6630 C.2    98  ALA98       0.2616
     64  O         85.7680  -75.1440    2.5690 O.2    98  ALA98      -0.2715
     65  CB        84.5130  -77.7890    3.7700 C.3    98  ALA98       0.0334
     66  N         86.8180  -76.9230    1.7020 N.am   99  PHE99      -0.1974
     67  CA        86.9180  -76.3340    0.3690 C.3    99  PHE99       0.1639
     68  C         86.5910  -77.3850   -0.6980 C.2    99  PHE99       0.2290
     69  O         86.5660  -78.6010   -0.4130 O.2    99  PHE99      -0.2864
     70  CB        88.3030  -75.6880    0.1360 C.3    99  PHE99       0.0560
     71  CG        89.4460  -76.6670    0.1560 C.ar   99  PHE99      -0.0200
     72  CD1       90.1690  -76.8850    1.3130 C.ar   99  PHE99      -0.0042
     73  CD2       89.7820  -77.3840   -0.9730 C.ar   99  PHE99      -0.0042
     74  CE1       91.2090  -77.8170    1.3490 C.ar   99  PHE99      -0.0003
     75  CE2       90.8170  -78.3190   -0.9620 C.ar   99  PHE99      -0.0003
     76  CZ        91.5360  -78.5340    0.1980 C.ar   99  PHE99      -0.0000
     77  N         88.0790  -80.0450    7.2910 N.3   108  TYR108     -0.1241
     78  CA        88.9320  -80.0890    8.4560 C.3   108  TYR108      0.1605
     79  C         88.3030  -79.3520    9.5940 C.2   108  TYR108      0.2264
     80  O         87.4500  -78.4840    9.3630 O.2   108  TYR108     -0.2867
     81  CB        90.2290  -79.4360    8.1220 C.3   108  TYR108      0.0534
     82  CG        90.0930  -78.1550    7.3630 C.ar  108  TYR108     -0.0201
     83  CD1       90.0620  -76.9510    8.0220 C.ar  108  TYR108     -0.0009
     84  CD2       90.0670  -78.1490    5.9770 C.ar  108  TYR108     -0.0009
     85  CE1       89.9970  -75.7610    7.3220 C.ar  108  TYR108      0.0417
     86  CE2       89.9910  -76.9730    5.2600 C.ar  108  TYR108      0.0417
     87  CZ        89.9510  -75.7730    5.9320 C.ar  108  TYR108      0.1957
     88  OH        89.8600  -74.5810    5.2340 O.3   108  TYR108     -0.2866
     89  N         78.4640  -66.2330   -2.0980 N.3   147  GLU147     -0.1245
     90  CA        79.8380  -66.5630   -2.3110 C.3   147  GLU147      0.1567
     91  C         80.1120  -66.3270   -3.7650 C.2   147  GLU147      0.2260
     92  O         81.0900  -65.7210   -4.0860 O.2   147  GLU147     -0.2867
     93  CB        80.0960  -68.0060   -1.9170 C.3   147  GLU147      0.0388
     94  CG        81.5460  -68.4320   -1.9380 C.3   147  GLU147      0.1160
     95  CD        81.7370  -69.9000   -1.5670 C.2   147  GLU147      0.3649
     96  OE1       80.8460  -70.5410   -0.9420 O.co2 147  GLU147     -0.2457
     97  OE2       82.8080  -70.4280   -1.9050 O.co2 147  GLU147     -0.2457
     98  N         80.0280  -62.2920   -4.3890 N.3   150  LYS150     -0.1245
     99  CA        81.3520  -61.8610   -3.9670 C.3   150  LYS150      0.1561
    100  C         82.4000  -62.0110   -5.0730 C.2   150  LYS150      0.2260
    101  O         83.1670  -61.0850   -5.2990 O.2   150  LYS150     -0.2867
    102  CB        81.7660  -62.6700   -2.7310 C.3   150  LYS150      0.0271
    103  CG        83.2190  -62.6060   -2.3280 C.3   150  LYS150      0.0035
    104  CD        83.4890  -63.5070   -1.1260 C.3   150  LYS150      0.0206
    105  CE        84.0050  -64.9130   -1.5280 C.3   150  LYS150      0.1093
    106  NZ        85.5010  -65.0230   -1.5320 N.3   150  LYS150     -0.1314
    107  N         89.0820  -64.4530  -10.2220 N.3   157  TRP157     -0.1241
    108  CA        88.0450  -65.4250  -10.5560 C.3   157  TRP157      0.1605
    109  C         87.5770  -65.3950  -12.0280 C.2   157  TRP157      0.2264
    110  O         87.3050  -66.4510  -12.6430 O.2   157  TRP157     -0.2867
    111  CB        86.8580  -65.2760   -9.6080 C.3   157  TRP157      0.0550
    112  CG        87.1380  -65.8600   -8.2560 C.ar  157  TRP157      0.0003
    113  CD1       87.6200  -65.2090   -7.1700 C.ar  157  TRP157      0.0946
    114  CD2       86.9820  -67.2230   -7.8560 C.ar  157  TRP157      0.0152
    115  NE1       87.7660  -66.0690   -6.1180 N.ar  157  TRP157     -0.2442
    116  CE2       87.3760  -67.3130   -6.5150 C.ar  157  TRP157      0.0810
    117  CE3       86.5310  -68.3700   -8.4990 C.ar  157  TRP157      0.0012
    118  CZ2       87.3100  -68.4820   -5.8030 C.ar  157  TRP157      0.0191
    119  CZ3       86.4850  -69.5360   -7.7890 C.ar  157  TRP157      0.0001
    120  CH2       86.8690  -69.5840   -6.4500 C.ar  157  TRP157      0.0015
    121  N         95.1600  -77.7690   12.2430 N.3   389  ARG389     -0.1245
    122  CA        94.1300  -77.6950   11.2110 C.3   389  ARG389      0.1563
    123  C         94.7480  -77.7040    9.8180 C.2   389  ARG389      0.2260
    124  O         94.4650  -78.5870    9.0150 O.2   389  ARG389     -0.2867
    125  CB        93.3090  -76.4400   11.3980 C.3   389  ARG389      0.0307
    126  CG        91.8880  -76.5780   11.0120 C.3   389  ARG389      0.0489
    127  CD        91.1880  -75.3050   11.3970 C.3   389  ARG389      0.2205
    128  NE        91.1420  -74.3450   10.2970 N.pl3 389  ARG389     -0.0865
    129  CZ        90.3040  -73.3150   10.2610 C.cat 389  ARG389      0.5346
    130  NH1       90.2810  -72.4950    9.2180 N.pl3 389  ARG389      0.1354
    131  NH2       89.4670  -73.1270   11.2640 N.pl3 389  ARG389      0.1354
    132  N         76.9380  -65.7470   13.6930 N.3   778  PHE778     -0.1241
    133  CA        77.0240  -66.5710   12.4930 C.3   778  PHE778      0.1605
    134  C         75.7990  -67.4760   12.2770 C.2   778  PHE778      0.2264
    135  O         75.2140  -67.4940   11.1890 O.2   778  PHE778     -0.2867
    136  CB        78.3070  -67.4040   12.4840 C.3   778  PHE778      0.0534
    137  CG        78.4860  -68.1970   11.2290 C.ar  778  PHE778     -0.0203
    138  CD1       79.2860  -67.7290   10.2060 C.ar  778  PHE778     -0.0042
    139  CD2       77.8250  -69.4020   11.0430 C.ar  778  PHE778     -0.0042
    140  CE1       79.4350  -68.4700    9.0130 C.ar  778  PHE778     -0.0003
    141  CE2       77.9640  -70.1290    9.8570 C.ar  778  PHE778     -0.0003
    142  CZ        78.7710  -69.6660    8.8510 C.ar  778  PHE778     -0.0000
    143  N         73.6290  -65.7340    9.2230 N.3   782  ARG782     -0.1245
    144  CA        73.8300  -66.4310    7.9580 C.3   782  ARG782      0.1563
    145  C         72.9690  -67.7010    7.8790 C.2   782  ARG782      0.2260
    146  O         72.0210  -67.7500    7.0990 O.2   782  ARG782     -0.2867
    147  CB        75.3110  -66.6890    7.6690 C.3   782  ARG782      0.0307
    148  CG        75.5360  -67.5220    6.4380 C.3   782  ARG782      0.0489
    149  CD        76.9920  -67.5700    6.0760 C.3   782  ARG782      0.2205
    150  NE        77.3660  -68.8620    5.5020 N.pl3 782  ARG782     -0.0865
    151  CZ        78.5880  -69.1650    5.0690 C.cat 782  ARG782      0.5346
    152  NH1       79.5510  -68.2720    5.1350 N.pl3 782  ARG782      0.1354
    153  NH2       78.8540  -70.3550    4.5650 N.pl3 782  ARG782      0.1354
    154  N         76.9360  -64.1500    2.5980 N.3   789  TYR789     -0.1227
    155  CA        78.0370  -65.0820    2.8010 C.3   789  TYR789      0.1736
    156  C         78.9840  -64.5590    3.8640 C.2   789  TYR789      0.2595
    157  O         79.3870  -65.3150    4.7520 O.2   789  TYR789     -0.2718
    158  CB        78.8330  -65.2430    1.5230 C.3   789  TYR789      0.0548
    159  CG        79.9900  -66.2010    1.6430 C.ar  789  TYR789     -0.0200
    160  CD1       79.7470  -67.5530    1.8380 C.ar  789  TYR789     -0.0009
    161  CD2       81.3180  -65.7710    1.5360 C.ar  789  TYR789     -0.0009
    162  CE1       80.7750  -68.4640    1.9380 C.ar  789  TYR789      0.0417
    163  CE2       82.3770  -66.6900    1.6300 C.ar  789  TYR789      0.0417
    164  CZ        82.0750  -68.0390    1.8330 C.ar  789  TYR789      0.1957
    165  OH        83.0160  -69.0260    1.9170 O.3   789  TYR789     -0.2866
    166  N         79.3560  -63.2760    3.7490 N.am  790  ILE790     -0.1966
    167  CA        80.2520  -62.6600    4.7120 C.3   790  ILE790      0.1727
    168  C         79.4970  -62.1440    5.9490 C.2   790  ILE790      0.2616
    169  O         78.7150  -61.2060    5.8790 O.2   790  ILE790     -0.2715
    170  CB        81.1720  -61.6300    4.0380 C.3   790  ILE790      0.0290
    171  CG1       82.0960  -62.3920    3.0780 C.3   790  ILE790      0.0022
    172  CG2       81.9910  -60.8830    5.0830 C.3   790  ILE790      0.0023
    173  CD1       82.7240  -61.6250    1.9400 C.3   790  ILE790      0.0001
    174  N         79.7090  -62.8090    7.0780 N.am  791  VAL791     -0.1963
    175  CA        79.0780  -62.4490    8.3460 C.3   791  VAL791      0.1727
    176  C         80.0700  -62.6940    9.4540 C.2   791  VAL791      0.2616
    177  O         80.3900  -63.8570    9.7490 O.2   791  VAL791     -0.2715
    178  CB        77.8450  -63.2920    8.6150 C.3   791  VAL791      0.0290
    179  CG1       77.3890  -63.1530   10.0730 C.3   791  VAL791      0.0023
    180  CG2       76.7620  -62.8700    7.6820 C.3   791  VAL791      0.0023
    181  N         80.5320  -61.5910   10.0570 N.am  792  PHE792     -0.1974
    182  CA        81.6440  -61.5790   11.0120 C.3   792  PHE792      0.1639
    183  C         81.2640  -60.7890   12.2580 C.2   792  PHE792      0.2290
    184  O         80.7260  -59.6900   12.1660 O.2   792  PHE792     -0.2864
    185  CB        82.9190  -61.0000   10.3560 C.3   792  PHE792      0.0560
    186  CG        84.1350  -61.0610   11.2330 C.ar  792  PHE792     -0.0200
    187  CD1       84.7560  -62.3100   11.5120 C.ar  792  PHE792     -0.0042
    188  CD2       84.6540  -59.8830   11.8060 C.ar  792  PHE792     -0.0042
    189  CE1       85.9030  -62.3960   12.3640 C.ar  792  PHE792     -0.0003
    190  CE2       85.7800  -59.9250   12.6570 C.ar  792  PHE792     -0.0003
    191  CZ        86.4200  -61.1910   12.9450 C.ar  792  PHE792     -0.0000
@<TRIPOS>BOND
     1   110   109    2
     2   109   108    1
     3   108   107    1
     4   108   111    1
     5   111   112    1
     6   117   114   ar
     7   117   119   ar
     8   112   114   ar
     9   112   113   ar
    10   114   116   ar
    11   119   120   ar
    12   113   115   ar
    13   116   115   ar
    14   116   118   ar
    15   120   118   ar
    16   101   100    2
    17   100    99    1
    18     1     2    1
    19     5     2    1
    20     5     6    1
    21    98    99    1
    22     7     6   ar
    23     7     9   ar
    24    92    91    2
    25    99   102    1
    26     2     3    1
    27     6     8   ar
    28    91    90    1
    29     9    10   ar
    30     3     4    2
    31   102   103    1
    32     8    10   ar
    33   103   104    1
    34    90    89    1
    35    90    93    1
    36    94    93    1
    37    94    95    1
    38    97    95   ar
    39    95    96   ar
    40   106   105    1
    41   105   104    1
    42    73    75   ar
    43    73    71   ar
    44    75    76   ar
    45    68    69    2
    46    68    67    1
    47    11    12    1
    48    19    17   ar
    49    15    12    1
    50    15    16    1
    51    70    71    1
    52    70    67    1
    53    71    72   ar
    54    76    74   ar
    55    67    66    1
    56    27    29   ar
    57    27    25   ar
    58    29    28   ar
    59    12    13    1
    60    17    16    1
    61    17    18   ar
    62    72    74   ar
    63    25    24    1
    64    25    26   ar
    65    20    13   am
    66    20    21    1
    67   158   159    1
    68   158   155    1
    69   161   163   ar
    70   161   159   ar
    71    24    21    1
    72   163   164   ar
    73   159   160   ar
    74    66    63   am
    75    28    26   ar
    76   164   165    1
    77   164   162   ar
    78    13    14    2
    79   160   162   ar
    80   173   171    1
    81    21    22    1
    82    64    63    2
    83   154   155    1
    84    63    62    1
    85   155   156    1
    86   171   170    1
    87    22    23    2
    88   166   156   am
    89   166   167    1
    90    65    62    1
    91   156   157    2
    92    62    61    1
    93   170   167    1
    94   170   172    1
    95   153   151    1
    96   167   168    1
    97    61    55   am
    98   151   152    1
    99   151   150    2
   100    88    87    1
   101    86    87   ar
   102    86    84   ar
   103    59    58    2
   104   150   149    1
   105   169   168    2
   106    87    85   ar
   107   168   174   am
   108    84    82   ar
   109    38    36   ar
   110    38    40   ar
   111   149   148    1
   112    55    56    2
   113    55    54    1
   114    58    60   am
   115    58    57    1
   116    36    35   ar
   117   148   147    1
   118    30    31    1
   119    57    54    1
   120    40    39   ar
   121   174   175    1
   122   146   145    2
   123    54    53    1
   124    77    78    1
   125    85    83   ar
   126    82    83   ar
   127    82    81    1
   128    35    34    1
   129    35    37   ar
   130   147   144    1
   131   180   178    1
   132   145   144    1
   133   144   143    1
   134    34    31    1
   135    81    78    1
   136    31    32    1
   137    39    37   ar
   138   175   178    1
   139   175   176    1
   140    78    79    1
   141   178   179    1
   142    53    49   am
   143   142   140   ar
   144   142   141   ar
   145    32    33    2
   146   140   138   ar
   147   124   123    2
   148   130   129    1
   149    80    79    2
   150   176   177    2
   151   176   181   am
   152    50    49    2
   153    49    48    1
   154   123   122    1
   155   141   139   ar
   156   181   182    1
   157   138   137   ar
   158   129   128    2
   159   129   131    1
   160   128   127    1
   161   185   182    1
   162   185   186    1
   163    52    51    1
   164   126   127    1
   165   126   125    1
   166   182   183    1
   167   139   137   ar
   168    48    51    1
   169    48    47    1
   170   135   134    2
   171   122   125    1
   172   122   121    1
   173   137   136    1
   174   186   187   ar
   175   186   188   ar
   176   187   189   ar
   177   188   190   ar
   178   184   183    2
   179    47    43   am
   180   134   133    1
   181   189   191   ar
   182   136   133    1
   183   133   132    1
   184   190   191   ar
   185    43    44    2
   186    43    42    1
   187    46    45    1
   188    45    42    1
   189    42    41    1
