@<TRIPOS>MOLECULE
tmp/4dtzA01.pdb
 89 85 0 0 0
SMALL
GASTEIGER

@<TRIPOS>ATOM
      1  N         -3.2060   -2.4650   25.9190 N.3    73  PRO73      -0.2116
      2  CA        -4.3060   -2.0260   25.0950 C.3    73  PRO73       0.1372
      3  C         -5.5900   -1.8160   25.8460 C.2    73  PRO73       0.2244
      4  O         -6.3180   -0.8710   25.5060 O.2    73  PRO73      -0.2868
      5  CB        -4.4470   -3.1520   24.0630 C.3    73  PRO73       0.0268
      6  CG        -2.9560   -3.5920   23.8690 C.3    73  PRO73       0.0207
      7  CD        -2.5510   -3.6370   25.3310 C.3    73  PRO73       0.0892
      8  N         -7.6710   -0.7800   16.9190 N.3    85  PHE85      -0.1241
      9  CA        -6.6450   -1.4610   17.7160 C.3    85  PHE85       0.1605
     10  C         -7.0850   -1.9460   19.1010 C.2    85  PHE85       0.2264
     11  O         -6.6410   -3.0370   19.5950 O.2    85  PHE85      -0.2867
     12  CB        -5.3890   -0.5080   17.8030 C.3    85  PHE85       0.0534
     13  CG        -4.2890   -1.0140   18.6810 C.ar   85  PHE85      -0.0203
     14  CD1       -3.6190   -2.2190   18.4090 C.ar   85  PHE85      -0.0042
     15  CD2       -3.9350   -0.3000   19.8020 C.ar   85  PHE85      -0.0042
     16  CE1       -2.6210   -2.6920   19.2180 C.ar   85  PHE85      -0.0003
     17  CE2       -2.8750   -0.7480   20.6830 C.ar   85  PHE85      -0.0003
     18  CZ        -2.2420   -1.9730   20.3730 C.ar   85  PHE85      -0.0000
     19  N         -1.2500    4.7210   17.8630 N.3   262  ALA262     -0.1231
     20  CA        -0.7940    3.3510   17.6450 C.3   262  ALA262      0.1694
     21  C          0.1050    3.2770   16.3990 C.2   262  ALA262      0.2592
     22  O          0.9020    2.3600   16.2650 O.2   262  ALA262     -0.2718
     23  CB        -2.0530    2.4190   17.5180 C.3   262  ALA262      0.0304
     24  N          0.0370    4.2730   15.5020 N.am  263  GLY263     -0.1957
     25  CA         0.8770    4.1680   14.3010 C.3   263  GLY263      0.1869
     26  C          2.1410    4.9690   14.3420 C.2   263  GLY263      0.2309
     27  O          3.0830    4.5310   13.6260 O.2   263  GLY263     -0.2863
     28  N          5.6780    3.0450   16.3390 N.3   266  ALA266     -0.1245
     29  CA         6.2150    1.8970   15.7090 C.3   266  ALA266      0.1562
     30  C          6.8780    2.2960   14.3880 C.2   266  ALA266      0.2260
     31  O          7.9390    1.7630   14.0170 O.2   266  ALA266     -0.2867
     32  CB         5.0520    0.8770   15.4770 C.3   266  ALA266      0.0290
     33  N          6.6190   -3.0810   17.3560 N.3   326  ALA326     -0.1231
     34  CA         5.3720   -3.3150   18.0350 C.3   326  ALA326      0.1679
     35  C          5.5220   -4.7870   18.4980 C.2   326  ALA326      0.2434
     36  O          5.0830   -5.7100   17.8310 O.2   326  ALA326     -0.2733
     37  CB         4.2270   -3.0990   17.0280 C.3   326  ALA326      0.0304
     38  N          6.2210   -5.0270   19.6420 N.am  327  PRO327     -0.2718
     39  CA         6.9200   -6.2670   19.7890 C.3   327  PRO327      0.1535
     40  C          6.1630   -7.5040   20.2660 C.2   327  PRO327      0.2598
     41  O          6.7760   -8.5610   20.2890 O.2   327  PRO327     -0.2715
     42  CB         8.0180   -5.9190   20.8420 C.3   327  PRO327      0.0310
     43  CG         7.3370   -4.8690   21.7050 C.3   327  PRO327      0.0237
     44  CD         6.7550   -3.9840   20.5240 C.3   327  PRO327      0.0939
     45  N          4.8520   -7.3800   20.6680 N.am  328  ALA328     -0.1964
     46  CA         4.1540   -8.5920   21.1240 C.3   328  ALA328      0.1728
     47  C          2.7140   -8.4040   20.8450 C.2   328  ALA328      0.2616
     48  O          2.2050   -7.2600   20.8680 O.2   328  ALA328     -0.2715
     49  CB         4.4180   -8.7600   22.6310 C.3   328  ALA328      0.0334
     50  N          2.0010   -9.5220   20.7600 N.am  329  PHE329     -0.1974
     51  CA         0.5110   -9.4550   20.6610 C.3   329  PHE329      0.1639
     52  C         -0.0690  -10.6090   21.4080 C.2   329  PHE329      0.2290
     53  O          0.5970  -11.6440   21.6290 O.2   329  PHE329     -0.2864
     54  CB         0.0240   -9.2970   19.1370 C.3   329  PHE329      0.0560
     55  CG         0.3810  -10.4030   18.2420 C.ar  329  PHE329     -0.0200
     56  CD1       -0.4220  -11.4650   18.0660 C.ar  329  PHE329     -0.0042
     57  CD2        1.5890  -10.3570   17.5430 C.ar  329  PHE329     -0.0042
     58  CE1       -0.1370  -12.4510   17.0650 C.ar  329  PHE329     -0.0003
     59  CE2        1.9250  -11.2940   16.6050 C.ar  329  PHE329     -0.0003
     60  CZ         1.1170  -12.4200   16.3870 C.ar  329  PHE329     -0.0000
     61  N          7.4300  -11.3720   19.5110 N.3   355  ILE355     -0.1245
     62  CA         7.8900  -11.2340   18.1470 C.3   355  ILE355      0.1561
     63  C          9.4020  -11.2230   17.9720 C.2   355  ILE355      0.2260
     64  O          9.9270  -11.9360   17.0790 O.2   355  ILE355     -0.2867
     65  CB         7.1970  -10.1040   17.3260 C.3   355  ILE355      0.0252
     66  CG1        5.6830  -10.2340   17.4730 C.3   355  ILE355      0.0019
     67  CG2        7.5960  -10.1990   15.8470 C.3   355  ILE355      0.0019
     68  CD1        4.9530   -8.8870   16.8930 C.3   355  ILE355      0.0001
     69  N         -1.9320   -5.6140   11.4640 N.3   398  CYS398     -0.1235
     70  CA        -1.8580   -4.1130   11.2660 C.3   398  CYS398      0.1677
     71  C         -2.5830   -3.6300   10.0430 C.2   398  CYS398      0.2270
     72  O         -2.1480   -3.9220    8.9030 O.2   398  CYS398     -0.2867
     73  CB        -0.3660   -3.7080   11.1300 C.3   398  CYS398      0.0956
     74  SG        -0.1550   -1.9220   11.1930 S.3   398  CYS398     -0.0801
     75  N          4.9590    1.9980   24.6100 N.3   435  LEU435     -0.1231
     76  CA         4.1530    0.9660   23.9450 C.3   435  LEU435      0.1693
     77  C          5.0360    0.2410   22.8690 C.2   435  LEU435      0.2592
     78  O          4.7650   -0.9200   22.5620 O.2   435  LEU435     -0.2718
     79  CB         2.9400    1.6300   23.3160 C.3   435  LEU435      0.0284
     80  CG         2.0200    0.6550   22.5680 C.3   435  LEU435      0.0019
     81  CD1        1.4060   -0.3850   23.5320 C.3   435  LEU435      0.0001
     82  CD2        0.8710    1.4050   21.8430 C.3   435  LEU435      0.0001
     83  N          6.1030    0.8970   22.3580 N.am  436  THR436     -0.1953
     84  CA         6.8940    0.3680   21.2120 C.3   436  THR436      0.1897
     85  C          8.3630    0.4120   21.5790 C.2   436  THR436      0.2313
     86  O          8.7370    0.8130   22.7030 O.2   436  THR436     -0.2863
     87  CB         6.6130    1.2050   19.9460 C.3   436  THR436      0.1794
     88  OG1        6.8760    2.5850   20.2380 O.3   436  THR436     -0.2208
     89  CG2        5.1670    1.0210   19.4080 C.3   436  THR436      0.0378
@<TRIPOS>BOND
     1    72    71    2
     2    71    70    1
     3    73    74    1
     4    73    70    1
     5    70    69    1
     6    27    26    2
     7    31    30    2
     8    25    26    1
     9    25    24    1
    10    30    29    1
    11    32    29    1
    12    24    21   am
    13    29    28    1
    14    67    65    1
    15    22    21    2
    16    60    59   ar
    17    60    58   ar
    18    21    20    1
    19    59    57   ar
    20    68    66    1
    21     8     9    1
    22    37    34    1
    23    58    56   ar
    24    64    63    2
    25    65    66    1
    26    65    62    1
    27    33    34    1
    28    23    20    1
    29    57    55   ar
    30    20    19    1
    31     9    12    1
    32     9    10    1
    33    12    13    1
    34    36    35    2
    35    63    62    1
    36    34    35    1
    37    56    55   ar
    38    62    61    1
    39    55    54    1
    40    14    13   ar
    41    14    16   ar
    42    35    38   am
    43    13    15   ar
    44    10    11    2
    45    54    51    1
    46    16    18   ar
    47    89    87    1
    48    38    39    1
    49    38    44    1
    50    39    40    1
    51    39    42    1
    52    15    17   ar
    53    87    88    1
    54    87    84    1
    55    40    41    2
    56    40    45   am
    57    18    17   ar
    58    44    43    1
    59    51    50    1
    60    51    52    1
    61    45    46    1
    62    50    47   am
    63    42    43    1
    64    47    48    2
    65    47    46    1
    66    46    49    1
    67    84    85    1
    68    84    83    1
    69    52    53    2
    70    85    86    2
    71    82    80    1
    72    83    77   am
    73    78    77    2
    74    80    79    1
    75    80    81    1
    76    77    76    1
    77    79    76    1
    78     6     5    1
    79     6     7    1
    80    76    75    1
    81     5     2    1
    82     2     3    1
    83     2     1    1
    84     7     1    1
    85     4     3    2
