@<TRIPOS>MOLECULE
tmp/4du6B01.pdb
 86 78 0 0 0
SMALL
GASTEIGER

@<TRIPOS>ATOM
      1  N        102.1320  -32.3690  -26.7860 N.3    17  ARG17      -0.1245
      2  CA       102.5210  -30.9440  -26.7890 C.3    17  ARG17       0.1563
      3  C        103.8820  -30.6690  -26.0840 C.2    17  ARG17       0.2260
      4  O        104.5060  -29.6390  -26.3330 O.2    17  ARG17      -0.2867
      5  CB       101.4000  -30.1100  -26.1480 C.3    17  ARG17       0.0307
      6  CG       101.5480  -28.5640  -26.2060 C.3    17  ARG17       0.0489
      7  CD       101.4340  -28.0220  -27.6220 C.3    17  ARG17       0.2205
      8  NE       100.1640  -28.3780  -28.2660 N.pl3  17  ARG17      -0.0865
      9  CZ        99.0340  -27.6640  -28.1580 C.cat  17  ARG17       0.5346
     10  NH1       97.9260  -28.0740  -28.7840 N.pl3  17  ARG17       0.1354
     11  NH2       99.0050  -26.5480  -27.4160 N.pl3  17  ARG17       0.1354
     12  N        103.9850  -30.6680  -22.7510 N.3    19  LEU19      -0.1245
     13  CA       103.5100  -29.8500  -21.6660 C.3    19  LEU19       0.1561
     14  C        103.3100  -30.6530  -20.4100 C.2    19  LEU19       0.2260
     15  O        102.9810  -30.0870  -19.3790 O.2    19  LEU19      -0.2867
     16  CB       102.1480  -29.2590  -22.0350 C.3    19  LEU19       0.0270
     17  CG       102.0560  -27.7460  -22.1890 C.3    19  LEU19       0.0019
     18  CD1      100.6120  -27.2970  -22.3980 C.3    19  LEU19       0.0001
     19  CD2      102.7170  -27.0310  -20.9980 C.3    19  LEU19       0.0001
     20  N         99.3270  -23.0540  -19.2000 N.3   154  GLN154     -0.1245
     21  CA        99.2390  -23.7620  -20.4660 C.3   154  GLN154      0.1566
     22  C         98.5890  -25.1370  -20.3320 C.2   154  GLN154      0.2260
     23  O         97.9200  -25.5830  -21.2490 O.2   154  GLN154     -0.2867
     24  CB       100.6590  -23.9980  -21.0330 C.3   154  GLN154      0.0367
     25  CG       101.4850  -22.7540  -21.1400 C.3   154  GLN154      0.0905
     26  CD       101.2110  -21.9860  -22.4030 C.2   154  GLN154      0.2608
     27  OE1      100.3230  -21.1390  -22.4290 O.2   154  GLN154     -0.2717
     28  NE2      101.9930  -22.2490  -23.4550 N.am  154  GLN154     -0.0878
     29  N         94.8460  -24.6770  -20.0120 N.3   157  LEU157     -0.1231
     30  CA        94.3150  -24.2800  -21.2990 C.3   157  LEU157      0.1693
     31  C         94.1110  -25.4890  -22.2020 C.2   157  LEU157      0.2591
     32  O         92.9970  -25.7180  -22.6890 O.2   157  LEU157     -0.2718
     33  CB        95.2140  -23.2690  -21.9840 C.3   157  LEU157      0.0284
     34  CG        94.9000  -22.9620  -23.4470 C.3   157  LEU157      0.0019
     35  CD1       93.5200  -22.3170  -23.5720 C.3   157  LEU157      0.0001
     36  CD2       95.9490  -22.0710  -24.0930 C.3   157  LEU157      0.0001
     37  N         95.1800  -26.2460  -22.4320 N.am  158  LEU158     -0.1980
     38  CA        95.1280  -27.3970  -23.3270 C.3   158  LEU158      0.1596
     39  C         94.1660  -28.4880  -22.8330 C.2   158  LEU158      0.2287
     40  O         93.4280  -29.0850  -23.6310 O.2   158  LEU158     -0.2864
     41  CB        96.5250  -27.9880  -23.5560 C.3   158  LEU158      0.0297
     42  CG        96.6500  -29.1030  -24.5990 C.3   158  LEU158      0.0022
     43  CD1       96.0320  -28.6860  -25.9210 C.3   158  LEU158      0.0001
     44  CD2       98.1330  -29.5010  -24.8120 C.3   158  LEU158      0.0001
     45  N         90.7460  -27.1830  -23.7630 N.3   161  GLN161     -0.1245
     46  CA        90.5060  -27.2930  -25.1980 C.3   161  GLN161      0.1566
     47  C         90.1870  -28.7320  -25.5800 C.2   161  GLN161      0.2260
     48  O         89.3110  -28.9980  -26.3960 O.2   161  GLN161     -0.2867
     49  CB        91.6960  -26.7970  -26.0170 C.3   161  GLN161      0.0367
     50  CG        91.9270  -25.2690  -25.9340 C.3   161  GLN161      0.0905
     51  CD        93.2690  -24.9260  -26.5300 C.2   161  GLN161      0.2608
     52  OE1       94.2070  -25.7090  -26.4080 O.2   161  GLN161     -0.2717
     53  NE2       93.3640  -23.7960  -27.2150 N.am  161  GLN161     -0.0878
     54  N         89.1490  -24.8390  -29.6100 N.3   167  ASN167     -0.1240
     55  CA        90.3520  -24.0840  -29.2470 C.3   167  ASN167      0.1653
     56  C         90.0240  -22.7560  -28.5910 C.2   167  ASN167      0.2266
     57  O         90.9280  -22.0770  -28.1030 O.2   167  ASN167     -0.2867
     58  CB        91.2370  -23.8240  -30.4640 C.3   167  ASN167      0.1155
     59  CG        91.8320  -25.0850  -31.0280 C.2   167  ASN167      0.2627
     60  OD1       91.9640  -26.1020  -30.3390 O.2   167  ASN167     -0.2716
     61  ND2       92.1920  -25.0330  -32.2960 N.am  167  ASN167     -0.0877
     62  N         96.2320  -18.0070  -24.1520 N.3   197  LEU197     -0.1231
     63  CA        95.0480  -17.6700  -24.9360 C.3   197  LEU197      0.1693
     64  C         94.9750  -18.6000  -26.1270 C.2   197  LEU197      0.2593
     65  O         95.9780  -18.8000  -26.8040 O.2   197  LEU197     -0.2718
     66  CB        95.1410  -16.2220  -25.4010 C.3   197  LEU197      0.0284
     67  CG        95.3390  -15.1690  -24.2900 C.3   197  LEU197      0.0019
     68  CD1       95.6490  -13.8190  -24.8960 C.3   197  LEU197      0.0001
     69  CD2       94.1130  -15.1030  -23.3980 C.3   197  LEU197      0.0001
     70  N         93.7960  -19.1720  -26.3800 N.am  198  GLY198     -0.1942
     71  CA        93.6170  -20.0460  -27.5300 C.3   198  GLY198      0.2014
     72  C         92.5410  -19.5870  -28.5010 C.2   198  GLY198      0.2639
     73  O         91.6200  -18.8540  -28.1270 O.2   198  GLY198     -0.2714
     74  N         92.6460  -20.0450  -29.7480 N.am  199  GLY199     -0.1954
     75  CA        91.7060  -19.6700  -30.7900 C.3   199  GLY199      0.1869
     76  C         91.4960  -18.1580  -30.8500 C.2   199  GLY199      0.2309
     77  O         92.4610  -17.3680  -30.9080 O.2   199  GLY199     -0.2863
     78  N         93.2240  -15.5050  -28.8100 N.3   202  LYS202     -0.1245
     79  CA        94.5870  -15.1360  -29.1230 C.3   202  LYS202      0.1561
     80  C         94.6350  -14.2570  -30.3330 C.2   202  LYS202      0.2260
     81  O         95.4610  -13.3360  -30.4350 O.2   202  LYS202     -0.2867
     82  CB        95.4470  -16.3720  -29.3980 C.3   202  LYS202      0.0271
     83  CG        96.9560  -16.0600  -29.4930 C.3   202  LYS202      0.0035
     84  CD        97.7310  -17.3500  -29.6590 C.3   202  LYS202      0.0206
     85  CE        99.1630  -17.2530  -29.0640 C.3   202  LYS202      0.1093
     86  NZ        99.1860  -17.1990  -27.5710 N.3   202  LYS202     -0.1314
@<TRIPOS>BOND
     1    61    59   am
     2    59    58    1
     3    59    60    2
     4    77    76    2
     5    76    75    1
     6    75    74    1
     7    58    55    1
     8    81    80    2
     9    80    79    1
    10    74    72   am
    11    84    83    1
    12    84    85    1
    13    54    55    1
    14    83    82    1
    15    82    79    1
    16    55    56    1
    17    79    78    1
    18    85    86    1
    19    10     9    1
    20    56    57    2
    21    72    73    2
    22    72    71    1
    23     8     9    2
    24     8     7    1
    25     9    11    1
    26     7     6    1
    27    71    70    1
    28    53    51   am
    29    65    64    2
    30     2     1    1
    31     2     5    1
    32     2     3    1
    33    51    52    2
    34    51    50    1
    35    48    47    2
    36    70    64   am
    37     4     3    2
    38     6     5    1
    39    64    63    1
    40    49    50    1
    41    49    46    1
    42    43    42    1
    43    47    46    1
    44    66    63    1
    45    66    67    1
    46    46    45    1
    47    63    62    1
    48    68    67    1
    49    44    42    1
    50    42    41    1
    51    67    69    1
    52    36    34    1
    53    40    39    2
    54    35    34    1
    55    41    38    1
    56    28    26   am
    57    34    33    1
    58    38    39    1
    59    38    37    1
    60    12    13    1
    61    32    31    2
    62    37    31   am
    63    27    26    2
    64    26    25    1
    65    18    17    1
    66    31    30    1
    67    17    16    1
    68    17    19    1
    69    16    13    1
    70    33    30    1
    71    13    14    1
    72    30    29    1
    73    23    22    2
    74    25    24    1
    75    24    21    1
    76    21    22    1
    77    21    20    1
    78    14    15    2
