@<TRIPOS>MOLECULE
tmp/4dufC01.pdb
 96 86 0 0 0
SMALL
GASTEIGER

@<TRIPOS>ATOM
      1  N         18.9370   23.5940   66.7410 N.3    73  ALA73      -0.1231
      2  CA        19.0690   24.7860   67.6160 C.3    73  ALA73       0.1694
      3  C         20.5000   25.3410   67.5640 C.2    73  ALA73       0.2591
      4  O         20.7180   26.5110   67.3700 O.2    73  ALA73      -0.2718
      5  CB        18.7170   24.4150   69.0270 C.3    73  ALA73       0.0304
      6  N         21.4740   24.4650   67.7460 N.am   74  LEU74      -0.1980
      7  CA        22.8740   24.9050   67.6780 C.3    74  LEU74       0.1596
      8  C         23.3100   25.4180   66.3100 C.2    74  LEU74       0.2287
      9  O         24.0550   26.4050   66.2130 O.2    74  LEU74      -0.2864
     10  CB        23.8470   23.8420   68.1980 C.3    74  LEU74       0.0297
     11  CG        23.8510   23.4820   69.7190 C.3    74  LEU74       0.0022
     12  CD1       24.9570   22.5020   69.9860 C.3    74  LEU74       0.0001
     13  CD2       23.9740   24.6800   70.6700 C.3    74  LEU74       0.0001
     14  N         21.9950   28.8500   66.2240 N.3    77  VAL77      -0.1245
     15  CA        22.8070   29.7010   67.1300 C.3    77  VAL77       0.1561
     16  C         24.1880   30.0100   66.4620 C.2    77  VAL77       0.2260
     17  O         24.7740   31.0950   66.6630 O.2    77  VAL77      -0.2867
     18  CB        23.0050   29.0280   68.4890 C.3    77  VAL77       0.0252
     19  CG1       24.0500   29.8670   69.4320 C.3    77  VAL77       0.0019
     20  CG2       21.6580   28.9270   69.2630 C.3    77  VAL77       0.0019
     21  N         31.0270   26.1690   71.6790 N.3    86  LEU86      -0.1245
     22  CA        29.7430   25.4970   71.8780 C.3    86  LEU86       0.1561
     23  C         29.1480   25.0150   70.5250 C.2    86  LEU86       0.2260
     24  O         28.4820   23.9470   70.4790 O.2    86  LEU86      -0.2867
     25  CB        28.7600   26.4700   72.5550 C.3    86  LEU86       0.0270
     26  CG        27.2990   25.9210   72.7250 C.3    86  LEU86       0.0019
     27  CD1       27.2690   24.7460   73.7660 C.3    86  LEU86       0.0001
     28  CD2       26.4790   27.1810   73.2230 C.3    86  LEU86       0.0001
     29  N         18.8840   35.1520   70.0020 N.3   180  LEU180     -0.1245
     30  CA        18.5970   33.8000   70.5070 C.3   180  LEU180      0.1561
     31  C         17.1410   33.4930   70.2900 C.2   180  LEU180      0.2260
     32  O         16.7780   32.3650   69.8820 O.2   180  LEU180     -0.2867
     33  CB        18.9350   33.6490   71.9990 C.3   180  LEU180      0.0270
     34  CG        20.4340   33.6220   72.2900 C.3   180  LEU180      0.0019
     35  CD1       20.7810   33.9860   73.7420 C.3   180  LEU180      0.0001
     36  CD2       21.0580   32.2460   71.9170 C.3   180  LEU180      0.0001
     37  N         26.5390   33.8440   75.7470 N.3   262  ILE262     -0.1231
     38  CA        25.4030   32.9460   75.5330 C.3   262  ILE262      0.1692
     39  C         25.4050   31.7550   76.4940 C.2   262  ILE262      0.2591
     40  O         24.3440   31.2040   76.8680 O.2   262  ILE262     -0.2718
     41  CB        25.4760   32.3820   74.0810 C.3   262  ILE262      0.0266
     42  CG1       25.1680   33.4910   73.0340 C.3   262  ILE262      0.0019
     43  CG2       24.7310   31.0660   73.9300 C.3   262  ILE262      0.0020
     44  CD1       25.6830   32.9540   71.6070 C.3   262  ILE262      0.0001
     45  N         26.5820   31.2650   76.8180 N.am  263  ALA263     -0.1980
     46  CA        26.6070   29.9390   77.4630 C.3   263  ALA263      0.1597
     47  C         26.7020   30.0680   78.9750 C.2   263  ALA263      0.2287
     48  O         26.3210   29.1130   79.7260 O.2   263  ALA263     -0.2864
     49  CB        27.7880   29.1310   76.9710 C.3   263  ALA263      0.0319
     50  N         22.7620   33.1020   81.3050 N.3   266  GLU266     -0.1182
     51  CA        21.4020   32.6560   81.7250 C.3   266  GLU266      0.1915
     52  C         21.3310   31.2040   82.2700 C.2   266  GLU266      0.2635
     53  O         20.4140   30.8880   83.0450 O.2   266  GLU266     -0.2714
     54  CB        20.2370   33.0510   80.7190 C.2   266  GLU266      0.0085
     55  CG        19.7090   31.8980   79.7940 C.2   266  GLU266      0.0835
     56  CD        18.8000   32.2720   78.5500 C.2   266  GLU266      0.3877
     57  OE1       19.2830   32.3450   77.4030 O.co2 266  GLU266     -0.2406
     58  OE2       17.5880   32.3650   78.6920 O.co2 266  GLU266     -0.2406
     59  N         22.2910   30.3250   81.9150 N.am  267  SER267     -0.1949
     60  CA        22.3040   28.9560   82.4910 C.3   267  SER267      0.1924
     61  C         22.5130   29.1070   84.0540 C.2   267  SER267      0.2314
     62  O         21.8090   28.4910   84.8540 O.2   267  SER267     -0.2863
     63  CB        23.5380   28.1740   81.8970 C.3   267  SER267      0.2116
     64  OG        24.7150   29.0220   82.0230 O.3   267  SER267     -0.2180
     65  N         20.1690   23.9510   81.1670 N.3   327  ALA327     -0.1245
     66  CA        20.4140   23.5940   79.7910 C.3   327  ALA327      0.1562
     67  C         19.8540   22.1900   79.6120 C.2   327  ALA327      0.2260
     68  O         20.5160   21.2620   79.9370 O.2   327  ALA327     -0.2867
     69  CB        21.9130   23.6360   79.4640 C.3   327  ALA327      0.0290
     70  N         19.0010   19.8540   77.3680 N.3   329  ALA329     -0.1245
     71  CA        19.2110   18.7620   76.3730 C.3   329  ALA329      0.1562
     72  C         20.5480   18.9620   75.6860 C.2   329  ALA329      0.2260
     73  O         21.0350   20.1340   75.5240 O.2   329  ALA329     -0.2867
     74  CB        18.1060   18.7630   75.3120 C.3   329  ALA329      0.0290
     75  N         30.4870   20.8180   79.5150 N.3   399  CYS399     -0.1235
     76  CA        30.6040   22.2200   79.7990 C.3   399  CYS399      0.1677
     77  C         32.0340   22.5680   80.2940 C.2   399  CYS399      0.2270
     78  O         32.4480   22.1580   81.3930 O.2   399  CYS399     -0.2867
     79  CB        29.5950   22.5380   80.9050 C.3   399  CYS399      0.0956
     80  SG        29.6240   24.3060   81.2860 S.3   399  CYS399     -0.0801
     81  N         16.2130   29.0050   74.8760 N.3   436  LEU436     -0.1231
     82  CA        16.8300   27.7050   74.6890 C.3   436  LEU436      0.1693
     83  C         17.2110   27.0860   76.0380 C.2   436  LEU436      0.2591
     84  O         17.5240   25.9170   76.0970 O.2   436  LEU436     -0.2718
     85  CB        18.0470   27.7880   73.7850 C.3   436  LEU436      0.0284
     86  CG        17.6880   28.1720   72.3210 C.3   436  LEU436      0.0019
     87  CD1       19.0270   28.3780   71.6490 C.3   436  LEU436      0.0001
     88  CD2       16.7210   27.2520   71.4520 C.3   436  LEU436      0.0001
     89  N         17.1180   27.8840   77.0990 N.am  437  LEU437     -0.1980
     90  CA        17.3590   27.4400   78.4750 C.3   437  LEU437      0.1596
     91  C         16.0660   27.5810   79.3080 C.2   437  LEU437      0.2287
     92  O         15.0880   28.1730   78.8090 O.2   437  LEU437     -0.2864
     93  CB        18.4290   28.3450   79.0490 C.3   437  LEU437      0.0297
     94  CG        19.8050   28.2860   78.3050 C.3   437  LEU437      0.0022
     95  CD1       20.7890   29.2070   78.9470 C.3   437  LEU437      0.0001
     96  CD2       20.4040   26.9530   78.3210 C.3   437  LEU437      0.0001
@<TRIPOS>BOND
     1     9     8    2
     2    14    15    1
     3     8     7    1
     4    16    17    2
     5    16    15    1
     6     1     2    1
     7    15    18    1
     8     4     3    2
     9     3     2    1
    10     3     6   am
    11     2     5    1
    12     7     6    1
    13     7    10    1
    14    10    11    1
    15    18    20    1
    16    18    19    1
    17    11    12    1
    18    11    13    1
    19    32    31    2
    20    29    30    1
    21    31    30    1
    22    24    23    2
    23    30    33    1
    24    23    22    1
    25    88    86    1
    26    44    42    1
    27    87    86    1
    28    21    22    1
    29    22    25    1
    30    36    34    1
    31    33    34    1
    32    34    35    1
    33    86    85    1
    34    25    26    1
    35    26    28    1
    36    26    27    1
    37    42    41    1
    38    85    82    1
    39    43    41    1
    40    41    38    1
    41    82    81    1
    42    82    83    1
    43    74    71    1
    44    73    72    2
    45    38    37    1
    46    38    39    1
    47    72    71    1
    48    83    84    2
    49    83    89   am
    50    71    70    1
    51    39    45   am
    52    39    40    2
    53    45    46    1
    54    49    46    1
    55    89    90    1
    56    57    56   ar
    57    46    47    1
    58    94    96    1
    59    94    95    1
    60    94    93    1
    61    90    93    1
    62    90    91    1
    63    56    58   ar
    64    56    55    1
    65    92    91    2
    66    47    48    2
    67    69    66    1
    68    75    76    1
    69    67    66    1
    70    67    68    2
    71    66    65    1
    72    55    54    2
    73    76    77    1
    74    76    79    1
    75    77    78    2
    76    54    51    1
    77    79    80    1
    78    50    51    1
    79    51    52    1
    80    63    64    1
    81    63    60    1
    82    59    52   am
    83    59    60    1
    84    52    53    2
    85    60    61    1
    86    61    62    2
