@<TRIPOS>MOLECULE
tmp/4duhB00.pdb
 132 120 0 0 0
SMALL
GASTEIGER

@<TRIPOS>ATOM
      1  N         34.1740   16.3130    5.6990 N.3    32  VAL32      -0.1245
      2  CA        33.5530   15.3400    6.5690 C.3    32  VAL32       0.1561
      3  C         32.0110   15.4060    6.4630 C.2    32  VAL32       0.2260
      4  O         31.3530   14.3550    6.3700 O.2    32  VAL32      -0.2867
      5  CB        34.0420   15.5130    8.0240 C.3    32  VAL32       0.0252
      6  CG1       33.4130   14.4220    8.8790 C.3    32  VAL32       0.0019
      7  CG2       35.5680   15.4110    8.1020 C.3    32  VAL32       0.0019
      8  N         30.5490   13.5560    3.4930 N.3    35  ASN35      -0.1225
      9  CA        30.3800   12.1360    3.6470 C.3    35  ASN35       0.1785
     10  C         29.1080   11.7540    4.4260 C.2    35  ASN35       0.2597
     11  O         28.4320   10.7980    4.0740 O.2    35  ASN35      -0.2718
     12  CB        31.6320   11.5150    4.2680 C.3    35  ASN35       0.1169
     13  CG        32.7240   11.2940    3.2540 C.2    35  ASN35       0.2627
     14  OD1       32.8030   10.2290    2.6360 O.2    35  ASN35      -0.2716
     15  ND2       33.5370   12.3280    3.0190 N.am   35  ASN35      -0.0877
     16  N         28.7320   12.5670    5.4120 N.am   36  ALA36      -0.1979
     17  CA        27.4970   12.3340    6.1630 C.3    36  ALA36       0.1597
     18  C         26.2790   12.5890    5.2680 C.2    36  ALA36       0.2287
     19  O         25.3050   11.8250    5.2360 O.2    36  ALA36      -0.2864
     20  CB        27.4580   13.2190    7.4060 C.3    36  ALA36       0.0319
     21  N         25.4800    9.7310    3.0050 N.3    39  GLU39      -0.1245
     22  CA        24.7170    8.6890    3.6930 C.3    39  GLU39       0.1567
     23  C         23.2300    8.9780    3.7420 C.2    39  GLU39       0.2260
     24  O         22.4240    8.0510    3.8920 O.2    39  GLU39      -0.2867
     25  CB        25.2070    8.5160    5.1550 C.3    39  GLU39       0.0388
     26  CG        26.4350    7.6470    5.2860 C.3    39  GLU39       0.1160
     27  CD        26.2280    6.2310    4.7460 C.2    39  GLU39       0.3649
     28  OE1       26.7370    5.9740    3.6410 O.co2  39  GLU39      -0.2457
     29  OE2       25.5980    5.3710    5.4090 O.co2  39  GLU39      -0.2457
     30  N         31.9230   15.8100   13.5870 N.3    60  VAL60      -0.1245
     31  CA        30.7100   15.5710   12.7770 C.3    60  VAL60       0.1561
     32  C         30.2200   14.1880   13.1620 C.2    60  VAL60       0.2260
     33  O         30.9760   13.2230   13.1030 O.2    60  VAL60      -0.2867
     34  CB        31.0610   15.6040   11.2720 C.3    60  VAL60       0.0252
     35  CG1       29.7830   15.3340   10.3930 C.3    60  VAL60       0.0019
     36  CG2       31.6810   16.9400   10.8990 C.3    60  VAL60       0.0019
     37  N         27.0510   11.3660   12.4110 N.3    62  ASP62      -0.1239
     38  CA        25.8490   11.0120   11.6900 C.3    62  ASP62       0.1674
     39  C         25.2180    9.7470   12.2700 C.2    62  ASP62       0.2266
     40  O         25.8510    8.9810   13.0560 O.2    62  ASP62      -0.2867
     41  CB        26.1230   10.9100   10.1640 C.3    62  ASP62       0.1410
     42  CG        27.0200    9.7340    9.7700 C.2    62  ASP62       0.3668
     43  OD1       27.9420    9.9510    8.9510 O.co2  62  ASP62      -0.2456
     44  OD2       26.8050    8.5710   10.2020 O.co2  62  ASP62      -0.2456
     45  N         25.2230    4.3620    8.1930 N.3    65  ARG65      -0.1231
     46  CA        25.4580    2.9380    8.3280 C.3    65  ARG65       0.1694
     47  C         26.6740    2.6510    9.2250 C.2    65  ARG65       0.2593
     48  O         26.8220    1.5510    9.7210 O.2    65  ARG65      -0.2718
     49  CB        25.6610    2.3100    6.9460 C.3    65  ARG65       0.0321
     50  CG        24.3610    2.2820    6.1410 C.3    65  ARG65       0.0489
     51  CD        24.6740    1.7870    4.7630 C.3    65  ARG65       0.2205
     52  NE        25.3640    2.8060    4.0080 N.pl3  65  ARG65      -0.0865
     53  CZ        25.9140    2.6250    2.8080 C.cat  65  ARG65       0.5346
     54  NH1       26.5670    3.6150    2.2300 N.pl3  65  ARG65       0.1354
     55  NH2       25.8340    1.4450    2.1960 N.pl3  65  ARG65       0.1354
     56  N         27.5350    3.6380    9.3980 N.am   66  GLY66      -0.1942
     57  CA        28.8010    3.3720   10.0740 C.3    66  GLY66       0.2014
     58  C         29.8550    2.9270    9.0950 C.2    66  GLY66       0.2639
     59  O         29.6110    2.0740    8.2190 O.2    66  GLY66      -0.2714
     60  N         31.0160    3.5570    9.1440 N.am   67  ILE67      -0.1963
     61  CA        32.1150    3.1200    8.3130 C.3    67  ILE67       0.1712
     62  C         32.4100    1.6320    8.5930 C.2    67  ILE67       0.2458
     63  O         32.4570    1.1990    9.7630 O.2    67  ILE67      -0.2730
     64  CB        33.3710    3.9730    8.6170 C.3    67  ILE67       0.0289
     65  CG1       33.1250    5.4160    8.1280 C.3    67  ILE67       0.0022
     66  CG2       34.6410    3.3620    8.0060 C.3    67  ILE67       0.0023
     67  CD1       34.2880    6.3820    8.3760 C.3    67  ILE67       0.0001
     68  N         32.5550    0.8240    7.5460 N.am   68  PRO68      -0.2727
     69  CA        32.7630   -0.6190    7.7570 C.3    68  PRO68       0.1402
     70  C         33.9930   -0.9100    8.6530 C.2    68  PRO68       0.2269
     71  O         34.9930   -0.2050    8.6020 O.2    68  PRO68      -0.2865
     72  CB        32.9920   -1.1540    6.3390 C.3    68  PRO68       0.0296
     73  CG        32.1800   -0.1980    5.4680 C.3    68  PRO68       0.0237
     74  CD        32.2440    1.1670    6.1330 C.3    68  PRO68       0.0939
     75  N         40.0280    3.2740    4.7940 N.3    83  ILE83      -0.1245
     76  CA        39.3250    4.5120    4.4650 C.3    83  ILE83       0.1561
     77  C         39.9940    5.7930    5.0100 C.2    83  ILE83       0.2260
     78  O         40.0340    6.8190    4.3370 O.2    83  ILE83      -0.2867
     79  CB        37.8490    4.3810    4.9010 C.3    83  ILE83       0.0252
     80  CG1       37.1540    3.3160    4.0280 C.3    83  ILE83       0.0019
     81  CG2       37.1160    5.7300    4.8700 C.3    83  ILE83       0.0019
     82  CD1       35.7390    2.9810    4.4020 C.3    83  ILE83       0.0001
     83  N         39.7390    5.8300   -0.8560 N.3    89  ALA89      -0.1231
     84  CA        39.3520    4.4470   -0.5540 C.3    89  ALA89       0.1694
     85  C         37.9530    4.4060    0.0560 C.2    89  ALA89       0.2592
     86  O         37.5390    5.3390    0.7330 O.2    89  ALA89      -0.2718
     87  CB        40.3670    3.7790    0.3850 C.3    89  ALA89       0.0304
     88  N         37.2220    3.3200   -0.1740 N.am   90  GLY90      -0.1957
     89  CA        35.9790    3.0880    0.5500 C.3    90  GLY90       0.1869
     90  C         34.7630    2.9210   -0.3320 C.2    90  GLY90       0.2309
     91  O         33.7010    2.5470    0.1270 O.2    90  GLY90      -0.2863
     92  N         33.2220    5.2370   -2.3490 N.3    92  LYS92      -0.1245
     93  CA        32.3590    6.3710   -2.6330 C.3    92  LYS92       0.1561
     94  C         32.9170    7.3250   -3.6830 C.2    92  LYS92       0.2260
     95  O         32.2450    8.2730   -4.0920 O.2    92  LYS92      -0.2867
     96  CB        31.9690    7.0900   -1.3460 C.3    92  LYS92       0.0271
     97  CG        30.9770    6.2850   -0.5170 C.3    92  LYS92       0.0035
     98  CD        30.3340    7.1390    0.5400 C.3    92  LYS92       0.0206
     99  CE        29.2900    6.3650    1.3320 C.3    92  LYS92       0.1093
    100  NZ        28.4450    7.2930    2.1270 N.3    92  LYS92      -0.1314
    101  N         38.0290   11.6880    3.3900 N.3    97  VAL97      -0.1245
    102  CA        38.3810   11.8620    4.7940 C.3    97  VAL97       0.1561
    103  C         39.8530   11.5910    5.0630 C.2    97  VAL97       0.2260
    104  O         40.3800   12.0470    6.0800 O.2    97  VAL97      -0.2867
    105  CB        37.4900   11.0070    5.7270 C.3    97  VAL97       0.0252
    106  CG1       37.8260    9.5390    5.5930 C.3    97  VAL97       0.0019
    107  CG2       37.5920   11.4940    7.1650 C.3    97  VAL97       0.0019
    108  N         28.2960    0.2090   14.6580 N.3   113  ARG113     -0.1245
    109  CA        27.9940   -0.7320   13.5480 C.3   113  ARG113      0.1563
    110  C         27.9720   -2.1860   14.0370 C.2   113  ARG113      0.2260
    111  O         28.7790   -2.5700   14.9090 O.2   113  ARG113     -0.2867
    112  CB        29.0180   -0.5800   12.4250 C.3   113  ARG113      0.0307
    113  CG        28.6140   -1.2890   11.1300 C.3   113  ARG113      0.0489
    114  CD        29.4290   -0.8220    9.9470 C.3   113  ARG113      0.2205
    115  NE        29.4070   -1.8090    8.8730 N.pl3 113  ARG113     -0.0865
    116  CZ        28.8880   -1.6050    7.6630 C.cat 113  ARG113      0.5346
    117  NH1       28.9450   -2.5740    6.7530 N.pl3 113  ARG113      0.1354
    118  NH2       28.4640   -0.3950    7.3070 N.pl3 113  ARG113      0.1354
    119  N         28.5040    7.2210   12.4200 N.3   142  THR142     -0.1218
    120  CA        29.9300    7.5140   12.4630 C.3   142  THR142      0.1862
    121  C         30.1010    8.8940   13.0780 C.2   142  THR142      0.2287
    122  O         29.3340    9.8350   12.8030 O.2   142  THR142     -0.2866
    123  CB        30.5580    7.5060   11.0370 C.3   142  THR142      0.1770
    124  OG1       30.3170    6.2640   10.3830 O.3   142  THR142     -0.2211
    125  CG2       32.0510    7.8210   11.0490 C.3   142  THR142      0.0375
    126  N         33.4160   11.5740   13.4750 N.3   144  VAL144     -0.1245
    127  CA        34.8210   11.9760   13.3050 C.3   144  VAL144      0.1561
    128  C         35.0170   13.3540   13.9490 C.2   144  VAL144      0.2260
    129  O         34.2380   14.3000   13.7570 O.2   144  VAL144     -0.2867
    130  CB        35.1590   12.0990   11.8030 C.3   144  VAL144      0.0252
    131  CG1       36.4890   12.8480   11.5940 C.3   144  VAL144      0.0019
    132  CG2       35.2140   10.7140   11.1270 C.3   144  VAL144      0.0019
@<TRIPOS>BOND
     1    95    94    2
     2    94    93    1
     3    93    92    1
     4    93    96    1
     5    96    97    1
     6    83    84    1
     7    84    85    1
     8    84    87    1
     9    97    98    1
    10    90    91    2
    11    90    89    1
    12    88    85   am
    13    88    89    1
    14    85    86    2
    15    98    99    1
    16    99   100    1
    17    55    53    1
    18    54    53    1
    19    14    13    2
    20    53    52    2
    21    21    22    1
    22    15    13   am
    23    13    12    1
    24   101   102    1
    25     8     9    1
    26    28    27   ar
    27     9    12    1
    28     9    10    1
    29    22    23    1
    30    22    25    1
    31    23    24    2
    32    52    51    1
    33    80    82    1
    34    80    79    1
    35    11    10    2
    36    78    77    2
    37    10    16   am
    38    76    75    1
    39    76    79    1
    40    76    77    1
    41    27    26    1
    42    27    29   ar
    43    51    50    1
    44   102   103    1
    45   102   105    1
    46    81    79    1
    47   103   104    2
    48    25    26    1
    49    19    18    2
    50    18    17    1
    51    16    17    1
    52    73    74    1
    53    73    72    1
    54   106   105    1
    55     1     2    1
    56   105   107    1
    57    74    68    1
    58    50    49    1
    59    17    20    1
    60    72    69    1
    61     4     3    2
    62     3     2    1
    63     2     5    1
    64   117   116    1
    65    49    46    1
    66   118   116    1
    67    68    69    1
    68    68    62   am
    69   116   115    2
    70    69    70    1
    71    66    64    1
    72     5     7    1
    73     5     6    1
    74    65    67    1
    75    65    64    1
    76    45    46    1
    77    59    58    2
    78    61    62    1
    79    61    64    1
    80    61    60    1
    81    46    47    1
    82    62    63    2
    83    71    70    2
    84   115   114    1
    85    43    42   ar
    86    58    60   am
    87    58    57    1
    88    47    56   am
    89    47    48    2
    90    56    57    1
    91    42    41    1
    92    42    44   ar
    93   114   113    1
    94    41    38    1
    95   124   123    1
    96    35    34    1
    97    36    34    1
    98   123   125    1
    99   123   120    1
   100   132   130    1
   101   113   112    1
   102    34    31    1
   103   131   130    1
   104    38    39    1
   105    38    37    1
   106   130   127    1
   107    39    40    2
   108   119   120    1
   109   112   109    1
   110   120   121    1
   111    31    32    1
   112    31    30    1
   113   122   121    2
   114    33    32    2
   115   127   126    1
   116   127   128    1
   117   109   110    1
   118   109   108    1
   119   129   128    2
   120   110   111    2
