@<TRIPOS>MOLECULE
tmp/4dumA00.pdb
 198 198 0 0 0
SMALL
GASTEIGER

@<TRIPOS>ATOM
      1  N         -3.7680    7.2340  -12.1970 N.3    20  TRP20      -0.1227
      2  CA        -3.5770    5.8320  -12.5460 C.3    20  TRP20       0.1737
      3  C         -2.1030    5.5060  -12.3950 C.2    20  TRP20       0.2595
      4  O         -1.2590    6.3570  -12.6550 O.2    20  TRP20      -0.2718
      5  CB        -3.9840    5.6120  -14.0070 C.3    20  TRP20       0.0564
      6  CG        -5.4530    5.7490  -14.3320 C.ar   20  TRP20       0.0003
      7  CD1       -6.1510    6.9010  -14.6020 C.ar   20  TRP20       0.0946
      8  CD2       -6.3840    4.6820  -14.4700 C.ar   20  TRP20       0.0152
      9  NE1       -7.4720    6.6120  -14.8880 N.ar   20  TRP20      -0.2442
     10  CE2       -7.6350    5.2520  -14.8160 C.ar   20  TRP20       0.0810
     11  CE3       -6.2880    3.2820  -14.3380 C.ar   20  TRP20       0.0012
     12  CZ2       -8.7780    4.4700  -15.0190 C.ar   20  TRP20       0.0191
     13  CZ3       -7.4360    2.5040  -14.5400 C.ar   20  TRP20       0.0001
     14  CH2       -8.6620    3.1050  -14.8690 C.ar   20  TRP20       0.0015
     15  N         -1.7840    4.2850  -11.9950 N.am   21  PHE21      -0.1962
     16  CA        -0.3990    3.8280  -11.9240 C.3    21  PHE21       0.1771
     17  C         -0.2130    2.6360  -12.8250 C.2    21  PHE21       0.2619
     18  O         -1.0970    1.7790  -12.9130 O.2    21  PHE21      -0.2715
     19  CB        -0.0830    3.3890  -10.5070 C.3    21  PHE21       0.0574
     20  CG         1.3280    2.9430  -10.2970 C.ar   21  PHE21      -0.0200
     21  CD1        2.3720    3.8740  -10.2340 C.ar   21  PHE21      -0.0042
     22  CD2        1.6150    1.6140  -10.1070 C.ar   21  PHE21      -0.0042
     23  CE1        3.6960    3.4690  -10.0240 C.ar   21  PHE21      -0.0003
     24  CE2        2.9340    1.2030   -9.8920 C.ar   21  PHE21      -0.0003
     25  CZ         3.9730    2.1310   -9.8510 C.ar   21  PHE21      -0.0000
     26  N          0.9380    2.5770  -13.4850 N.am   22  PHE22      -0.1974
     27  CA         1.3380    1.3900  -14.2300 C.3    22  PHE22       0.1639
     28  C          2.6540    0.8690  -13.6890 C.2    22  PHE22       0.2290
     29  O          3.6410    1.6110  -13.6730 O.2    22  PHE22      -0.2864
     30  CB         1.4830    1.7040  -15.7180 C.3    22  PHE22       0.0560
     31  CG         1.9600    0.5320  -16.5460 C.ar   22  PHE22      -0.0200
     32  CD1        1.0450   -0.3990  -17.0590 C.ar   22  PHE22      -0.0042
     33  CD2        3.3170    0.3590  -16.8200 C.ar   22  PHE22      -0.0042
     34  CE1        1.4750   -1.4840  -17.8240 C.ar   22  PHE22      -0.0003
     35  CE2        3.7600   -0.7210  -17.5730 C.ar   22  PHE22      -0.0003
     36  CZ         2.8340   -1.6480  -18.0760 C.ar   22  PHE22      -0.0000
     37  N         -0.4700   -6.3160  -20.2180 N.3    30  TRP30      -0.1227
     38  CA        -0.4020   -4.8510  -20.0950 C.3    30  TRP30       0.1737
     39  C         -1.6710   -4.2020  -19.4870 C.2    30  TRP30       0.2595
     40  O         -1.5640   -3.4800  -18.4870 O.2    30  TRP30      -0.2718
     41  CB        -0.0550   -4.2070  -21.4370 C.3    30  TRP30       0.0564
     42  CG         0.1740   -2.7020  -21.3840 C.ar   30  TRP30       0.0003
     43  CD1        1.3790   -2.0510  -21.2910 C.ar   30  TRP30       0.0946
     44  CD2       -0.8260   -1.6760  -21.4390 C.ar   30  TRP30       0.0152
     45  NE1        1.1900   -0.6870  -21.2840 N.ar   30  TRP30      -0.2442
     46  CE2       -0.1550   -0.4300  -21.3730 C.ar   30  TRP30       0.0810
     47  CE3       -2.2210   -1.6850  -21.5380 C.ar   30  TRP30       0.0012
     48  CZ2       -0.8360    0.7890  -21.4010 C.ar   30  TRP30       0.0191
     49  CZ3       -2.8950   -0.4700  -21.5630 C.ar   30  TRP30       0.0001
     50  CH2       -2.2010    0.7480  -21.4980 C.ar   30  TRP30       0.0015
     51  N         -2.8540   -4.4560  -20.0710 N.am   31  GLN31      -0.1979
     52  CA        -4.1110   -3.8780  -19.5590 C.3    31  GLN31       0.1601
     53  C         -4.2330   -4.1400  -18.0440 C.2    31  GLN31       0.2287
     54  O         -4.7280   -3.2960  -17.2960 O.2    31  GLN31      -0.2864
     55  CB        -5.3390   -4.3980  -20.3330 C.3    31  GLN31       0.0394
     56  CG        -6.2140   -3.2830  -20.9580 C.3    31  GLN31       0.0908
     57  CD        -7.7430   -3.5660  -20.9410 C.2    31  GLN31       0.2608
     58  OE1       -8.3420   -3.7750  -19.8860 O.2    31  GLN31      -0.2717
     59  NE2       -8.3670   -3.5360  -22.1140 N.am   31  GLN31      -0.0878
     60  N         -1.8560   -1.9120  -15.6730 N.3    34  LEU34      -0.1245
     61  CA        -2.4140   -0.5720  -15.4740 C.3    34  LEU34       0.1561
     62  C         -3.5750   -0.5630  -14.4710 C.2    34  LEU34       0.2260
     63  O         -4.6140   -1.1880  -14.7120 O.2    34  LEU34      -0.2867
     64  CB        -2.8830   -0.0200  -16.8200 C.3    34  LEU34       0.0270
     65  CG        -3.6190    1.3100  -16.8420 C.3    34  LEU34       0.0019
     66  CD1       -2.6690    2.3770  -17.2880 C.3    34  LEU34       0.0001
     67  CD2       -4.7910    1.2010  -17.7980 C.3    34  LEU34       0.0001
     68  N          4.8220    4.0840  -14.5940 N.3    64  ASP64      -0.1225
     69  CA         4.2330    5.3410  -15.0840 C.3    64  ASP64       0.1805
     70  C          3.1890    5.8580  -14.1350 C.2    64  ASP64       0.2598
     71  O          2.5300    5.0750  -13.4580 O.2    64  ASP64      -0.2718
     72  CB         3.5360    5.1440  -16.4330 C.3    64  ASP64       0.1424
     73  CG         4.3980    4.4180  -17.4410 C.2    64  ASP64       0.3668
     74  OD1        5.4890    4.9340  -17.7810 O.co2  64  ASP64      -0.2456
     75  OD2        3.9920    3.3260  -17.8980 O.co2  64  ASP64      -0.2456
     76  N          3.0280    7.1720  -14.0850 N.am   65  TYR65      -0.1962
     77  CA         1.8030    7.7340  -13.5310 C.3    65  TYR65       0.1771
     78  C          1.0200    8.2810  -14.7140 C.2    65  TYR65       0.2620
     79  O          1.6070    8.5080  -15.7840 O.2    65  TYR65      -0.2715
     80  CB         2.0800    8.8990  -12.5820 C.3    65  TYR65       0.0574
     81  CG         2.4930    8.5930  -11.1500 C.ar   65  TYR65      -0.0198
     82  CD1        3.7020    9.0840  -10.6560 C.ar   65  TYR65      -0.0009
     83  CD2        1.6690    7.8790  -10.2800 C.ar   65  TYR65      -0.0009
     84  CE1        4.1020    8.8540   -9.3590 C.ar   65  TYR65       0.0417
     85  CE2        2.0620    7.6390   -8.9720 C.ar   65  TYR65       0.0417
     86  CZ         3.2870    8.1430   -8.5180 C.ar   65  TYR65       0.1957
     87  OH         3.7230    7.9620   -7.2210 O.3    65  TYR65      -0.2866
     88  N         -0.2860    8.4980  -14.5310 N.am   66  SER66      -0.1950
     89  CA        -1.0610    9.3290  -15.4550 C.3    66  SER66       0.1924
     90  C         -2.3490    9.7930  -14.8270 C.2    66  SER66       0.2314
     91  O         -2.9540    9.0980  -13.9930 O.2    66  SER66      -0.2863
     92  CB        -1.3770    8.6190  -16.7590 C.3    66  SER66       0.2116
     93  OG        -2.2310    7.5400  -16.5040 O.3    66  SER66      -0.2180
     94  N         -7.1030    5.8320  -19.7070 N.3    74  PRO74      -0.2102
     95  CA        -5.8370    6.3880  -20.1950 C.3    74  PRO74       0.1504
     96  C         -5.2040    5.4870  -21.2230 C.2    74  PRO74       0.2576
     97  O         -4.0610    5.0860  -21.0460 O.2    74  PRO74      -0.2718
     98  CB        -4.9570    6.4200  -18.9380 C.3    74  PRO74       0.0282
     99  CG        -5.5150    5.3340  -18.0350 C.3    74  PRO74       0.0208
    100  CD        -6.9100    4.9650  -18.5240 C.3    74  PRO74       0.0893
    101  N         -5.9480    5.1530  -22.2700 N.am   75  MET75      -0.1966
    102  CA        -5.4140    4.3360  -23.3550 C.3    75  MET75       0.1736
    103  C         -6.0010    4.7010  -24.7260 C.2    75  MET75       0.2616
    104  O         -7.1450    5.1820  -24.8400 O.2    75  MET75      -0.2715
    105  CB        -5.5380    2.8360  -23.0330 C.3    75  MET75       0.0427
    106  CG        -6.8710    2.3910  -22.4360 C.3    75  MET75       0.0599
    107  SD        -6.6910    0.9530  -21.3530 S.3    75  MET75      -0.1393
    108  CE        -6.2060   -0.3210  -22.5230 C.3    75  MET75       0.0692
    109  N         -5.1910    4.4950  -25.7560 N.am   76  TRP76      -0.1960
    110  CA        -5.5880    4.7260  -27.1390 C.3    76  TRP76       0.1771
    111  C         -7.0300    4.3410  -27.3980 C.2    76  TRP76       0.2619
    112  O         -7.7810    5.0910  -28.0240 O.2    76  TRP76      -0.2715
    113  CB        -4.6990    3.9240  -28.0710 C.3    76  TRP76       0.0590
    114  CG        -3.2780    4.3210  -28.0060 C.ar   76  TRP76       0.0006
    115  CD1       -2.7890    5.5830  -27.8420 C.ar   76  TRP76       0.0946
    116  CD2       -2.1380    3.4640  -28.1320 C.ar   76  TRP76       0.0152
    117  NE1       -1.4120    5.5670  -27.8480 N.ar   76  TRP76      -0.2442
    118  CE2       -0.9880    4.2800  -28.0360 C.ar   76  TRP76       0.0810
    119  CE3       -1.9760    2.0890  -28.3210 C.ar   76  TRP76       0.0012
    120  CZ2        0.3040    3.7690  -28.1120 C.ar   76  TRP76       0.0191
    121  CZ3       -0.6790    1.5780  -28.3960 C.ar   76  TRP76       0.0001
    122  CH2        0.4400    2.4170  -28.2860 C.ar   76  TRP76       0.0015
    123  N         -7.4120    3.1720  -26.9050 N.am   77  GLU77      -0.1977
    124  CA        -8.7520    2.6370  -27.1010 C.3    77  GLU77       0.1602
    125  C         -9.8830    3.5740  -26.7230 C.2    77  GLU77       0.2287
    126  O        -10.9420    3.4760  -27.2800 O.2    77  GLU77      -0.2864
    127  CB        -8.9260    1.3350  -26.3160 C.3    77  GLU77       0.0415
    128  CG        -8.0400    0.1620  -26.7950 C.3    77  GLU77       0.1163
    129  CD        -6.6250    0.2110  -26.2430 C.2    77  GLU77       0.3649
    130  OE1       -6.0250    1.3120  -26.1880 O.co2  77  GLU77      -0.2457
    131  OE2       -6.1130   -0.8610  -25.8720 O.co2  77  GLU77      -0.2457
    132  N         -0.6990   13.4050  -28.7860 N.3    86  ARG86      -0.1245
    133  CA        -0.0050   13.9190  -27.6170 C.3    86  ARG86       0.1563
    134  C          1.1470   14.8800  -27.9190 C.2    86  ARG86       0.2260
    135  O          1.8070   14.7730  -28.9580 O.2    86  ARG86      -0.2867
    136  CB         0.5290   12.7550  -26.7880 C.3    86  ARG86       0.0307
    137  CG         1.6920   12.0660  -27.4500 C.3    86  ARG86       0.0489
    138  CD         2.1260   10.8270  -26.7420 C.3    86  ARG86       0.2205
    139  NE         3.2980   10.2720  -27.4000 N.pl3  86  ARG86      -0.0865
    140  CZ         4.0050    9.2440  -26.9430 C.cat  86  ARG86       0.5346
    141  NH1        5.0490    8.8180  -27.6280 N.pl3  86  ARG86       0.1354
    142  NH2        3.6700    8.6310  -25.8150 N.pl3  86  ARG86       0.1354
    143  N          0.6330   11.7660  -19.2980 N.3   127  VAL127     -0.1245
    144  CA         1.3780   10.5780  -18.8900 C.3   127  VAL127      0.1561
    145  C          2.8570   10.8850  -18.6340 C.2   127  VAL127      0.2260
    146  O          3.4940   11.6210  -19.4110 O.2   127  VAL127     -0.2867
    147  CB         1.2500    9.4450  -19.9230 C.3   127  VAL127      0.0252
    148  CG1        2.0840    8.2470  -19.5070 C.3   127  VAL127      0.0019
    149  CG2       -0.1940    9.0430  -20.1080 C.3   127  VAL127      0.0019
    150  N          6.2730    8.7710  -18.1560 N.3   129  ASN129     -0.1240
    151  CA         6.9480    7.5080  -18.2580 C.3   129  ASN129      0.1653
    152  C          8.2970    7.6370  -17.6360 C.2   129  ASN129      0.2266
    153  O          9.0780    8.4570  -18.0610 O.2   129  ASN129     -0.2867
    154  CB         7.1150    7.1110  -19.7150 C.3   129  ASN129      0.1155
    155  CG         5.8010    6.9710  -20.4260 C.2   129  ASN129      0.2627
    156  OD1        5.5140    7.7320  -21.3460 O.2   129  ASN129     -0.2716
    157  ND2        4.9820    6.0110  -19.9980 N.am  129  ASN129     -0.0877
    158  N         11.6100    5.7610  -17.5610 N.3   131  ARG131     -0.1245
    159  CA        12.4020    4.7410  -18.2710 C.3   131  ARG131      0.1563
    160  C         13.9050    4.9140  -17.9890 C.2   131  ARG131      0.2260
    161  O         14.3920    6.0550  -17.8930 O.2   131  ARG131     -0.2867
    162  CB        12.1410    4.8210  -19.7790 C.3   131  ARG131      0.0307
    163  CG        10.6630    4.8350  -20.1520 C.3   131  ARG131      0.0489
    164  CD         9.9990    3.5410  -19.8180 C.3   131  ARG131      0.2205
    165  NE         8.6660    3.4980  -20.3940 N.pl3 131  ARG131     -0.0865
    166  CZ         7.5390    3.4020  -19.6860 C.cat 131  ARG131      0.5346
    167  NH1        7.5870    3.3180  -18.3530 N.pl3 131  ARG131      0.1354
    168  NH2        6.3590    3.3780  -20.3090 N.pl3 131  ARG131      0.1354
    169  N          9.7190   10.3720  -20.0490 N.3   136  LYS136     -0.1245
    170  CA         8.7010   10.9880  -20.9000 C.3   136  LYS136      0.1561
    171  C          7.5480   11.5870  -20.1220 C.2   136  LYS136      0.2260
    172  O          7.1160   11.0230  -19.1210 O.2   136  LYS136     -0.2867
    173  CB         8.1500    9.9710  -21.8980 C.3   136  LYS136      0.0271
    174  CG         8.7880   10.1070  -23.2680 C.3   136  LYS136      0.0035
    175  CD         8.6040    8.8840  -24.1240 C.3   136  LYS136      0.0206
    176  CE         9.7620    7.9240  -23.9630 C.3   136  LYS136      0.1093
    177  NZ         9.3240    6.5720  -24.3980 N.3   136  LYS136     -0.1314
    178  N         -2.2250   14.3300  -23.4970 N.3   140  TRP140     -0.1241
    179  CA        -3.1450   13.7730  -24.4640 C.3   140  TRP140      0.1605
    180  C         -4.2740   14.7570  -24.8260 C.2   140  TRP140      0.2264
    181  O         -4.9710   15.2750  -23.9480 O.2   140  TRP140     -0.2867
    182  CB        -3.6800   12.4330  -23.9630 C.3   140  TRP140      0.0550
    183  CG        -2.6300   11.3180  -23.9620 C.ar  140  TRP140      0.0003
    184  CD1       -1.2690   11.4460  -23.7220 C.ar  140  TRP140      0.0946
    185  CD2       -2.8610    9.9110  -24.1760 C.ar  140  TRP140      0.0152
    186  NE1       -0.6560   10.2130  -23.7890 N.ar  140  TRP140     -0.2442
    187  CE2       -1.6010    9.2550  -24.0680 C.ar  140  TRP140      0.0810
    188  CE3       -4.0000    9.1420  -24.4630 C.ar  140  TRP140      0.0012
    189  CZ2       -1.4560    7.8530  -24.2400 C.ar  140  TRP140      0.0191
    190  CZ3       -3.8400    7.7330  -24.6340 C.ar  140  TRP140      0.0001
    191  CH2       -2.5810    7.1220  -24.5220 C.ar  140  TRP140      0.0015
    192  N          1.7360    6.6400  -33.4220 N.3   177  THR177     -0.1218
    193  CA         2.4600    6.0500  -32.3200 C.3   177  THR177      0.1862
    194  C          2.1520    4.5460  -32.2410 C.2   177  THR177      0.2287
    195  O          3.0450    3.7370  -31.9960 O.2   177  THR177     -0.2866
    196  CB         2.1210    6.7590  -30.9810 C.3   177  THR177      0.1770
    197  OG1        2.3330    8.1700  -31.1140 O.3   177  THR177     -0.2211
    198  CG2        2.9750    6.2180  -29.8280 C.3   177  THR177      0.0375
@<TRIPOS>BOND
     1   192   193    1
     2   193   194    1
     3   193   196    1
     4   194   195    2
     5   197   196    1
     6   196   198    1
     7   135   134    2
     8   132   133    1
     9   121   119   ar
    10   121   122   ar
    11   119   116   ar
    12   122   120   ar
    13   116   118   ar
    14   116   114   ar
    15   120   118   ar
    16   113   114    1
    17   113   110    1
    18   118   117   ar
    19   112   111    2
    20   114   115   ar
    21   134   133    1
    22   117   115   ar
    23   141   140    1
    24   133   136    1
    25   137   136    1
    26   137   138    1
    27   139   140    2
    28   139   138    1
    29   111   110    1
    30   111   123   am
    31   126   125    2
    32   110   109    1
    33   124   123    1
    34   124   125    1
    35   124   127    1
    36   140   142    1
    37   128   127    1
    38   128   129    1
    39   129   130   ar
    40   129   131   ar
    41   109   103   am
    42   104   103    2
    43   180   179    1
    44   180   181    2
    45   103   102    1
    46   190   191   ar
    47   190   188   ar
    48   191   189   ar
    49   179   182    1
    50   179   178    1
    51   188   185   ar
    52   177   176    1
    53   189   187   ar
    54   185   187   ar
    55   185   183   ar
    56   175   176    1
    57   175   174    1
    58   187   186   ar
    59   182   183    1
    60   183   184   ar
    61   186   184   ar
    62   102   105    1
    63   102   101    1
    64   174   173    1
    65   105   106    1
    66   108   107    1
    67   106   107    1
    68   101    96   am
    69    59    57   am
    70   173   170    1
    71    49    47   ar
    72    49    50   ar
    73    47    44   ar
    74    50    48   ar
    75    44    42   ar
    76    44    46   ar
    77    41    42    1
    78    41    38    1
    79    48    46   ar
    80    42    43   ar
    81    46    45   ar
    82   156   155    2
    83    43    45   ar
    84    96    97    2
    85    96    95    1
    86    56    57    1
    87    56    55    1
    88    57    58    2
    89   170   171    1
    90   170   169    1
    91   155   157   am
    92   155   154    1
    93   165   164    1
    94   165   166    2
    95    55    52    1
    96   168   166    1
    97    37    38    1
    98    95    94    1
    99    95    98    1
   100   163   164    1
   101   163   162    1
   102   171   172    2
   103   149   147    1
   104    38    39    1
   105    51    52    1
   106    51    39   am
   107   147   148    1
   108   147   144    1
   109   162   159    1
   110   154   151    1
   111    94   100    1
   112   166   167    1
   113    52    53    1
   114    39    40    2
   115   146   145    2
   116   143   144    1
   117    98    99    1
   118   144   145    1
   119   100    99    1
   120   159   160    1
   121   159   158    1
   122   151   150    1
   123   151   152    1
   124    36    34   ar
   125    36    35   ar
   126   153   152    2
   127    53    54    2
   128   160   161    2
   129    75    73   ar
   130    34    32   ar
   131    67    65    1
   132    74    73   ar
   133    35    33   ar
   134    73    72    1
   135    66    65    1
   136    32    31   ar
   137    65    64    1
   138    33    31   ar
   139    64    61    1
   140    92    93    1
   141    92    89    1
   142    31    30    1
   143    72    69    1
   144    79    78    2
   145    30    27    1
   146    60    61    1
   147    61    62    1
   148    89    90    1
   149    89    88    1
   150    69    68    1
   151    69    70    1
   152    12    14   ar
   153    12    10   ar
   154     9    10   ar
   155     9     7   ar
   156    14    13   ar
   157    90    91    2
   158    10     8   ar
   159    78    88   am
   160    78    77    1
   161    63    62    2
   162     7     6   ar
   163    13    11   ar
   164     8    11   ar
   165     8     6   ar
   166     6     5    1
   167    27    28    1
   168    27    26    1
   169    70    76   am
   170    70    71    2
   171    76    77    1
   172     5     2    1
   173    28    29    2
   174    77    80    1
   175    26    17   am
   176    18    17    2
   177    17    16    1
   178     4     3    2
   179    80    81    1
   180     2     3    1
   181     2     1    1
   182     3    15   am
   183    15    16    1
   184    16    19    1
   185    81    82   ar
   186    81    83   ar
   187    82    84   ar
   188    19    20    1
   189    20    21   ar
   190    20    22   ar
   191    83    85   ar
   192    21    23   ar
   193    22    24   ar
   194    23    25   ar
   195    24    25   ar
   196    84    86   ar
   197    85    86   ar
   198    86    87    1
