@<TRIPOS>MOLECULE
tmp/4dunA00.pdb
 135 126 0 0 0
SMALL
GASTEIGER

@<TRIPOS>ATOM
      1  N         10.6800   26.8020   63.0940 N.3    44  PRO44      -0.2102
      2  CA         9.8060   26.1650   62.0790 C.3    44  PRO44       0.1504
      3  C         10.2450   26.4600   60.6370 C.2    44  PRO44       0.2575
      4  O         10.2750   25.5590   59.7900 O.2    44  PRO44      -0.2718
      5  CB         8.4360   26.7600   62.3820 C.3    44  PRO44       0.0282
      6  CG         8.4710   26.9820   63.8790 C.3    44  PRO44       0.0208
      7  CD         9.8800   27.4520   64.1650 C.3    44  PRO44       0.0893
      8  N         10.6620   27.7100   60.3960 N.am   45  GLU45      -0.1980
      9  CA        11.2900   28.1260   59.1460 C.3    45  GLU45       0.1602
     10  C         12.3400   29.1820   59.4100 C.2    45  GLU45       0.2287
     11  O         12.1860   29.9950   60.3400 O.2    45  GLU45      -0.2864
     12  CB        10.2670   28.7140   58.1370 C.3    45  GLU45       0.0415
     13  CG         9.3870   27.7070   57.4020 C.3    45  GLU45       0.1163
     14  CD         8.1430   27.2440   58.1370 C.2    45  GLU45       0.3649
     15  OE1        7.7830   27.8470   59.1780 O.co2  45  GLU45      -0.2457
     16  OE2        7.5450   26.2390   57.6870 O.co2  45  GLU45      -0.2457
     17  N         12.7420   24.8040   56.2120 N.3    62  THR62      -0.1218
     18  CA        12.4180   24.2530   57.5260 C.3    62  THR62       0.1862
     19  C         13.7610   23.6810   58.0480 C.2    62  THR62       0.2287
     20  O         14.7150   23.6200   57.2620 O.2    62  THR62      -0.2866
     21  CB        11.3320   23.1530   57.4260 C.3    62  THR62       0.1770
     22  OG1       11.9130   22.0310   56.7540 O.3    62  THR62      -0.2211
     23  CG2       10.0360   23.6280   56.7370 C.3    62  THR62       0.0375
     24  N         11.2790   24.8790   51.1310 N.3    67  ILE67      -0.1245
     25  CA         9.8430   24.8280   50.8210 C.3    67  ILE67       0.1561
     26  C          9.5490   25.8930   49.7750 C.2    67  ILE67       0.2260
     27  O         10.3670   26.8050   49.5830 O.2    67  ILE67      -0.2867
     28  CB         8.9520   24.9270   52.0840 C.3    67  ILE67       0.0252
     29  CG1        9.2140   26.2420   52.8670 C.3    67  ILE67       0.0019
     30  CG2        9.1190   23.6610   52.9460 C.3    67  ILE67       0.0019
     31  CD1        8.2460   26.5110   54.0020 C.3    67  ILE67       0.0001
     32  N          6.5430   27.8280   49.4950 N.3    69  LEU69      -0.1231
     33  CA         5.6390   28.8970   49.9020 C.3    69  LEU69       0.1693
     34  C          5.5570   28.9370   51.4070 C.2    69  LEU69       0.2592
     35  O          5.5110   27.8820   52.0470 O.2    69  LEU69      -0.2718
     36  CB         4.2300   28.6970   49.3020 C.3    69  LEU69       0.0284
     37  CG         3.3350   29.9380   49.1740 C.3    69  LEU69       0.0019
     38  CD1        3.9150   30.9690   48.1840 C.3    69  LEU69       0.0001
     39  CD2        1.9580   29.5490   48.6790 C.3    69  LEU69       0.0001
     40  N          5.4980   30.1480   51.9720 N.am   70  CYS70      -0.1956
     41  CA         5.3570   30.3120   53.3980 C.3    70  CYS70       0.1843
     42  C          4.9080   31.7180   53.7420 C.2    70  CYS70       0.2626
     43  O          5.7410   32.6030   53.9730 O.2    70  CYS70      -0.2714
     44  CB         6.6390   29.9470   54.1260 C.3    70  CYS70       0.0997
     45  SG         6.4190   29.9010   55.9100 S.3    70  CYS70      -0.0797
     46  N          3.5920   31.9280   53.7330 N.am   71  GLY71      -0.1940
     47  CA         3.0190   33.2400   54.0110 C.3    71  GLY71       0.2014
     48  C          3.4230   33.8570   55.3460 C.2    71  GLY71       0.2638
     49  O          3.7770   35.0360   55.3950 O.2    71  GLY71      -0.2714
     50  N          3.3760   33.0810   56.4350 N.am   72  HIS72      -0.1973
     51  CA         3.6770   33.6210   57.7720 C.3    72  HIS72       0.1656
     52  C          5.1770   34.0300   57.8890 C.2    72  HIS72       0.2291
     53  O          5.4600   35.1030   58.4500 O.2    72  HIS72      -0.2864
     54  CB         3.2270   32.6480   58.9100 C.3    72  HIS72       0.0771
     55  CG         3.6870   31.2150   58.7330 C.ar   72  HIS72       0.0820
     56  ND1        4.9170   30.7880   59.2070 N.ar   72  HIS72      -0.2267
     57  CD2        3.0430   30.1520   58.1790 C.ar   72  HIS72       0.1154
     58  CE1        4.9930   29.4910   58.9260 C.ar   72  HIS72       0.1986
     59  NE2        3.9070   29.0670   58.2800 N.ar   72  HIS72      -0.2212
     60  N         -8.1830   22.7280   49.8040 N.3   143  ARG143     -0.1245
     61  CA        -6.8340   22.1390   49.9250 C.3   143  ARG143      0.1563
     62  C         -6.7960   21.3810   51.2800 C.2   143  ARG143      0.2260
     63  O         -6.2970   20.2570   51.3760 O.2   143  ARG143     -0.2867
     64  CB        -5.7700   23.2450   49.8760 C.3   143  ARG143      0.0307
     65  CG        -4.3400   22.7350   50.0680 C.3   143  ARG143      0.0489
     66  CD        -3.3870   23.8440   50.4550 C.3   143  ARG143      0.2205
     67  NE        -3.6690   24.3750   51.7930 N.pl3 143  ARG143     -0.0865
     68  CZ        -3.0780   25.4480   52.3060 C.cat 143  ARG143      0.5346
     69  NH1       -3.4030   25.8740   53.5190 N.pl3 143  ARG143      0.1354
     70  NH2       -2.1460   26.0940   51.6170 N.pl3 143  ARG143      0.1354
     71  N         -4.4470   18.4570   52.8560 N.3   172  LEU172     -0.1245
     72  CA        -3.1110   18.8200   53.3450 C.3   172  LEU172      0.1561
     73  C         -3.1290   18.9760   54.8710 C.2   172  LEU172      0.2260
     74  O         -2.3400   18.3460   55.5750 O.2   172  LEU172     -0.2867
     75  CB        -2.5820   20.1120   52.6720 C.3   172  LEU172      0.0270
     76  CG        -1.2290   20.6670   53.2130 C.3   172  LEU172      0.0019
     77  CD1       -0.0670   19.7320   52.9120 C.3   172  LEU172      0.0001
     78  CD2       -0.9250   22.0380   52.6340 C.3   172  LEU172      0.0001
     79  N         -5.3120   24.9190   63.1960 N.3   189  TYR189     -0.1241
     80  CA        -4.8560   24.2230   61.9960 C.3   189  TYR189      0.1605
     81  C         -3.8630   23.1340   62.3920 C.2   189  TYR189      0.2264
     82  O         -2.8540   23.4240   63.0330 O.2   189  TYR189     -0.2867
     83  CB        -4.2210   25.2440   61.0220 C.3   189  TYR189      0.0534
     84  CG        -3.8460   24.6840   59.6700 C.ar  189  TYR189     -0.0201
     85  CD1       -2.6520   23.9920   59.4860 C.ar  189  TYR189     -0.0009
     86  CD2       -4.6090   24.9690   58.5420 C.ar  189  TYR189     -0.0009
     87  CE1       -2.2820   23.5030   58.2260 C.ar  189  TYR189      0.0417
     88  CE2       -4.2560   24.4790   57.2810 C.ar  189  TYR189      0.0417
     89  CZ        -3.0900   23.7470   57.1280 C.ar  189  TYR189      0.1957
     90  OH        -2.7330   23.2740   55.8890 O.3   189  TYR189     -0.2866
     91  N         -1.2730   19.9200   61.2470 N.3   191  CYS191     -0.1235
     92  CA        -0.3720   19.3800   60.2290 C.3   191  CYS191      0.1677
     93  C         -0.0440   17.9320   60.6090 C.2   191  CYS191      0.2270
     94  O          0.9010   17.6960   61.3820 O.2   191  CYS191     -0.2867
     95  CB         0.8850   20.2400   60.1170 C.3   191  CYS191      0.0956
     96  SG         0.5530   22.0160   60.0230 S.3   191  CYS191     -0.0801
     97  N          3.5040   16.5620   59.9640 N.3   194  LEU194     -0.1245
     98  CA         4.4930   17.2650   60.7700 C.3   194  LEU194      0.1561
     99  C          4.3030   16.9490   62.2710 C.2   194  LEU194      0.2260
    100  O          5.1470   17.3510   63.0780 O.2   194  LEU194     -0.2867
    101  CB         4.4180   18.7900   60.5180 C.3   194  LEU194      0.0270
    102  CG         4.8540   19.2950   59.1260 C.3   194  LEU194      0.0019
    103  CD1        4.5120   20.7670   58.9470 C.3   194  LEU194      0.0001
    104  CD2        6.3580   19.0920   58.8950 C.3   194  LEU194      0.0001
    105  N          2.2160   18.2690   64.3000 N.3   196  SER196     -0.1217
    106  CA         2.1940   19.5500   64.9940 C.3   196  SER196      0.1889
    107  C          0.9850   20.3820   64.6500 C.2   196  SER196      0.2288
    108  O          0.3330   20.1850   63.6150 O.2   196  SER196     -0.2866
    109  CB         3.4590   20.3410   64.6550 C.3   196  SER196      0.2089
    110  OG         3.5150   20.6250   63.2680 O.3   196  SER196     -0.2183
    111  N         -0.1710   24.1340   63.7190 N.3   198  ASP198     -0.1239
    112  CA         0.4210   25.3560   63.1760 C.3   198  ASP198      0.1674
    113  C          0.0390   26.5600   64.0680 C.2   198  ASP198      0.2266
    114  O         -1.1420   26.7480   64.3420 O.2   198  ASP198     -0.2867
    115  CB        -0.1090   25.5580   61.7550 C.3   198  ASP198      0.1410
    116  CG         0.7340   26.4260   60.8520 C.2   198  ASP198      0.3668
    117  OD1        1.9310   26.6850   61.1960 O.co2 198  ASP198     -0.2456
    118  OD2        0.2380   26.7960   59.7820 O.co2 198  ASP198     -0.2456
    119  N         -1.8740   30.3630   60.6250 N.3   201  THR201     -0.1203
    120  CA        -1.9040   29.9750   59.2180 C.3   201  THR201      0.1994
    121  C         -2.6010   31.0460   58.3820 C.2   201  THR201      0.2618
    122  O         -3.7930   31.2830   58.5560 O.2   201  THR201     -0.2717
    123  CB        -2.6410   28.6180   59.0730 C.3   201  THR201      0.1784
    124  OG1       -2.2180   27.7080   60.0940 O.3   201  THR201     -0.2211
    125  CG2       -2.4690   27.9880   57.6640 C.3   201  THR201      0.0376
    126  N         -1.8670   31.6730   57.4750 N.am  202  GLY202     -0.1942
    127  CA        -2.4860   32.6680   56.6060 C.3   202  GLY202      0.2014
    128  C         -3.3800   32.0630   55.5340 C.2   202  GLY202      0.2639
    129  O         -4.5050   32.5220   55.3360 O.2   202  GLY202     -0.2714
    130  N         -2.9080   31.0130   54.8520 N.am  203  SER203     -0.1949
    131  CA        -3.5930   30.4320   53.6740 C.3   203  SER203      0.1924
    132  C         -4.9470   29.7570   53.9790 C.2   203  SER203      0.2314
    133  O         -5.8030   29.7290   53.0930 O.2   203  SER203     -0.2863
    134  CB        -2.6880   29.4630   52.9240 C.3   203  SER203      0.2116
    135  OG        -2.2290   28.4040   53.7450 O.3   203  SER203     -0.2180
@<TRIPOS>BOND
     1    38    37    1
     2    39    37    1
     3    37    36    1
     4    36    33    1
     5    32    33    1
     6    27    26    2
     7    26    25    1
     8    60    61    1
     9    64    61    1
    10    64    65    1
    11    33    34    1
    12    61    62    1
    13    65    66    1
    14    66    67    1
    15    25    24    1
    16    25    28    1
    17    62    63    2
    18    34    40   am
    19    34    35    2
    20    70    68    1
    21    67    68    2
    22    40    41    1
    23    28    29    1
    24    28    30    1
    25    68    69    1
    26    78    76    1
    27    75    76    1
    28    75    72    1
    29    71    72    1
    30    29    31    1
    31    77    76    1
    32   134   131    1
    33   134   135    1
    34   133   132    2
    35    72    73    1
    36    41    42    1
    37    41    44    1
    38   131   132    1
    39   131   130    1
    40    46    42   am
    41    46    47    1
    42    42    43    2
    43    47    48    1
    44    44    45    1
    45   130   128   am
    46    73    74    2
    47   129   128    2
    48    48    49    2
    49    48    50   am
    50   128   127    1
    51    90    89    1
    52    17    18    1
    53    50    51    1
    54   127   126    1
    55    23    21    1
    56    22    21    1
    57    89    88   ar
    58    89    87   ar
    59    20    19    2
    60    88    86   ar
    61    13    14    1
    62    13    12    1
    63    21    18    1
    64   126   121   am
    65    18    19    1
    66   125   123    1
    67    16    14   ar
    68    51    52    1
    69    51    54    1
    70    52    53    2
    71    14    15   ar
    72    12     9    1
    73    57    59   ar
    74    57    55   ar
    75    87    85   ar
    76    59    58   ar
    77   121   122    2
    78   121   120    1
    79    86    84   ar
    80    55    54    1
    81    55    56   ar
    82   104   102    1
    83    58    56   ar
    84   103   102    1
    85   123   120    1
    86   123   124    1
    87   102   101    1
    88     9    10    1
    89     9     8    1
    90   120   119    1
    91    10    11    2
    92    85    84   ar
    93    84    83    1
    94   118   116   ar
    95     4     3    2
    96    97    98    1
    97    96    95    1
    98    95    92    1
    99    92    93    1
   100    92    91    1
   101     8     3   am
   102   101    98    1
   103    93    94    2
   104     3     2    1
   105    98    99    1
   106   116   117   ar
   107   116   115    1
   108    83    80    1
   109   115   112    1
   110    80    81    1
   111    80    79    1
   112     2     5    1
   113     2     1    1
   114    99   100    2
   115     5     6    1
   116    81    82    2
   117     1     7    1
   118   112   111    1
   119   112   113    1
   120   110   109    1
   121   108   107    2
   122     6     7    1
   123   113   114    2
   124   105   106    1
   125   107   106    1
   126   109   106    1
