@<TRIPOS>MOLECULE
tmp/4dusA00.pdb
 240 227 0 0 0
SMALL
GASTEIGER

@<TRIPOS>ATOM
      1  N         76.7680   45.0310    1.2630 N.3    14  GLN14      -0.1245
      2  CA        76.9450   46.3200    1.9680 C.3    14  GLN14       0.1566
      3  C         75.9560   47.4400    1.5920 C.2    14  GLN14       0.2260
      4  O         76.1430   48.5840    2.0160 O.2    14  GLN14      -0.2867
      5  CB        78.3670   46.8550    1.7900 C.3    14  GLN14       0.0367
      6  CG        79.4640   45.8810    2.1550 C.3    14  GLN14       0.0905
      7  CD        80.8380   46.5180    2.1710 C.2    14  GLN14       0.2608
      8  OE1       81.7010   46.0850    2.9180 O.2    14  GLN14      -0.2717
      9  NE2       81.0490   47.5490    1.3550 N.am   14  GLN14      -0.0878
     10  N         73.4360   55.4240    1.9640 N.3    32  LEU32      -0.1245
     11  CA        72.7270   54.1910    1.6930 C.3    32  LEU32       0.1561
     12  C         71.2430   54.4850    1.4700 C.2    32  LEU32       0.2260
     13  O         70.6070   55.2370    2.2330 O.2    32  LEU32      -0.2867
     14  CB        72.9520   53.1790    2.8160 C.3    32  LEU32       0.0270
     15  CG        72.3730   51.7840    2.5590 C.3    32  LEU32       0.0019
     16  CD1       73.2010   50.7040    3.2350 C.3    32  LEU32       0.0001
     17  CD2       70.9210   51.6770    3.0080 C.3    32  LEU32       0.0001
     18  N         67.5330   53.3690    1.4960 N.3    34  ASP34      -0.1239
     19  CA        66.8190   52.4130    2.3360 C.3    34  ASP34       0.1674
     20  C         65.2900   52.5950    2.3420 C.2    34  ASP34       0.2266
     21  O         64.7570   53.4260    3.0900 O.2    34  ASP34      -0.2867
     22  CB        67.3580   52.5200    3.7710 C.3    34  ASP34       0.1410
     23  CG        66.6690   51.5890    4.7220 C.2    34  ASP34       0.3668
     24  OD1       66.1250   50.5540    4.2870 O.co2  34  ASP34      -0.2456
     25  OD2       66.6890   51.8770    5.9280 O.co2  34  ASP34      -0.2456
     26  N         63.3860   50.7420    3.6720 N.3    36  GLY36      -0.1210
     27  CA        62.9180   50.1030    4.9010 C.3    36  GLY36       0.1956
     28  C         62.9570   50.9300    6.1790 C.2    36  GLY36       0.2613
     29  O         62.8110   50.3830    7.2700 O.2    36  GLY36      -0.2717
     30  N         63.1570   52.2330    6.0550 N.am   37  SER37      -0.1938
     31  CA        63.1850   53.1340    7.1920 C.3    37  SER37       0.2055
     32  C         62.9010   54.5450    6.6980 C.2    37  SER37       0.2644
     33  O         62.8190   54.7670    5.4930 O.2    37  SER37      -0.2714
     34  CB        64.5190   53.0460    7.9480 C.3    37  SER37       0.2130
     35  OG        65.6100   53.5930    7.2190 O.3    37  SER37      -0.2179
     36  N         62.7400   55.4960    7.6110 N.am   38  SER38      -0.1935
     37  CA        62.2980   56.8380    7.2330 C.3    38  SER38       0.2055
     38  C         63.1220   57.9650    7.8720 C.2    38  SER38       0.2643
     39  O         62.7540   59.1340    7.8000 O.2    38  SER38      -0.2714
     40  CB        60.8170   56.9990    7.5480 C.3    38  SER38       0.2130
     41  OG        60.1160   55.8130    7.1960 O.3    38  SER38      -0.2179
     42  N         64.2560   57.6130    8.4640 N.am   39  ASN39      -0.1971
     43  CA        65.2020   58.6190    8.9000 C.3    39  ASN39       0.1688
     44  C         66.3190   58.9110    7.9050 C.2    39  ASN39       0.2292
     45  O         66.9050   58.0030    7.3130 O.2    39  ASN39      -0.2864
     46  CB        65.7940   58.2350   10.2490 C.3    39  ASN39       0.1181
     47  CG        64.8630   58.5540   11.3860 C.2    39  ASN39       0.2629
     48  OD1       64.9430   59.6380   11.9770 O.2    39  ASN39      -0.2716
     49  ND2       63.9450   57.6350   11.6770 N.am   39  ASN39      -0.0877
     50  N         67.9530   55.2010   17.0060 N.3    71  VAL71      -0.1231
     51  CA        67.4070   54.3060   15.9810 C.3    71  VAL71       0.1678
     52  C         68.1720   52.9860   15.9190 C.2    71  VAL71       0.2434
     53  O         69.3210   52.9670   15.4760 O.2    71  VAL71      -0.2733
     54  CB        67.4040   54.9600   14.5730 C.3    71  VAL71       0.0265
     55  CG1       66.9960   53.9630   13.5070 C.3    71  VAL71       0.0020
     56  CG2       66.4850   56.1700   14.5130 C.3    71  VAL71       0.0020
     57  N         67.5370   51.8780   16.3720 N.am   72  PRO72      -0.2718
     58  CA        68.0070   50.5050   16.1410 C.3    72  PRO72       0.1535
     59  C         67.3320   49.8670   14.9170 C.2    72  PRO72       0.2599
     60  O         66.1120   49.9810   14.7390 O.2    72  PRO72      -0.2715
     61  CB        67.5320   49.7740   17.3910 C.3    72  PRO72       0.0310
     62  CG        66.2360   50.4460   17.7050 C.3    72  PRO72       0.0237
     63  CD        66.3570   51.8870   17.2570 C.3    72  PRO72       0.0939
     64  N         68.1310   49.2040   14.0930 N.am   73  TYR73      -0.1960
     65  CA        67.6500   48.5040   12.9260 C.3    73  TYR73       0.1771
     66  C         67.5470   47.0060   13.2550 C.2    73  TYR73       0.2620
     67  O         67.2440   46.6560   14.3960 O.2    73  TYR73      -0.2715
     68  CB        68.5820   48.7820   11.7550 C.3    73  TYR73       0.0574
     69  CG        68.5960   50.2430   11.3680 C.ar   73  TYR73      -0.0198
     70  CD1       67.5870   50.7780   10.5640 C.ar   73  TYR73      -0.0009
     71  CD2       69.6020   51.0950   11.8120 C.ar   73  TYR73      -0.0009
     72  CE1       67.5800   52.1190   10.2190 C.ar   73  TYR73       0.0417
     73  CE2       69.6020   52.4370   11.4670 C.ar   73  TYR73       0.0417
     74  CZ        68.5950   52.9440   10.6640 C.ar   73  TYR73       0.1957
     75  OH        68.5860   54.2770   10.3080 O.3    73  TYR73      -0.2866
     76  N         67.7680   46.1290   12.2760 N.am   74  THR74      -0.1937
     77  CA        67.6630   44.6870   12.5110 C.3    74  THR74       0.2028
     78  C         68.8730   44.2850   13.3190 C.2    74  THR74       0.2642
     79  O         68.7500   43.6740   14.3790 O.2    74  THR74      -0.2714
     80  CB        67.5320   43.8880   11.1970 C.3    74  THR74       0.1808
     81  OG1       66.2150   44.0890   10.6600 O.3    74  THR74      -0.2208
     82  CG2       67.7440   42.4030   11.4350 C.3    74  THR74       0.0379
     83  N         70.0460   44.6250   12.8040 N.am   75  GLN75      -0.1976
     84  CA        71.1540   44.9310   13.6790 C.3    75  GLN75       0.1601
     85  C         71.7340   46.2920   13.3250 C.2    75  GLN75       0.2287
     86  O         71.6700   46.7550   12.1670 O.2    75  GLN75      -0.2864
     87  CB        72.2440   43.8580   13.6920 C.3    75  GLN75       0.0394
     88  CG        73.3270   44.1400   14.7520 C.3    75  GLN75       0.0908
     89  CD        72.8090   44.1320   16.1950 C.2    75  GLN75       0.2608
     90  OE1       72.5850   43.0710   16.7840 O.2    75  GLN75      -0.2717
     91  NE2       72.6340   45.3220   16.7720 N.am   75  GLN75      -0.0878
     92  N         77.6120   48.9190   15.8560 N.3   109  LYS109     -0.1231
     93  CA        77.5190   47.8940   14.8100 C.3   109  LYS109      0.1693
     94  C         76.6330   48.3480   13.6470 C.2   109  LYS109      0.2592
     95  O         75.9370   47.5640   13.0060 O.2   109  LYS109     -0.2718
     96  CB        77.1260   46.5240   15.3940 C.3   109  LYS109      0.0285
     97  CG        78.2100   45.9320   16.3080 C.3   109  LYS109      0.0035
     98  CD        77.7940   44.6090   16.9340 C.3   109  LYS109      0.0206
     99  CE        78.9470   43.9960   17.7240 C.3   109  LYS109      0.1093
    100  NZ        78.6890   42.5790   18.1370 N.3   109  LYS109     -0.1314
    101  N         76.7140   49.6460   13.3760 N.am  110  PHE110     -0.1976
    102  CA        75.9840   50.2630   12.2960 C.3   110  PHE110      0.1639
    103  C         76.8470   50.3880   11.0420 C.2   110  PHE110      0.2290
    104  O         76.5320   49.7890   10.0200 O.2   110  PHE110     -0.2864
    105  CB        75.4400   51.6190   12.7250 C.3   110  PHE110      0.0560
    106  CG        74.6840   52.3240   11.6450 C.ar  110  PHE110     -0.0200
    107  CD1       73.4850   51.7880   11.1440 C.ar  110  PHE110     -0.0042
    108  CD2       75.1650   53.5100   11.1090 C.ar  110  PHE110     -0.0042
    109  CE1       72.7790   52.4330   10.1380 C.ar  110  PHE110     -0.0003
    110  CE2       74.4600   54.1540   10.0970 C.ar  110  PHE110     -0.0003
    111  CZ        73.2660   53.6180    9.6150 C.ar  110  PHE110     -0.0000
    112  N         79.7430   49.8860    8.3190 N.3   112  ILE112     -0.1245
    113  CA        80.4430   48.6790    7.9060 C.3   112  ILE112      0.1561
    114  C         81.8910   49.0280    7.6210 C.2   112  ILE112      0.2260
    115  O         82.1780   49.9270    6.8310 O.2   112  ILE112     -0.2867
    116  CB        79.7810   48.0200    6.6740 C.3   112  ILE112      0.0252
    117  CG1       78.3510   47.6280    6.9920 C.3   112  ILE112      0.0019
    118  CG2       80.5410   46.7710    6.2440 C.3   112  ILE112      0.0019
    119  CD1       77.5670   47.2080    5.7770 C.3   112  ILE112      0.0001
    120  N         80.0990   54.1570    2.3940 N.3   117  TRP117     -0.1241
    121  CA        78.9580   55.0280    2.6960 C.3   117  TRP117      0.1605
    122  C         79.0050   55.5210    4.1140 C.2   117  TRP117      0.2264
    123  O         79.5090   54.8220    5.0210 O.2   117  TRP117     -0.2867
    124  CB        77.5850   54.3740    2.3480 C.3   117  TRP117      0.0550
    125  CG        77.2830   53.0720    3.0500 C.ar  117  TRP117      0.0003
    126  CD1       77.4650   51.7760    2.5590 C.ar  117  TRP117      0.0946
    127  CD2       76.7330   52.8920    4.4030 C.ar  117  TRP117      0.0152
    128  NE1       77.0790   50.8410    3.4850 N.ar  117  TRP117     -0.2442
    129  CE2       76.6420   51.4430    4.6190 C.ar  117  TRP117      0.0810
    130  CE3       76.3300   53.7520    5.4180 C.ar  117  TRP117      0.0012
    131  CZ2       76.1640   50.9100    5.8060 C.ar  117  TRP117      0.0191
    132  CZ3       75.8580   53.2030    6.6050 C.ar  117  TRP117      0.0001
    133  CH2       75.7640   51.8170    6.7890 C.ar  117  TRP117      0.0015
    134  N         72.5360   57.1230    5.8120 N.3   120  ILE120     -0.1245
    135  CA        71.4220   56.2980    5.3890 C.3   120  ILE120      0.1561
    136  C         70.2250   57.1940    5.0550 C.2   120  ILE120      0.2260
    137  O         69.9290   58.1620    5.7730 O.2   120  ILE120     -0.2867
    138  CB        71.0750   55.2600    6.4790 C.3   120  ILE120      0.0252
    139  CG1       69.9090   54.3670    6.0420 C.3   120  ILE120      0.0019
    140  CG2       70.7950   55.9440    7.8220 C.3   120  ILE120      0.0019
    141  CD1       69.8250   53.0640    6.7970 C.3   120  ILE120      0.0001
    142  N         56.8600   55.6860   10.7740 N.3   128  ILE128     -0.1245
    143  CA        57.8990   54.8590   11.3830 C.3   128  ILE128      0.1561
    144  C         59.1910   55.6210   11.6560 C.2   128  ILE128      0.2260
    145  O         60.1630   55.0440   12.1530 O.2   128  ILE128     -0.2867
    146  CB        58.1680   53.5640   10.5930 C.3   128  ILE128      0.0252
    147  CG1       58.6720   53.8840    9.1770 C.3   128  ILE128      0.0019
    148  CG2       56.9160   52.6880   10.5870 C.3   128  ILE128      0.0019
    149  CD1       59.2450   52.7000    8.4410 C.3   128  ILE128      0.0001
    150  N         61.6990   58.1280   13.6560 N.3   130  ARG130     -0.1245
    151  CA        61.9950   58.3800   15.0690 C.3   130  ARG130      0.1563
    152  C         62.4810   59.8110   15.2470 C.2   130  ARG130      0.2260
    153  O         63.1220   60.3500   14.3370 O.2   130  ARG130     -0.2867
    154  CB        63.0260   57.3980   15.6150 C.3   130  ARG130      0.0307
    155  CG        62.3970   56.2800   16.4320 C.3   130  ARG130      0.0489
    156  CD        62.1050   55.0700   15.5690 C.3   130  ARG130      0.2205
    157  NE        61.3940   53.9900   16.2600 N.pl3 130  ARG130     -0.0865
    158  CZ        60.2510   53.4380   15.8420 C.cat 130  ARG130      0.5346
    159  NH1       59.7150   52.4540   16.5410 N.pl3 130  ARG130      0.1354
    160  NH2       59.6360   53.8620   14.7390 N.pl3 130  ARG130      0.1354
    161  N         55.9080   51.3830    6.5820 N.3   189  TYR189     -0.1241
    162  CA        56.8640   50.7560    5.6480 C.3   189  TYR189      0.1605
    163  C         56.1910   50.7000    4.2830 C.2   189  TYR189      0.2264
    164  O         55.0460   51.1360    4.1390 O.2   189  TYR189     -0.2867
    165  CB        57.1800   49.3120    6.0300 C.3   189  TYR189      0.0534
    166  CG        57.8650   49.1410    7.3370 C.ar  189  TYR189     -0.0201
    167  CD1       59.2540   49.2780    7.4490 C.ar  189  TYR189     -0.0009
    168  CD2       57.1300   48.8260    8.4790 C.ar  189  TYR189     -0.0009
    169  CE1       59.8830   49.1060    8.6770 C.ar  189  TYR189      0.0417
    170  CE2       57.7470   48.6600    9.7080 C.ar  189  TYR189      0.0417
    171  CZ        59.1130   48.7990    9.8030 C.ar  189  TYR189      0.1957
    172  OH        59.6940   48.6420   11.0330 O.3   189  TYR189     -0.2866
    173  N         53.7050   41.1610    8.6330 N.3   215  LYS215     -0.1245
    174  CA        53.6690   42.0590    7.4820 C.3   215  LYS215      0.1561
    175  C         54.5560   41.5400    6.3870 C.2   215  LYS215      0.2260
    176  O         55.4240   40.6980    6.6300 O.2   215  LYS215     -0.2867
    177  CB        54.1250   43.4650    7.8690 C.3   215  LYS215      0.0271
    178  CG        55.5680   43.5340    8.3570 C.3   215  LYS215      0.0035
    179  CD        55.8480   44.8870    9.0070 C.3   215  LYS215      0.0206
    180  CE        57.1970   44.9080    9.7130 C.3   215  LYS215      0.1093
    181  NZ        57.2070   44.1590   11.0030 N.3   215  LYS215     -0.1314
    182  N         56.9980   43.4680    3.3730 N.3   217  ILE217     -0.1245
    183  CA        57.4200   44.8060    2.9630 C.3   217  ILE217      0.1561
    184  C         58.4690   44.7750    1.8810 C.2   217  ILE217      0.2260
    185  O         59.1020   43.7470    1.6560 O.2   217  ILE217     -0.2867
    186  CB        57.8860   45.6880    4.1590 C.3   217  ILE217      0.0252
    187  CG1       59.1540   45.1290    4.8060 C.3   217  ILE217      0.0019
    188  CG2       56.7820   45.8620    5.1860 C.3   217  ILE217      0.0019
    189  CD1       59.8780   46.1460    5.6760 C.3   217  ILE217      0.0001
    190  N         61.9650   46.2290    0.9960 N.3   219  ASP219     -0.1239
    191  CA        63.0620   46.8430    1.7250 C.3   219  ASP219      0.1674
    192  C         64.4220   46.7460    1.0490 C.2   219  ASP219      0.2266
    193  O         65.0800   45.7090    1.1220 O.2   219  ASP219     -0.2867
    194  CB        63.1790   46.2170    3.1020 C.3   219  ASP219      0.1410
    195  CG        64.1450   46.9500    3.9740 C.2   219  ASP219      0.3668
    196  OD1       64.9680   47.7350    3.4630 O.co2 219  ASP219     -0.2456
    197  OD2       64.0660   46.7530    5.1850 O.co2 219  ASP219     -0.2456
    198  N         67.1150   48.1070    2.0340 N.3   221  GLY221     -0.1210
    199  CA        68.1970   48.1160    3.0230 C.3   221  GLY221      0.1956
    200  C         68.4310   46.7340    3.6150 C.2   221  GLY221      0.2613
    201  O         69.2290   46.5830    4.5450 O.2   221  GLY221     -0.2717
    202  N         67.7040   45.7400    3.0890 N.am  222  THR222     -0.1938
    203  CA        67.8690   44.3250    3.4430 C.3   222  THR222      0.2028
    204  C         68.3380   43.5510    2.2170 C.2   222  THR222      0.2642
    205  O         67.8410   43.7510    1.1050 O.2   222  THR222     -0.2714
    206  CB        66.5650   43.6990    3.9450 C.3   222  THR222      0.1808
    207  OG1       66.1080   44.3760    5.1240 O.3   222  THR222     -0.2208
    208  CG2       66.7710   42.2530    4.2720 C.3   222  THR222      0.0379
    209  N         69.3120   42.6770    2.4290 N.am  223  THR223     -0.1950
    210  CA        69.9450   41.9320    1.3550 C.3   223  THR223      0.1897
    211  C         69.0820   40.7670    0.8720 C.2   223  THR223      0.2313
    212  O         68.9140   40.5530   -0.3370 O.2   223  THR223     -0.2863
    213  CB        71.3090   41.3910    1.8380 C.3   223  THR223      0.1794
    214  OG1       72.1080   42.4870    2.2890 O.3   223  THR223     -0.2208
    215  CG2       72.0490   40.6460    0.7310 C.3   223  THR223      0.0378
    216  N         63.6110   37.3300    2.8360 N.3   226  ARG226     -0.1245
    217  CA        63.4530   36.8610    4.1940 C.3   226  ARG226      0.1563
    218  C         62.0120   36.4340    4.4510 C.2   226  ARG226      0.2260
    219  O         61.1230   37.2730    4.6380 O.2   226  ARG226     -0.2867
    220  CB        63.8840   37.9460    5.1820 C.3   226  ARG226      0.0307
    221  CG        65.3860   38.2190    5.1680 C.3   226  ARG226      0.0489
    222  CD        65.7770   39.3690    6.0900 C.3   226  ARG226      0.2205
    223  NE        65.8320   38.9950    7.5050 N.pl3 226  ARG226     -0.0865
    224  CZ        64.8830   39.2700    8.3980 C.cat 226  ARG226      0.5346
    225  NH1       63.7810   39.9050    8.0330 N.pl3 226  ARG226      0.1354
    226  NH2       65.0260   38.8870    9.6590 N.pl3 226  ARG226      0.1354
    227  N         59.9100   39.0530   11.4850 N.3   309  THR309     -0.1218
    228  CA        59.0350   40.2240   11.6010 C.3   309  THR309      0.1862
    229  C         58.0850   40.3500   10.3970 C.2   309  THR309      0.2287
    230  O         57.3620   41.3440   10.2650 O.2   309  THR309     -0.2866
    231  CB        59.8270   41.5400   11.8280 C.3   309  THR309      0.1770
    232  OG1       61.2130   41.2570   12.0560 O.3   309  THR309     -0.2211
    233  CG2       59.2490   42.3190   13.0240 C.3   309  THR309      0.0375
    234  N         60.2380   40.0580    4.0180 N.3   312  VAL312     -0.1245
    235  CA        61.0050   41.2220    3.6240 C.3   312  VAL312      0.1561
    236  C         61.5110   40.9270    2.2300 C.2   312  VAL312      0.2260
    237  O         62.2750   39.9890    2.0030 O.2   312  VAL312     -0.2867
    238  CB        62.1770   41.5670    4.5920 C.3   312  VAL312      0.0252
    239  CG1       62.9760   42.7460    4.0650 C.3   312  VAL312      0.0019
    240  CG2       61.6770   41.9280    5.9760 C.3   312  VAL312      0.0019
@<TRIPOS>BOND
     1   212   211    2
     2   215   213    1
     3   211   210    1
     4   190   191    1
     5   192   193    2
     6   192   191    1
     7   205   204    2
     8     1     2    1
     9     9     7   am
    10   210   213    1
    11   210   209    1
    12    12    11    1
    13    12    13    2
    14    18    19    1
    15     3     2    1
    16     3     4    2
    17   185   184    2
    18    11    10    1
    19    11    14    1
    20   191   194    1
    21     5     2    1
    22     5     6    1
    23   213   214    1
    24   184   183    1
    25   237   236    2
    26   198   199    1
    27     6     7    1
    28     7     8    2
    29   204   209   am
    30   204   203    1
    31   236   235    1
    32    19    20    1
    33    19    22    1
    34    20    21    2
    35   124   121    1
    36   124   125    1
    37   120   121    1
    38    15    14    1
    39    15    17    1
    40    15    16    1
    41   126   125   ar
    42   126   128   ar
    43   121   122    1
    44   216   217    1
    45   183   182    1
    46   183   186    1
    47   199   200    1
    48   125   127   ar
    49   202   203    1
    50   202   200   am
    51   194   195    1
    52   203   206    1
    53   196   195   ar
    54   128   129   ar
    55   200   201    2
    56   235   234    1
    57   235   238    1
    58    26    27    1
    59    22    23    1
    60   206   208    1
    61   206   207    1
    62   195   197   ar
    63   239   238    1
    64   122   123    2
    65   164   163    2
    66   186   187    1
    67   186   188    1
    68   217   218    1
    69   217   220    1
    70   163   162    1
    71    24    23   ar
    72   127   129   ar
    73   127   130   ar
    74   218   219    2
    75   238   240    1
    76   129   131   ar
    77    23    25   ar
    78   187   189    1
    79    27    28    1
    80   136   135    1
    81   136   137    2
    82   221   220    1
    83   221   222    1
    84   135   134    1
    85   135   138    1
    86   130   132   ar
    87    33    32    2
    88   162   165    1
    89   162   161    1
    90   119   117    1
    91   131   133   ar
    92   165   166    1
    93   139   138    1
    94   139   141    1
    95    30    28   am
    96    30    31    1
    97   222   223    1
    98    28    29    2
    99   118   116    1
   100   175   176    2
   101   175   174    1
   102   138   140    1
   103   132   133   ar
   104   116   117    1
   105   116   113    1
   106    32    31    1
   107    32    36   am
   108   115   114    2
   109    31    34    1
   110    41    40    1
   111    35    34    1
   112    37    40    1
   113    37    36    1
   114    37    38    1
   115    45    44    2
   116   166   167   ar
   117   166   168   ar
   118   167   169   ar
   119   174   177    1
   120   174   173    1
   121   223   224    2
   122   114   113    1
   123    39    38    2
   124   177   178    1
   125    38    42   am
   126    44    43    1
   127   113   112    1
   128   225   224    1
   129   178   179    1
   130   224   226    1
   131   149   147    1
   132    42    43    1
   133   168   170   ar
   134   169   171   ar
   135    43    46    1
   136   179   180    1
   137   147   146    1
   138   111   110   ar
   139   111   109   ar
   140   170   171   ar
   141   180   181    1
   142   171   172    1
   143   104   103    2
   144   110   108   ar
   145   109   107   ar
   146    72    70   ar
   147    72    74   ar
   148    46    47    1
   149   230   229    2
   150    75    74    1
   151   229   228    1
   152    70    69   ar
   153   148   146    1
   154   146   143    1
   155    81    80    1
   156    74    73   ar
   157   142   143    1
   158   103   102    1
   159   108   106   ar
   160   107   106   ar
   161    80    82    1
   162    80    77    1
   163    69    68    1
   164    69    71   ar
   165   143   144    1
   166    47    49   am
   167    47    48    2
   168    73    71   ar
   169   227   228    1
   170   228   231    1
   171   106   105    1
   172   144   145    2
   173    68    65    1
   174   231   232    1
   175   231   233    1
   176    86    85    2
   177    76    77    1
   178    76    66   am
   179   102   105    1
   180   102   101    1
   181    77    78    1
   182    83    78   am
   183    83    84    1
   184    65    66    1
   185    65    64    1
   186    95    94    2
   187    66    67    2
   188    78    79    2
   189    85    84    1
   190   101    94   am
   191    55    54    1
   192    94    93    1
   193   150   151    1
   194    84    87    1
   195    87    88    1
   196    64    59   am
   197   153   152    2
   198    56    54    1
   199    54    51    1
   200   160   158    1
   201    60    59    2
   202    88    89    1
   203    93    96    1
   204    93    92    1
   205    59    58    1
   206   151   152    1
   207   151   154    1
   208    96    97    1
   209    53    52    2
   210   156   157    1
   211   156   155    1
   212   154   155    1
   213   158   157    2
   214   158   159    1
   215    52    51    1
   216    52    57   am
   217    51    50    1
   218    58    57    1
   219    58    61    1
   220    89    91   am
   221    89    90    2
   222    97    98    1
   223    57    63    1
   224    98    99    1
   225    63    62    1
   226    61    62    1
   227    99   100    1
