@<TRIPOS>MOLECULE
tmp/4dv8A00.pdb
 195 187 0 0 0
SMALL
GASTEIGER

@<TRIPOS>ATOM
      1  N         20.0130   25.5750   23.1340 N.3    64  ASP64      -0.1239
      2  CA        19.7220   24.2010   23.5330 C.3    64  ASP64       0.1674
      3  C         18.7340   23.4910   22.5960 C.2    64  ASP64       0.2266
      4  O         18.3270   22.3680   22.8670 O.2    64  ASP64      -0.2867
      5  CB        19.2440   24.1390   24.9900 C.3    64  ASP64       0.1410
      6  CG        18.0400   25.0200   25.2580 C.2    64  ASP64       0.3668
      7  OD1       17.2590   25.2680   24.3180 O.co2  64  ASP64      -0.2456
      8  OD2       17.8620   25.4570   26.4200 O.co2  64  ASP64      -0.2456
      9  N          6.0750   14.9010   20.1900 N.3   378  GLN378     -0.1245
     10  CA         6.3850   16.3280   20.2090 C.3   378  GLN378      0.1566
     11  C          5.5280   17.1580   19.2450 C.2   378  GLN378      0.2260
     12  O          4.8640   18.1030   19.6720 O.2   378  GLN378     -0.2867
     13  CB         7.8710   16.6400   19.9640 C.3   378  GLN378      0.0367
     14  CG         8.0970   18.1500   20.0410 C.3   378  GLN378      0.0905
     15  CD         9.5100   18.6570   19.7680 C.2   378  GLN378      0.2608
     16  OE1        9.7800   19.8400   19.9940 O.2   378  GLN378     -0.2717
     17  NE2       10.4080   17.7900   19.2810 N.am  378  GLN378     -0.0878
     18  N          3.5260   20.8110   19.5800 N.3   382  GLN382     -0.1245
     19  CA         4.2430   22.0220   19.1870 C.3   382  GLN382      0.1566
     20  C          3.9840   22.2800   17.7070 C.2   382  GLN382      0.2260
     21  O          4.7820   21.8640   16.8580 O.2   382  GLN382     -0.2867
     22  CB         5.7490   21.8670   19.4380 C.3   382  GLN382      0.0367
     23  CG         6.1350   21.2950   20.8140 C.3   382  GLN382      0.0905
     24  CD         6.0650   22.3180   21.9410 C.2   382  GLN382      0.2608
     25  OE1        5.1920   22.2470   22.8040 O.2   382  GLN382     -0.2717
     26  NE2        7.0040   23.2590   21.9510 N.am  382  GLN382     -0.0878
     27  N          8.9300   26.5580   17.7980 N.3   387  GLU387     -0.1245
     28  CA         8.9140   25.9770   19.1460 C.3   387  GLU387      0.1567
     29  C          9.3280   24.5050   19.1910 C.2   387  GLU387      0.2260
     30  O          9.4570   23.9190   20.2770 O.2   387  GLU387     -0.2867
     31  CB         7.5400   26.1370   19.7950 C.3   387  GLU387      0.0388
     32  CG         7.1020   27.5760   20.0240 C.3   387  GLU387      0.1160
     33  CD         7.8930   28.3120   21.1160 C.2   387  GLU387      0.3649
     34  OE1        7.4760   29.4320   21.4650 O.co2 387  GLU387     -0.2457
     35  OE2        8.9160   27.7990   21.6200 O.co2 387  GLU387     -0.2457
     36  N         11.8990   21.3860   18.9100 N.3   389  VAL389     -0.1245
     37  CA        13.2470   21.3070   19.4300 C.3   389  VAL389      0.1561
     38  C         13.9760   20.0450   18.9860 C.2   389  VAL389      0.2260
     39  O         13.3830   18.9620   18.9660 O.2   389  VAL389     -0.2867
     40  CB        13.1720   21.3320   20.9810 C.3   389  VAL389      0.0252
     41  CG1       14.4890   20.9610   21.6030 C.3   389  VAL389      0.0019
     42  CG2       12.7190   22.7200   21.4540 C.3   389  VAL389      0.0019
     43  N         17.1800   17.8770   20.3670 N.3   391  SER391     -0.1202
     44  CA        17.9790   17.7370   21.5910 C.3   391  SER391      0.2020
     45  C         18.1950   16.2580   21.9000 C.2   391  SER391      0.2619
     46  O         17.5740   15.3920   21.2870 O.2   391  SER391     -0.2717
     47  CB        17.2720   18.4110   22.7740 C.3   391  SER391      0.2103
     48  OG        15.9750   17.8560   22.9730 O.3   391  SER391     -0.2182
     49  N         19.0650   15.9700   22.8660 N.am  392  LYS392     -0.1965
     50  CA        19.3330   14.5870   23.2530 C.3   392  LYS392      0.1728
     51  C         18.0840   13.9150   23.8020 C.2   392  LYS392      0.2617
     52  O         17.8240   12.7260   23.5410 O.2   392  LYS392     -0.2715
     53  CB        20.4630   14.5360   24.2920 C.3   392  LYS392      0.0311
     54  CG        20.7160   13.1440   24.8700 C.3   392  LYS392      0.0038
     55  CD        21.2020   12.2010   23.7650 C.3   392  LYS392      0.0206
     56  CE        21.2480   10.7810   24.2730 C.3   392  LYS392      0.1093
     57  NZ        21.7550    9.8460   23.2040 N.3   392  LYS392     -0.1314
     58  N         17.3010   14.6690   24.5630 N.am  393  GLY393     -0.1940
     59  CA        16.0530   14.1550   25.0960 C.3   393  GLY393      0.2014
     60  C         15.0450   15.2570   25.3560 C.2   393  GLY393      0.2639
     61  O         15.3840   16.4360   25.3530 O.2   393  GLY393     -0.2714
     62  N         13.7980   14.8680   25.5960 N.am  394  LEU394     -0.1963
     63  CA        12.7360   15.8300   25.8260 C.3   394  LEU394      0.1728
     64  C         11.6870   15.2080   26.7360 C.2   394  LEU394      0.2616
     65  O         11.5120   13.9860   26.7630 O.2   394  LEU394     -0.2715
     66  CB        12.0780   16.1780   24.4930 C.3   394  LEU394      0.0311
     67  CG        11.4580   17.5410   24.2520 C.3   394  LEU394      0.0022
     68  CD1       12.4220   18.6890   24.5610 C.3   394  LEU394      0.0001
     69  CD2       11.0300   17.6020   22.7670 C.3   394  LEU394      0.0001
     70  N         10.9820   16.0540   27.4720 N.am  395  TYR395     -0.1960
     71  CA         9.7620   15.6260   28.1380 C.3   395  TYR395      0.1771
     72  C          8.6310   16.5260   27.6850 C.2   395  TYR395      0.2619
     73  O          8.7120   17.7480   27.8280 O.2   395  TYR395     -0.2715
     74  CB         9.8880   15.6650   29.6850 C.3   395  TYR395      0.0574
     75  CG         8.5560   15.3250   30.3380 C.ar  395  TYR395     -0.0198
     76  CD1        8.0670   14.0280   30.3100 C.ar  395  TYR395     -0.0009
     77  CD2        7.7690   16.3120   30.9200 C.ar  395  TYR395     -0.0009
     78  CE1        6.8350   13.7070   30.8530 C.ar  395  TYR395      0.0417
     79  CE2        6.5270   16.0030   31.4800 C.ar  395  TYR395      0.0417
     80  CZ         6.0740   14.6980   31.4390 C.ar  395  TYR395      0.1957
     81  OH         4.8540   14.3470   31.9620 O.3   395  TYR395     -0.2866
     82  N          7.5900   15.9210   27.1090 N.am  396  VAL396     -0.1964
     83  CA         6.4580   16.6810   26.6100 C.3   396  VAL396      0.1712
     84  C          5.2600   16.4930   27.5330 C.2   396  VAL396      0.2458
     85  O          4.6250   15.4490   27.5240 O.2   396  VAL396     -0.2730
     86  CB         6.0730   16.2250   25.1920 C.3   396  VAL396      0.0289
     87  CG1        4.9880   17.1280   24.6290 C.3   396  VAL396      0.0023
     88  CG2        7.3000   16.2390   24.2780 C.3   396  VAL396      0.0023
     89  N          4.9530   17.5120   28.3490 N.am  397  PRO397     -0.2716
     90  CA         3.8710   17.3100   29.3170 C.3   397  PRO397      0.1536
     91  C          2.5350   17.0140   28.6510 C.2   397  PRO397      0.2598
     92  O          1.7500   16.2280   29.1850 O.2   397  PRO397     -0.2715
     93  CB         3.8050   18.6540   30.0550 C.3   397  PRO397      0.0310
     94  CG         5.1270   19.3260   29.7820 C.3   397  PRO397      0.0237
     95  CD         5.5090   18.8700   28.4050 C.3   397  PRO397      0.0939
     96  N          2.2900   17.6040   27.4800 N.am  398  GLU398     -0.1978
     97  CA         1.0130   17.4180   26.8090 C.3   398  GLU398      0.1602
     98  C          0.7520   15.9750   26.3540 C.2   398  GLU398      0.2287
     99  O         -0.4060   15.5660   26.2110 O.2   398  GLU398     -0.2864
    100  CB         0.8740   18.3820   25.6260 C.3   398  GLU398      0.0415
    101  CG         0.8130   19.8590   25.9960 C.3   398  GLU398      0.1163
    102  CD         2.1810   20.5270   26.1110 C.2   398  GLU398      0.3649
    103  OE1        2.2130   21.7640   26.2640 O.co2 398  GLU398     -0.2457
    104  OE2        3.2220   19.8330   26.0710 O.co2 398  GLU398     -0.2457
    105  N         24.4750   14.4590   24.7180 N.3   410  GLY410     -0.1210
    106  CA        24.2880   15.6480   25.5300 C.3   410  GLY410      0.1956
    107  C         25.6360   16.1210   26.0310 C.2   410  GLY410      0.2612
    108  O         26.4550   15.3080   26.4660 O.2   410  GLY410     -0.2717
    109  N         25.8710   17.4310   25.9710 N.am  411  VAL411     -0.1965
    110  CA        27.1870   17.9890   26.2990 C.3   411  VAL411      0.1727
    111  C         27.7030   17.6310   27.7060 C.2   411  VAL411      0.2616
    112  O         28.8410   17.1790   27.8570 O.2   411  VAL411     -0.2715
    113  CB        27.2290   19.5160   26.0900 C.3   411  VAL411      0.0290
    114  CG1       28.6560   20.0260   26.2320 C.3   411  VAL411      0.0023
    115  CG2       26.6780   19.8790   24.7200 C.3   411  VAL411      0.0023
    116  N         26.8730   17.8180   28.7270 N.am  412  GLU412     -0.1963
    117  CA        27.3010   17.5290   30.1000 C.3   412  GLU412      0.1733
    118  C         26.8450   16.1490   30.5850 C.2   412  GLU412      0.2616
    119  O         26.7880   15.8960   31.7880 O.2   412  GLU412     -0.2715
    120  CB        26.8080   18.6130   31.0720 C.3   412  GLU412      0.0429
    121  CG        27.4270   19.9980   30.8660 C.3   412  GLU412      0.1163
    122  CD        26.9090   21.0290   31.8660 C.2   412  GLU412      0.3649
    123  OE1       25.8100   21.5880   31.6450 O.co2 412  GLU412     -0.2457
    124  OE2       27.6050   21.2810   32.8730 O.co2 412  GLU412     -0.2457
    125  N         26.5160   15.2630   29.6470 N.am  413  LEU413     -0.1977
    126  CA        26.0500   13.9200   29.9880 C.3   413  LEU413      0.1596
    127  C         27.0490   12.8710   29.5230 C.2   413  LEU413      0.2287
    128  O         27.5530   12.9350   28.3990 O.2   413  LEU413     -0.2864
    129  CB        24.6900   13.6330   29.3430 C.3   413  LEU413      0.0297
    130  CG        23.5070   14.5520   29.6120 C.3   413  LEU413      0.0022
    131  CD1       22.3300   14.1750   28.7250 C.3   413  LEU413      0.0001
    132  CD2       23.1040   14.5050   31.0740 C.3   413  LEU413      0.0001
    133  N         20.6850   11.0780   30.3610 N.3   419  GLY419     -0.1225
    134  CA        19.6910   11.8400   29.6320 C.3   419  GLY419      0.1811
    135  C         18.2770   11.4020   29.9740 C.2   419  GLY419      0.2280
    136  O         17.3990   12.2370   30.1640 O.2   419  GLY419     -0.2866
    137  N         17.3680   12.6360   33.4230 N.3   422  HIS422     -0.1226
    138  CA        17.0190   14.0400   33.3070 C.3   422  HIS422      0.1752
    139  C         15.5580   14.2180   32.8690 C.2   422  HIS422      0.2595
    140  O         14.8080   14.9710   33.4920 O.2   422  HIS422     -0.2718
    141  CB        17.9790   14.7330   32.3330 C.3   422  HIS422      0.0759
    142  CG        17.6400   16.1650   32.0710 C.ar  422  HIS422      0.0818
    143  ND1       18.2550   17.2090   32.7310 N.ar  422  HIS422     -0.2268
    144  CD2       16.7690   16.7310   31.2070 C.ar  422  HIS422      0.1154
    145  CE1       17.7670   18.3530   32.3000 C.ar  422  HIS422      0.1986
    146  NE2       16.8610   18.0910   31.3740 N.ar  422  HIS422     -0.2212
    147  N         15.1340   13.5240   31.8120 N.am  423  GLU423     -0.1979
    148  CA        13.7490   13.6680   31.3730 C.3   423  GLU423      0.1602
    149  C         12.7670   13.1820   32.4160 C.2   423  GLU423      0.2287
    150  O         11.6990   13.7760   32.5730 O.2   423  GLU423     -0.2864
    151  CB        13.4750   12.9560   30.0380 C.3   423  GLU423      0.0415
    152  CG        14.4800   13.2570   28.9310 C.3   423  GLU423      0.1163
    153  CD        14.7130   14.7230   28.7120 C.2   423  GLU423      0.3649
    154  OE1       15.7930   15.0580   28.1890 O.co2 423  GLU423     -0.2457
    155  OE2       13.8390   15.5590   29.0560 O.co2 423  GLU423     -0.2457
    156  N         11.8230   15.8070   34.7720 N.3   426  HIS426     -0.1241
    157  CA        10.7190   16.6520   34.3320 C.3   426  HIS426      0.1621
    158  C          9.3600   16.0100   34.6020 C.2   426  HIS426      0.2264
    159  O          8.3950   16.7040   34.9430 O.2   426  HIS426     -0.2867
    160  CB        10.8090   16.9050   32.8270 C.3   426  HIS426      0.0745
    161  CG        11.8770   17.8810   32.4330 C.ar  426  HIS426      0.0817
    162  ND1       12.0150   19.1050   33.0150 N.ar  426  HIS426     -0.2268
    163  CD2       12.8220   17.7880   31.4630 C.ar  426  HIS426      0.1154
    164  CE1       13.0290   19.7510   32.4390 C.ar  426  HIS426      0.1986
    165  NE2       13.5130   18.9790   31.5000 N.ar  426  HIS426     -0.2212
    166  N         24.0290   23.8880   32.4280 N.3   464  TYR464     -0.1241
    167  CA        22.7260   23.7920   31.7910 C.3   464  TYR464      0.1605
    168  C         21.6030   23.9990   32.8120 C.2   464  TYR464      0.2264
    169  O         20.5420   24.5380   32.4800 O.2   464  TYR464     -0.2867
    170  CB        22.5620   22.4800   31.0090 C.3   464  TYR464      0.0534
    171  CG        21.2030   22.3890   30.3690 C.ar  464  TYR464     -0.0201
    172  CD1       20.8110   23.3200   29.4180 C.ar  464  TYR464     -0.0009
    173  CD2       20.3030   21.4100   30.7350 C.ar  464  TYR464     -0.0009
    174  CE1       19.5580   23.2730   28.8420 C.ar  464  TYR464      0.0417
    175  CE2       19.0410   21.3430   30.1530 C.ar  464  TYR464      0.0417
    176  CZ        18.6850   22.2920   29.2140 C.ar  464  TYR464      0.1957
    177  OH        17.4420   22.2680   28.6490 O.3   464  TYR464     -0.2866
    178  N         14.6800   23.2220   34.2530 N.3   471  GLU471     -0.1245
    179  CA        15.9240   22.5440   33.9230 C.3   471  GLU471      0.1567
    180  C         16.7970   22.3330   35.1400 C.2   471  GLU471      0.2260
    181  O         17.4540   21.2980   35.2590 O.2   471  GLU471     -0.2867
    182  CB        16.6960   23.2940   32.8370 C.3   471  GLU471      0.0388
    183  CG        15.9070   23.4620   31.5310 C.3   471  GLU471      0.1160
    184  CD        15.3680   22.1580   30.9880 C.2   471  GLU471      0.3649
    185  OE1       15.9210   21.0910   31.3370 O.co2 471  GLU471     -0.2457
    186  OE2       14.3960   22.1990   30.1960 O.co2 471  GLU471     -0.2457
    187  N         18.0380   18.7480   36.3990 N.3   475  GLU475     -0.1245
    188  CA        19.4700   18.5300   36.5510 C.3   475  GLU475      0.1567
    189  C         19.8070   18.0990   37.9790 C.2   475  GLU475      0.2260
    190  O         20.5670   17.1470   38.1850 O.2   475  GLU475     -0.2867
    191  CB        20.2530   19.7900   36.1590 C.3   475  GLU475      0.0388
    192  CG        20.4150   19.9590   34.6380 C.3   475  GLU475      0.1160
    193  CD        21.3010   18.8830   34.0450 C.2   475  GLU475      0.3649
    194  OE1       22.5240   19.1110   33.9270 O.co2 475  GLU475     -0.2457
    195  OE2       20.7760   17.7990   33.7180 O.co2 475  GLU475     -0.2457
@<TRIPOS>BOND
     1    21    20    2
     2    20    19    1
     3    27    28    1
     4    36    37    1
     5    39    38    2
     6    38    37    1
     7    28    29    1
     8    28    31    1
     9    19    22    1
    10    19    18    1
    11    29    30    2
    12    11    12    2
    13    11    10    1
    14    17    15   am
    15    37    40    1
    16    22    23    1
    17    15    16    2
    18    15    14    1
    19    31    32    1
    20    13    14    1
    21    13    10    1
    22    32    33    1
    23     9    10    1
    24    43    44    1
    25    23    24    1
    26    40    42    1
    27    40    41    1
    28    33    34   ar
    29    33    35   ar
    30    46    45    2
    31    44    45    1
    32    44    47    1
    33    45    49   am
    34    24    26   am
    35    24    25    2
    36     3     4    2
    37     3     2    1
    38    69    67    1
    39    47    48    1
    40    49    50    1
    41     1     2    1
    42    57    56    1
    43    50    51    1
    44    50    53    1
    45     2     5    1
    46    52    51    2
    47    55    56    1
    48    55    54    1
    49    51    58   am
    50    67    66    1
    51    67    68    1
    52    88    86    1
    53    53    54    1
    54     7     6   ar
    55    66    63    1
    56    58    59    1
    57    87    86    1
    58   105   106    1
    59   115   113    1
    60     5     6    1
    61    59    60    1
    62    86    83    1
    63     6     8   ar
    64    61    60    2
    65    60    62   am
    66   106   107    1
    67    62    63    1
    68   100   101    1
    69   100    97    1
    70    63    64    1
    71   109   107   am
    72   109   110    1
    73   101   102    1
    74   107   108    2
    75   104   102   ar
    76   113   114    1
    77   113   110    1
    78   102   103   ar
    79    99    98    2
    80   110   111    1
    81    98    97    1
    82    83    82    1
    83    83    84    1
    84    64    65    2
    85    64    70   am
    86    97    96    1
    87    82    72   am
    88    70    71    1
    89    96    91   am
    90    85    84    2
    91    84    89   am
    92    72    73    2
    93    72    71    1
    94   111   112    2
    95   111   116   am
    96    71    74    1
    97   154   153   ar
    98    89    95    1
    99    89    90    1
   100   128   127    2
   101    95    94    1
   102   177   176    1
   103    91    92    2
   104    91    90    1
   105   153   152    1
   106   153   155   ar
   107   131   130    1
   108   116   117    1
   109   174   176   ar
   110   174   172   ar
   111   152   151    1
   112   176   175   ar
   113    90    93    1
   114   129   130    1
   115   129   126    1
   116   172   171   ar
   117   127   126    1
   118   130   132    1
   119   134   135    1
   120   134   133    1
   121   125   126    1
   122   125   118   am
   123    74    75    1
   124    94    93    1
   125   135   136    2
   126   151   148    1
   127   117   118    1
   128   117   120    1
   129   175   173   ar
   130   186   184   ar
   131    76    75   ar
   132    76    78   ar
   133    75    77   ar
   134   171   173   ar
   135   171   170    1
   136   118   119    2
   137    78    80   ar
   138   121   120    1
   139   121   122    1
   140    77    79   ar
   141   184   185   ar
   142   184   183    1
   143   170   167    1
   144   144   146   ar
   145   144   142   ar
   146   148   147    1
   147   148   149    1
   148   146   145   ar
   149    80    79   ar
   150    80    81    1
   151   163   165   ar
   152   163   161   ar
   153   165   164   ar
   154   183   182    1
   155   123   122   ar
   156   167   166    1
   157   167   168    1
   158   147   139   am
   159   122   124   ar
   160   142   141    1
   161   142   143   ar
   162   145   143   ar
   163   141   138    1
   164   149   150    2
   165   161   160    1
   166   161   162   ar
   167   164   162   ar
   168   169   168    2
   169   160   157    1
   170   182   179    1
   171   139   138    1
   172   139   140    2
   173   138   137    1
   174   195   193   ar
   175   179   178    1
   176   179   180    1
   177   194   193   ar
   178   193   192    1
   179   157   158    1
   180   157   156    1
   181   158   159    2
   182   192   191    1
   183   180   181    2
   184   191   188    1
   185   187   188    1
   186   188   189    1
   187   189   190    2
