@<TRIPOS>MOLECULE
tmp/4dvbC00.pdb
 118 114 0 0 0
SMALL
GASTEIGER

@<TRIPOS>ATOM
      1  N        -25.3510    6.5750  -23.6610 N.3    39  GLN39      -0.1231
      2  CA       -24.7470    7.1990  -22.4880 C.3    39  GLN39       0.1698
      3  C        -24.2000    8.5770  -22.8440 C.2    39  GLN39       0.2593
      4  O        -23.3250    8.7080  -23.7030 O.2    39  GLN39      -0.2718
      5  CB       -23.6620    6.3090  -21.8800 C.3    39  GLN39       0.0381
      6  CG       -23.0720    6.8550  -20.5760 C.3    39  GLN39       0.0905
      7  CD       -22.3060    5.8010  -19.8030 C.2    39  GLN39       0.2608
      8  OE1      -21.4750    5.0900  -20.3640 O.2    39  GLN39      -0.2717
      9  NE2      -22.5800    5.6960  -18.5080 N.am   39  GLN39      -0.0878
     10  N        -24.7420    9.5880  -22.1730 N.am   40  THR40      -0.1940
     11  CA       -24.4270   11.0000  -22.4150 C.3    40  THR40       0.2013
     12  C        -23.0210   11.3700  -21.9260 C.2    40  THR40       0.2484
     13  O        -22.4190   10.6060  -21.1730 O.2    40  THR40      -0.2729
     14  CB       -25.4450   11.9100  -21.7090 C.3    40  THR40       0.1807
     15  OG1      -25.2990   11.7690  -20.2910 O.3    40  THR40      -0.2208
     16  CG2      -26.8780   11.5540  -22.1200 C.3    40  THR40       0.0379
     17  N        -22.4930   12.5420  -22.3590 N.am   41  PRO41      -0.2726
     18  CA       -21.1810   13.0440  -21.9170 C.3    41  PRO41       0.1402
     19  C        -21.0260   13.1540  -20.3940 C.2    41  PRO41       0.2269
     20  O        -19.9100   13.0580  -19.8720 O.2    41  PRO41      -0.2865
     21  CB       -21.1130   14.4310  -22.5560 C.3    41  PRO41       0.0296
     22  CG       -21.8810   14.2770  -23.8210 C.3    41  PRO41       0.0237
     23  CD       -23.0240   13.3490  -23.4780 C.3    41  PRO41       0.0939
     24  N        -22.4040   11.0000  -18.3900 N.3    43  LYS43      -0.1245
     25  CA       -22.4320    9.5930  -17.9470 C.3    43  LYS43       0.1561
     26  C        -23.7930    9.0250  -17.5200 C.2    43  LYS43       0.2260
     27  O        -23.8660    7.9580  -16.9100 O.2    43  LYS43      -0.2867
     28  CB       -21.3650    9.3290  -16.8750 C.3    43  LYS43       0.0271
     29  CG       -19.9370    9.3830  -17.4070 C.3    43  LYS43       0.0035
     30  CD       -18.9390    8.9500  -16.3370 C.3    43  LYS43       0.0206
     31  CE       -17.5790    8.6230  -16.9430 C.3    43  LYS43       0.1093
     32  NZ       -16.6460    8.0770  -15.9140 N.3    43  LYS43      -0.1314
     33  N        -26.1510   13.6030  -28.7620 N.3    90  THR90      -0.1203
     34  CA       -24.7240   13.3220  -28.5940 C.3    90  THR90       0.1994
     35  C        -24.5050   12.3450  -27.4440 C.2    90  THR90       0.2618
     36  O        -24.8560   12.6380  -26.3040 O.2    90  THR90      -0.2717
     37  CB       -23.9340   14.6290  -28.3410 C.3    90  THR90       0.1784
     38  OG1      -24.0710   15.4910  -29.4790 O.3    90  THR90      -0.2211
     39  CG2      -22.4480   14.3420  -28.0880 C.3    90  THR90       0.0376
     40  N        -23.9250   11.1850  -27.7500 N.am   91  ALA91      -0.1965
     41  CA       -23.7740   10.1120  -26.7720 C.3    91  ALA91       0.1728
     42  C        -23.0570    8.8990  -27.3520 C.2    91  ALA91       0.2616
     43  O        -22.8750    8.7840  -28.5630 O.2    91  ALA91      -0.2715
     44  CB       -25.1550    9.6890  -26.2250 C.3    91  ALA91       0.0334
     45  N        -22.6460    8.0010  -26.4670 N.am   92  MET92      -0.1977
     46  CA       -22.1540    6.6890  -26.8560 C.3    92  MET92       0.1605
     47  C        -23.3670    5.7740  -26.9680 C.2    92  MET92       0.2287
     48  O        -24.1750    5.7070  -26.0350 O.2    92  MET92      -0.2864
     49  CB       -21.1860    6.1680  -25.7930 C.3    92  MET92       0.0413
     50  CG       -20.5160    4.8420  -26.1350 C.3    92  MET92       0.0598
     51  SD       -19.0950    4.9770  -27.2450 S.3    92  MET92      -0.1393
     52  CE       -18.1600    6.3000  -26.4900 C.3    92  MET92       0.0692
     53  N        -24.9520    2.0340  -27.3310 N.3    94  TYR94      -0.1241
     54  CA       -24.7220    0.6170  -27.0610 C.3    94  TYR94       0.1605
     55  C        -25.8830   -0.2370  -27.5400 C.2    94  TYR94       0.2264
     56  O        -27.0480    0.1140  -27.3500 O.2    94  TYR94      -0.2867
     57  CB       -24.5540    0.3780  -25.5610 C.3    94  TYR94       0.0534
     58  CG       -23.3920    1.0860  -24.9230 C.ar   94  TYR94      -0.0201
     59  CD1      -22.0970    0.5830  -25.0480 C.ar   94  TYR94      -0.0009
     60  CD2      -23.5870    2.2370  -24.1630 C.ar   94  TYR94      -0.0009
     61  CE1      -21.0200    1.2190  -24.4540 C.ar   94  TYR94       0.0417
     62  CE2      -22.5120    2.8850  -23.5530 C.ar   94  TYR94       0.0417
     63  CZ       -21.2330    2.3670  -23.7090 C.ar   94  TYR94       0.1957
     64  OH       -20.1610    2.9850  -23.1200 O.3    94  TYR94      -0.2866
     65  N        -19.6940    6.0240  -30.8690 N.3   112  THR112     -0.1203
     66  CA       -19.8850    7.4140  -30.4830 C.3   112  THR112      0.1994
     67  C        -20.5940    8.1920  -31.5710 C.2   112  THR112      0.2618
     68  O        -20.2780    8.0540  -32.7510 O.2   112  THR112     -0.2717
     69  CB       -18.5430    8.1000  -30.2280 C.3   112  THR112      0.1784
     70  OG1      -17.7110    7.2340  -29.4510 O.3   112  THR112     -0.2211
     71  CG2      -18.7420    9.3900  -29.4930 C.3   112  THR112      0.0376
     72  N        -21.5340    9.0350  -31.1560 N.am  113  VAL113     -0.1965
     73  CA       -22.1910    9.9750  -32.0460 C.3   113  VAL113      0.1727
     74  C        -22.0970   11.3790  -31.4450 C.2   113  VAL113      0.2616
     75  O        -22.4140   11.5760  -30.2670 O.2   113  VAL113     -0.2715
     76  CB       -23.6970    9.6240  -32.2490 C.3   113  VAL113      0.0290
     77  CG1      -24.3790   10.6750  -33.1030 C.3   113  VAL113      0.0023
     78  CG2      -23.8610    8.2530  -32.8930 C.3   113  VAL113      0.0023
     79  N        -21.6520   12.3520  -32.2280 N.am  114  THR114     -0.1951
     80  CA       -21.8870   13.7450  -31.8220 C.3   114  THR114      0.1897
     81  C        -22.6620   14.5350  -32.8640 C.2   114  THR114      0.2313
     82  O        -22.4560   14.3860  -34.0730 O.2   114  THR114     -0.2863
     83  CB       -20.6290   14.5010  -31.2650 C.3   114  THR114      0.1794
     84  OG1      -20.3500   15.6940  -32.0180 O.3   114  THR114     -0.2208
     85  CG2      -19.4320   13.6000  -31.1590 C.3   114  THR114      0.0378
     86  N        -14.8040   14.1440  -30.6810 N.3   146  GLU146     -0.1245
     87  CA       -14.3810   12.9500  -29.9520 C.3   146  GLU146      0.1567
     88  C        -15.0010   11.7240  -30.6240 C.2   146  GLU146      0.2260
     89  O        -16.0650   11.8360  -31.2350 O.2   146  GLU146     -0.2867
     90  CB       -14.8380   13.0340  -28.4960 C.3   146  GLU146      0.0388
     91  CG       -13.8930   13.8170  -27.5960 C.3   146  GLU146      0.1160
     92  CD       -12.8760   12.9280  -26.9110 C.2   146  GLU146      0.3649
     93  OE1      -11.9220   12.4550  -27.5720 O.co2 146  GLU146     -0.2457
     94  OE2      -13.0330   12.7090  -25.6940 O.co2 146  GLU146     -0.2457
     95  N         -8.7590   11.8630  -20.2750 N.3   165  PRO165     -0.2102
     96  CA        -9.9580   12.3990  -20.9190 C.3   165  PRO165      0.1504
     97  C         -9.6560   13.6980  -21.6530 C.2   165  PRO165      0.2575
     98  O         -8.8740   14.5230  -21.1640 O.2   165  PRO165     -0.2718
     99  CB       -10.8970   12.6680  -19.7370 C.3   165  PRO165      0.0282
    100  CG       -10.5010   11.6590  -18.7270 C.3   165  PRO165      0.0208
    101  CD        -9.0000   11.5490  -18.8530 C.3   165  PRO165      0.0893
    102  N        -10.2540   13.8660  -22.8290 N.am  166  ALA166     -0.1980
    103  CA       -10.0060   15.0510  -23.6360 C.3   166  ALA166      0.1597
    104  C        -10.5380   16.3060  -22.9560 C.2   166  ALA166      0.2287
    105  O        -11.5110   16.2550  -22.1970 O.2   166  ALA166     -0.2864
    106  CB       -10.6020   14.8940  -25.0270 C.3   166  ALA166      0.0319
    107  N        -10.8120   19.6930  -29.2370 N.3   173  TYR173     -0.1241
    108  CA       -10.3430   18.7840  -28.1890 C.3   173  TYR173      0.1605
    109  C         -8.8290   18.5830  -28.1980 C.2   173  TYR173      0.2264
    110  O         -8.1920   18.6310  -29.2530 O.2   173  TYR173     -0.2867
    111  CB       -11.0570   17.4340  -28.2760 C.3   173  TYR173      0.0534
    112  CG       -12.5210   17.5100  -27.9030 C.ar  173  TYR173     -0.0201
    113  CD1      -12.9100   17.6970  -26.5750 C.ar  173  TYR173     -0.0009
    114  CD2      -13.5160   17.4020  -28.8740 C.ar  173  TYR173     -0.0009
    115  CE1      -14.2550   17.7740  -26.2210 C.ar  173  TYR173      0.0417
    116  CE2      -14.8720   17.4780  -28.5330 C.ar  173  TYR173      0.0417
    117  CZ       -15.2300   17.6630  -27.2060 C.ar  173  TYR173      0.1957
    118  OH       -16.5590   17.7390  -26.8540 O.3   173  TYR173     -0.2866
@<TRIPOS>BOND
     1    82    81    2
     2    77    76    1
     3    78    76    1
     4    81    80    1
     5    68    67    2
     6    76    73    1
     7    79    80    1
     8    79    74   am
     9    73    74    1
    10    73    72    1
    11    84    83    1
    12    80    83    1
    13    67    72   am
    14    67    66    1
    15    74    75    2
    16    83    85    1
    17    89    88    2
    18    65    66    1
    19    86    87    1
    20    88    87    1
    21    66    69    1
    22    69    71    1
    23    69    70    1
    24    87    90    1
    25    38    37    1
    26   110   109    2
    27   107   108    1
    28   114   116   ar
    29   114   112   ar
    30    33    34    1
    31    34    37    1
    32    34    35    1
    33    43    42    2
    34   116   117   ar
    35    90    91    1
    36    37    39    1
    37   111   108    1
    38   111   112    1
    39   109   108    1
    40   112   113   ar
    41    40    35   am
    42    40    41    1
    43    91    92    1
    44    93    92   ar
    45    55    56    2
    46    55    54    1
    47    35    36    2
    48    42    41    1
    49    42    45   am
    50    53    54    1
    51    51    52    1
    52    51    50    1
    53   117   118    1
    54   117   115   ar
    55    54    57    1
    56    47    46    1
    57    47    48    2
    58    92    94   ar
    59    46    45    1
    60    46    49    1
    61    41    44    1
    62   113   115   ar
    63    50    49    1
    64    57    58    1
    65    59    58   ar
    66    59    61   ar
    67   106   103    1
    68    58    60   ar
    69    61    63   ar
    70    60    62   ar
    71    22    23    1
    72    22    21    1
    73    63    62   ar
    74    63    64    1
    75     4     3    2
    76     1     2    1
    77   103   104    1
    78   103   102    1
    79    23    17    1
    80   104   105    2
    81     3     2    1
    82     3    10   am
    83   102    97   am
    84    21    18    1
    85     2     5    1
    86    11    10    1
    87    11    12    1
    88    11    14    1
    89    17    12   am
    90    17    18    1
    91    16    14    1
    92    12    13    2
    93    18    19    1
    94     5     6    1
    95    14    15    1
    96    97    98    2
    97    97    96    1
    98    96    95    1
    99    96    99    1
   100     6     7    1
   101    19    20    2
   102     8     7    2
   103    95   101    1
   104     7     9   am
   105    99   100    1
   106   101   100    1
   107    24    25    1
   108    25    26    1
   109    25    28    1
   110    26    27    2
   111    29    28    1
   112    29    30    1
   113    31    30    1
   114    31    32    1
