@<TRIPOS>MOLECULE
tmp/4dveB01.pdb
 92 83 0 0 0
SMALL
GASTEIGER

@<TRIPOS>ATOM
      1  N         50.4610   -7.9120    3.9570 N.3    10  LEU10      -0.1245
      2  CA        50.0110   -8.8220    2.9200 C.3    10  LEU10       0.1561
      3  C         50.3490  -10.2630    3.3180 C.2    10  LEU10       0.2260
      4  O         49.4900  -11.1310    3.2520 O.2    10  LEU10      -0.2867
      5  CB        50.6810   -8.4810    1.5900 C.3    10  LEU10       0.0270
      6  CG        50.3390   -9.3760    0.3930 C.3    10  LEU10       0.0019
      7  CD1       48.8250   -9.2350    0.1580 C.3    10  LEU10       0.0001
      8  CD2       51.1490   -9.0050   -0.8470 C.3    10  LEU10       0.0001
      9  N         48.1920  -11.4490    6.4070 N.3    13  SER13      -0.1202
     10  CA        46.8050  -11.5580    6.0330 C.3    13  SER13       0.2020
     11  C         46.5890  -12.7820    5.1420 C.2    13  SER13       0.2618
     12  O         45.6520  -13.5680    5.3610 O.2    13  SER13      -0.2717
     13  CB        46.3100  -10.2640    5.3540 C.3    13  SER13       0.2103
     14  OG        44.9390  -10.4470    5.0120 O.3    13  SER13      -0.2182
     15  N         47.4760  -12.9720    4.1710 N.am   14  ALA14      -0.1979
     16  CA        47.4020  -14.1720    3.3330 C.3    14  ALA14       0.1597
     17  C         47.5650  -15.4190    4.2000 C.2    14  ALA14       0.2287
     18  O         46.8380  -16.4030    4.0170 O.2    14  ALA14      -0.2864
     19  CB        48.4390  -14.1470    2.2080 C.3    14  ALA14       0.0319
     20  N         44.3360  -16.1380    6.1810 N.3    16  THR16      -0.1203
     21  CA        43.3860  -16.7240    5.2580 C.3    16  THR16       0.1994
     22  C         43.7090  -18.2030    5.0000 C.2    16  THR16       0.2617
     23  O         42.8210  -19.0590    5.0850 O.2    16  THR16      -0.2717
     24  CB        43.3130  -15.9300    3.9200 C.3    16  THR16       0.1784
     25  OG1       42.9650  -14.5540    4.1940 O.3    16  THR16      -0.2211
     26  CG2       42.2900  -16.5620    2.9330 C.3    16  THR16       0.0376
     27  N         44.9760  -18.4940    4.7240 N.am   17  ALA17      -0.1979
     28  CA        45.4130  -19.8500    4.4550 C.3    17  ALA17       0.1597
     29  C         45.1760  -20.7430    5.6610 C.2    17  ALA17       0.2287
     30  O         44.7400  -21.8850    5.5050 O.2    17  ALA17      -0.2864
     31  CB        46.9140  -19.8800    4.0300 C.3    17  ALA17       0.0319
     32  N         41.6180  -21.7500    6.1360 N.3    20  ILE20      -0.1245
     33  CA        41.3210  -22.8110    5.1660 C.3    20  ILE20       0.1561
     34  C         41.8910  -24.1650    5.6190 C.2    20  ILE20       0.2260
     35  O         41.2070  -25.2010    5.5600 O.2    20  ILE20      -0.2867
     36  CB        41.8510  -22.4250    3.7700 C.3    20  ILE20       0.0252
     37  CG1       41.0900  -21.1950    3.2220 C.3    20  ILE20       0.0019
     38  CG2       41.7740  -23.6270    2.8350 C.3    20  ILE20       0.0019
     39  CD1       41.7070  -20.5580    1.9620 C.3    20  ILE20       0.0001
     40  N         40.4270  -28.4980    6.7640 N.3    24  PHE24      -0.1241
     41  CA        40.7890  -29.8260    6.2490 C.3    24  PHE24       0.1605
     42  C         40.4770  -30.9180    7.2770 C.2    24  PHE24       0.2264
     43  O         40.4310  -32.0810    6.9220 O.2    24  PHE24      -0.2867
     44  CB        42.2740  -29.9400    5.8680 C.3    24  PHE24       0.0534
     45  CG        42.7270  -28.9960    4.7690 C.ar   24  PHE24      -0.0203
     46  CD1       41.8280  -28.4110    3.8840 C.ar   24  PHE24      -0.0042
     47  CD2       44.0750  -28.7560    4.5920 C.ar   24  PHE24      -0.0042
     48  CE1       42.2610  -27.5780    2.8800 C.ar   24  PHE24      -0.0003
     49  CE2       44.5200  -27.9290    3.5800 C.ar   24  PHE24      -0.0003
     50  CZ        43.6100  -27.3310    2.7300 C.ar   24  PHE24      -0.0000
     51  N         39.5280   -8.3000    6.6240 N.3    55  ILE55      -0.1231
     52  CA        39.9230   -8.5730    5.2550 C.3    55  ILE55       0.1692
     53  C         40.3420  -10.0310    5.0910 C.2    55  ILE55       0.2592
     54  O         39.9560  -10.6530    4.1250 O.2    55  ILE55      -0.2718
     55  CB        41.0600   -7.6220    4.7930 C.3    55  ILE55       0.0266
     56  CG1       40.4750   -6.2140    4.6270 C.3    55  ILE55       0.0019
     57  CG2       41.6910   -8.0750    3.4630 C.3    55  ILE55       0.0020
     58  CD1       41.5160   -5.1340    4.3870 C.3    55  ILE55       0.0001
     59  N         41.1220  -10.5720    6.0250 N.am   56  SER56      -0.1952
     60  CA        41.5610  -11.9570    5.9090 C.3    56  SER56       0.1924
     61  C         40.3900  -12.9340    5.9490 C.2    56  SER56       0.2314
     62  O         40.3630  -13.9110    5.2030 O.2    56  SER56      -0.2863
     63  CB        42.5580  -12.3200    7.0260 C.3    56  SER56       0.2116
     64  OG        43.7130  -11.5510    6.8160 O.3    56  SER56      -0.2180
     65  N         38.2520  -12.5750    2.7270 N.3    59  ALA59      -0.1245
     66  CA        38.8500  -13.2600    1.5810 C.3    59  ALA59       0.1562
     67  C         38.5190  -14.7590    1.6250 C.2    59  ALA59       0.2260
     68  O         38.2220  -15.3620    0.5910 O.2    59  ALA59      -0.2867
     69  CB        40.3700  -13.0390    1.5340 C.3    59  ALA59       0.0290
     70  N         36.1380  -16.7700   -1.0990 N.3    63  LEU63      -0.1245
     71  CA        36.5350  -17.9890   -1.7880 C.3    63  LEU63       0.1561
     72  C         35.4590  -19.0830   -1.7010 C.2    63  LEU63       0.2260
     73  O         35.1920  -19.7630   -2.7050 O.2    63  LEU63      -0.2867
     74  CB        37.8860  -18.5000   -1.2900 C.3    63  LEU63       0.0270
     75  CG        39.1280  -17.6550   -1.6490 C.3    63  LEU63       0.0019
     76  CD1       40.3650  -18.2100   -0.9480 C.3    63  LEU63       0.0001
     77  CD2       39.3380  -17.5540   -3.1500 C.3    63  LEU63       0.0001
     78  N         34.8400  -22.3500   -4.1100 N.3    68  LEU68      -0.1245
     79  CA        36.0140  -23.1410   -3.7020 C.3    68  LEU68       0.1561
     80  C         35.6790  -23.9630   -2.4380 C.2    68  LEU68       0.2260
     81  O         35.0470  -23.4590   -1.5170 O.2    68  LEU68      -0.2867
     82  CB        37.2440  -22.2570   -3.4980 C.3    68  LEU68       0.0270
     83  CG        38.3550  -22.2540   -4.5540 C.3    68  LEU68       0.0019
     84  CD1       37.8680  -22.2640   -5.9900 C.3    68  LEU68       0.0001
     85  CD2       39.3290  -21.0990   -4.3240 C.3    68  LEU68       0.0001
     86  N         36.4290  -24.6520    0.6120 N.3    70  VAL70      -0.1245
     87  CA        37.3090  -24.2200    1.7000 C.3    70  VAL70       0.1561
     88  C         36.6610  -24.2980    3.0750 C.2    70  VAL70       0.2260
     89  O         37.3150  -24.0810    4.0910 O.2    70  VAL70      -0.2867
     90  CB        37.8380  -22.7930    1.4590 C.3    70  VAL70       0.0252
     91  CG1       38.7200  -22.7780    0.2100 C.3    70  VAL70       0.0019
     92  CG2       36.6830  -21.7880    1.3350 C.3    70  VAL70       0.0019
@<TRIPOS>BOND
     1    84    83    1
     2    83    85    1
     3    83    82    1
     4    78    79    1
     5    79    82    1
     6    79    80    1
     7    77    75    1
     8    73    72    2
     9    80    81    2
    10    71    72    1
    11    71    74    1
    12    71    70    1
    13    75    74    1
    14    75    76    1
    15     8     6    1
    16     7     6    1
    17    91    90    1
    18     6     5    1
    19    68    67    2
    20    86    87    1
    21    92    90    1
    22    90    87    1
    23    69    66    1
    24    66    67    1
    25    66    65    1
    26     5     2    1
    27    87    88    1
    28    39    37    1
    29    19    16    1
    30    50    48   ar
    31    50    49   ar
    32    38    36    1
    33    48    46   ar
    34     2     3    1
    35     2     1    1
    36    26    24    1
    37    88    89    2
    38    37    36    1
    39     4     3    2
    40    16    15    1
    41    16    17    1
    42    57    55    1
    43    49    47   ar
    44    36    33    1
    45    46    45   ar
    46    24    25    1
    47    24    21    1
    48    18    17    2
    49    31    28    1
    50    54    53    2
    51    15    11   am
    52    58    56    1
    53    28    27    1
    54    28    29    1
    55    47    45   ar
    56    56    55    1
    57    27    22   am
    58    45    44    1
    59    55    52    1
    60    22    23    2
    61    22    21    1
    62    14    13    1
    63    53    52    1
    64    53    59   am
    65    11    12    2
    66    11    10    1
    67    33    34    1
    68    33    32    1
    69    62    61    2
    70    52    51    1
    71    21    20    1
    72    13    10    1
    73    30    29    2
    74    35    34    2
    75    44    41    1
    76    60    61    1
    77    60    59    1
    78    60    63    1
    79    10     9    1
    80    41    40    1
    81    41    42    1
    82    64    63    1
    83    43    42    2
