@<TRIPOS>MOLECULE
tmp/4dveB00.pdb
 156 150 0 0 0
SMALL
GASTEIGER

@<TRIPOS>ATOM
      1  N         24.2470  -29.2840   12.2560 N.3    35  VAL35      -0.1231
      2  CA        25.4390  -28.4500   12.3070 C.3    35  VAL35       0.1678
      3  C         26.5010  -29.2660   13.0570 C.2    35  VAL35       0.2434
      4  O         26.2350  -29.7370   14.1690 O.2    35  VAL35      -0.2733
      5  CB        25.1530  -27.1290   13.0680 C.3    35  VAL35       0.0265
      6  CG1       26.4000  -26.2330   13.1480 C.3    35  VAL35       0.0020
      7  CG2       23.9820  -26.3800   12.4100 C.3    35  VAL35       0.0020
      8  N         27.7000  -29.4340   12.4740 N.am   36  PRO36      -0.2718
      9  CA        28.7510  -30.2130   13.1130 C.3    36  PRO36       0.1535
     10  C         29.6620  -29.4010   14.0550 C.2    36  PRO36       0.2598
     11  O         29.7100  -28.1540   13.9680 O.2    36  PRO36      -0.2715
     12  CB        29.5510  -30.7170   11.9140 C.3    36  PRO36       0.0310
     13  CG        29.5200  -29.5360   10.9850 C.3    36  PRO36       0.0237
     14  CD        28.0950  -29.0330   11.1080 C.3    36  PRO36       0.0939
     15  N         30.3450  -30.1120   14.9580 N.am   37  ILE37      -0.1964
     16  CA        31.4680  -29.5630   15.7270 C.3    37  ILE37       0.1727
     17  C         32.6250  -29.4770   14.7360 C.2    37  ILE37       0.2616
     18  O         32.8390  -30.4060   13.9710 O.2    37  ILE37      -0.2715
     19  CB        31.8870  -30.4510   16.9300 C.3    37  ILE37       0.0290
     20  CG1       30.7530  -30.5450   17.9550 C.3    37  ILE37       0.0022
     21  CG2       33.1370  -29.8860   17.5940 C.3    37  ILE37       0.0023
     22  CD1       31.0300  -31.5130   19.1070 C.3    37  ILE37       0.0001
     23  N         33.3090  -28.3340   14.7200 N.am   38  ILE38      -0.1977
     24  CA        34.3630  -28.0520   13.7570 C.3    38  ILE38       0.1596
     25  C         35.5440  -27.4070   14.4940 C.2    38  ILE38       0.2287
     26  O         35.4460  -27.1130   15.6880 O.2    38  ILE38      -0.2864
     27  CB        33.9060  -27.1010   12.5950 C.3    38  ILE38       0.0276
     28  CG1       33.6150  -25.6600   13.0830 C.3    38  ILE38       0.0022
     29  CG2       32.7270  -27.6660   11.8100 C.3    38  ILE38       0.0022
     30  CD1       33.4630  -24.6190   11.9570 C.3    38  ILE38       0.0001
     31  N         37.4400  -24.8910   12.4320 N.3    40  GLN40      -0.1231
     32  CA        37.7000  -23.7340   11.5790 C.3    40  GLN40       0.1698
     33  C         37.3250  -22.3710   12.2150 C.2    40  GLN40       0.2592
     34  O         38.0250  -21.3660   11.9900 O.2    40  GLN40      -0.2718
     35  CB        36.9590  -23.9350   10.2470 C.3    40  GLN40       0.0381
     36  CG        37.3060  -22.9240    9.2020 C.3    40  GLN40       0.0905
     37  CD        36.9250  -23.3550    7.7950 C.2    40  GLN40       0.2608
     38  OE1       37.8030  -23.4800    6.9100 O.2    40  GLN40      -0.2717
     39  NE2       35.6250  -23.4950    7.5500 N.am   40  GLN40      -0.0878
     40  N         36.2700  -22.3420   13.0430 N.am   41  ASN41      -0.1974
     41  CA        35.8890  -21.0990   13.7070 C.3    41  ASN41       0.1688
     42  C         36.9790  -20.5490   14.6560 C.2    41  ASN41       0.2292
     43  O         36.9520  -19.3560   14.9720 O.2    41  ASN41      -0.2864
     44  CB        34.5150  -21.2070   14.3990 C.3    41  ASN41       0.1181
     45  CG        34.4930  -22.2210   15.5000 C.2    41  ASN41       0.2629
     46  OD1       35.0790  -23.3280   15.3640 O.2    41  ASN41      -0.2716
     47  ND2       33.8120  -21.8830   16.5970 N.am   41  ASN41      -0.0877
     48  N         35.3820  -24.6240    3.1190 N.3    71  LEU71      -0.1231
     49  CA        34.7200  -24.8580    4.4020 C.3    71  LEU71       0.1693
     50  C         34.9590  -26.3050    4.8420 C.2    71  LEU71       0.2592
     51  O         35.2680  -27.1650    4.0190 O.2    71  LEU71      -0.2718
     52  CB        33.2400  -24.5890    4.2880 C.3    71  LEU71       0.0284
     53  CG        32.8650  -23.2110    3.7760 C.3    71  LEU71       0.0019
     54  CD1       31.3460  -23.1840    3.5280 C.3    71  LEU71       0.0001
     55  CD2       33.2850  -22.2010    4.8300 C.3    71  LEU71       0.0001
     56  N         34.8050  -26.5490    6.1380 N.am   72  THR72      -0.1953
     57  CA        34.9790  -27.8670    6.7310 C.3    72  THR72       0.1897
     58  C         34.3350  -28.9900    5.9000 C.2    72  THR72       0.2313
     59  O         33.1700  -28.8890    5.5070 O.2    72  THR72      -0.2863
     60  CB        34.3820  -27.9030    8.1620 C.3    72  THR72       0.1794
     61  OG1       35.0460  -26.9310    8.9830 O.3    72  THR72      -0.2208
     62  CG2       34.5330  -29.2960    8.7920 C.3    72  THR72       0.0378
     63  N         33.5010  -28.2590    1.6290 N.3    75  ASN75      -0.1240
     64  CA        32.2560  -27.6470    1.1990 C.3    75  ASN75       0.1653
     65  C         32.4550  -26.2070    0.7820 C.2    75  ASN75       0.2266
     66  O         33.4630  -25.5980    1.1180 O.2    75  ASN75      -0.2867
     67  CB        31.2290  -27.7440    2.3050 C.3    75  ASN75       0.1155
     68  CG        30.7400  -29.1670    2.4890 C.2    75  ASN75       0.2627
     69  OD1       30.0250  -29.6870    1.6290 O.2    75  ASN75      -0.2716
     70  ND2       31.1780  -29.8240    3.5600 N.am   75  ASN75      -0.0877
     71  N         23.8610  -23.8620    8.5510 N.3    85  SER85      -0.1217
     72  CA        25.0210  -23.2120    9.1690 C.3    85  SER85       0.1889
     73  C         25.3450  -21.7950    8.6580 C.2    85  SER85       0.2288
     74  O         26.3590  -21.1980    9.0430 O.2    85  SER85      -0.2866
     75  CB        26.2310  -24.1350    9.0540 C.3    85  SER85       0.2089
     76  OG        26.6760  -24.2470    7.6990 O.3    85  SER85      -0.2183
     77  N         26.1070  -18.8220   11.3880 N.3    88  TYR88      -0.1227
     78  CA        27.4440  -18.8460   11.9900 C.3    88  TYR88       0.1736
     79  C         28.4380  -18.1480   11.0160 C.2    88  TYR88       0.2595
     80  O         29.2300  -17.2850   11.4130 O.2    88  TYR88      -0.2718
     81  CB        27.9180  -20.2790   12.2780 C.3    88  TYR88       0.0548
     82  CG        26.9840  -21.0940   13.1460 C.ar   88  TYR88      -0.0200
     83  CD1       27.0360  -21.0350   14.5310 C.ar   88  TYR88      -0.0009
     84  CD2       26.0440  -21.9470   12.5570 C.ar   88  TYR88      -0.0009
     85  CE1       26.1600  -21.8060   15.3200 C.ar   88  TYR88       0.0417
     86  CE2       25.1810  -22.6960   13.3130 C.ar   88  TYR88       0.0417
     87  CZ        25.2320  -22.6360   14.6880 C.ar   88  TYR88       0.1957
     88  OH        24.3300  -23.4110   15.3760 O.3    88  TYR88      -0.2866
     89  N         28.3280  -18.5030    9.7510 N.am   89  ARG89      -0.1980
     90  CA        29.2470  -18.0190    8.7120 C.3    89  ARG89       0.1597
     91  C         29.1460  -16.5360    8.4380 C.2    89  ARG89       0.2287
     92  O         30.1670  -15.8510    8.2770 O.2    89  ARG89      -0.2864
     93  CB        29.0570  -18.8450    7.4380 C.3    89  ARG89       0.0334
     94  CG        29.7030  -20.1980    7.5950 C.3    89  ARG89       0.0492
     95  CD        28.9060  -21.3230    6.9800 C.3    89  ARG89       0.2205
     96  NE        28.7670  -21.2100    5.5690 N.pl3  89  ARG89      -0.0865
     97  CZ        28.2810  -22.1690    4.7860 C.cat  89  ARG89       0.5346
     98  NH1       27.8860  -23.3260    5.2820 N.pl3  89  ARG89       0.1354
     99  NH2       28.2150  -21.9690    3.4850 N.pl3  89  ARG89       0.1354
    100  N         30.7580  -14.8030   11.3510 N.3    92  TRP92      -0.1241
    101  CA        32.2400  -14.8460   11.2430 C.3    92  TRP92       0.1605
    102  C         32.7710  -13.6240   10.5630 C.2    92  TRP92       0.2264
    103  O         33.8440  -13.1460   10.9070 O.2    92  TRP92      -0.2867
    104  CB        32.7350  -16.0630   10.4470 C.3    92  TRP92       0.0550
    105  CG        32.5330  -17.4000   11.0760 C.ar   92  TRP92       0.0003
    106  CD1       32.1230  -17.6900   12.3870 C.ar   92  TRP92       0.0946
    107  CD2       32.7810  -18.7160   10.4480 C.ar   92  TRP92       0.0152
    108  NE1       32.0720  -19.0490   12.5870 N.ar   92  TRP92      -0.2442
    109  CE2       32.4630  -19.7210   11.4600 C.ar   92  TRP92       0.0810
    110  CE3       33.2170  -19.1360    9.1900 C.ar   92  TRP92       0.0012
    111  CZ2       32.5940  -21.0820   11.2070 C.ar   92  TRP92       0.0191
    112  CZ3       33.3610  -20.5040    8.9480 C.ar   92  TRP92       0.0001
    113  CH2       33.0640  -21.4620    9.9320 C.ar   92  TRP92       0.0015
    114  N         28.6310  -15.4460   17.7370 N.3   129  VAL129     -0.1231
    115  CA        28.6040  -16.3950   16.6070 C.3   129  VAL129      0.1692
    116  C         27.5520  -17.4930   16.8220 C.2   129  VAL129      0.2592
    117  O         26.7650  -17.7850   15.9340 O.2   129  VAL129     -0.2718
    118  CB        29.9860  -17.0230   16.3780 C.3   129  VAL129      0.0266
    119  CG1       29.9020  -18.2090   15.4060 C.3   129  VAL129      0.0020
    120  CG2       30.9800  -15.9480   15.8890 C.3   129  VAL129      0.0020
    121  N         27.5350  -18.0740   18.0190 N.am  130  ASP130     -0.1974
    122  CA        26.6660  -19.1920   18.2940 C.3   130  ASP130      0.1709
    123  C         25.2280  -18.7620   18.4500 C.2   130  ASP130      0.2293
    124  O         24.3490  -19.4520   17.9910 O.2   130  ASP130     -0.2864
    125  CB        27.1800  -19.9950   19.4950 C.3   130  ASP130      0.1436
    126  CG        28.5430  -20.6590   19.2110 C.2   130  ASP130      0.3671
    127  OD1       29.0730  -20.4660   18.0700 O.co2 130  ASP130     -0.2456
    128  OD2       29.1080  -21.3510   20.1250 O.co2 130  ASP130     -0.2456
    129  N         28.1310  -26.9290   21.4130 N.3   155  PHE155     -0.1241
    130  CA        29.2580  -26.2530   20.7950 C.3   155  PHE155      0.1605
    131  C         30.1000  -25.4350   21.7670 C.2   155  PHE155      0.2264
    132  O         31.2660  -25.1250   21.4800 O.2   155  PHE155     -0.2867
    133  CB        28.8010  -25.3070   19.6480 C.3   155  PHE155      0.0534
    134  CG        28.0790  -26.0160   18.5410 C.ar  155  PHE155     -0.0203
    135  CD1       28.5980  -27.1720   17.9780 C.ar  155  PHE155     -0.0042
    136  CD2       26.8860  -25.5180   18.0520 C.ar  155  PHE155     -0.0042
    137  CE1       27.9300  -27.8260   16.9480 C.ar  155  PHE155     -0.0003
    138  CE2       26.2110  -26.1720   17.0340 C.ar  155  PHE155     -0.0003
    139  CZ        26.7330  -27.3270   16.4780 C.ar  155  PHE155     -0.0000
    140  N         34.1220  -24.5110   21.7530 N.3   159  ASP159     -0.1239
    141  CA        34.3190  -23.0960   21.4120 C.3   159  ASP159      0.1674
    142  C         35.1010  -22.3500   22.5050 C.2   159  ASP159      0.2266
    143  O         35.9650  -21.5300   22.1860 O.2   159  ASP159     -0.2867
    144  CB        33.0020  -22.3970   21.0720 C.3   159  ASP159      0.1410
    145  CG        32.4010  -22.8800   19.7190 C.2   159  ASP159      0.3668
    146  OD1       33.1080  -23.5960   18.9510 O.co2 159  ASP159     -0.2456
    147  OD2       31.2060  -22.5700   19.4450 O.co2 159  ASP159     -0.2456
    148  N         38.7220  -23.3840   22.1250 N.3   162  LYS162     -0.1245
    149  CA        39.2700  -22.6250   21.0010 C.3   162  LYS162      0.1561
    150  C         39.5860  -21.1790   21.3910 C.2   162  LYS162      0.2260
    151  O         40.5810  -20.6200   20.9690 O.2   162  LYS162     -0.2867
    152  CB        38.2820  -22.6070   19.8210 C.3   162  LYS162      0.0271
    153  CG        38.0720  -23.9620   19.1560 C.3   162  LYS162      0.0035
    154  CD        36.8540  -23.9190   18.2450 C.3   162  LYS162      0.0206
    155  CE        36.1580  -25.2530   18.1370 C.3   162  LYS162      0.1093
    156  NZ        34.8250  -25.1160   17.4920 N.3   162  LYS162     -0.1314
@<TRIPOS>BOND
     1    65    66    2
     2    65    64    1
     3    64    63    1
     4    64    67    1
     5    69    68    2
     6    67    68    1
     7    68    70   am
     8    48    49    1
     9    99    97    1
    10    54    53    1
    11    53    52    1
    12    53    55    1
    13    51    50    2
    14    52    49    1
    15    49    50    1
    16    97    98    1
    17    97    96    2
    18    50    56   am
    19    59    58    2
    20    96    95    1
    21    58    57    1
    22    56    57    1
    23    57    60    1
    24    38    37    2
    25    95    94    1
    26    93    94    1
    27    93    90    1
    28    39    37   am
    29    76    75    1
    30    37    36    1
    31    60    62    1
    32    60    61    1
    33    92    91    2
    34    91    90    1
    35    71    72    1
    36    73    74    2
    37    73    72    1
    38    90    89    1
    39   112   110   ar
    40   112   113   ar
    41    75    72    1
    42   110   107   ar
    43    36    35    1
    44    89    79   am
    45   113   111   ar
    46    35    32    1
    47   104   105    1
    48   104   101    1
    49   107   105   ar
    50   107   109   ar
    51   102   103    2
    52   102   101    1
    53    13    14    1
    54    13    12    1
    55    79    80    2
    56    79    78    1
    57   105   106   ar
    58    14     8    1
    59   111   109   ar
    60   101   100    1
    61    77    78    1
    62   109   108   ar
    63    32    33    1
    64    32    31    1
    65    29    27    1
    66    12     9    1
    67    30    28    1
    68    78    81    1
    69    34    33    2
    70    33    40   am
    71     1     2    1
    72    81    82    1
    73     2     3    1
    74     2     5    1
    75   106   108   ar
    76     7     5    1
    77     8     3   am
    78     8     9    1
    79    84    82   ar
    80    84    86   ar
    81    27    28    1
    82    27    24    1
    83    40    41    1
    84     3     4    2
    85     5     6    1
    86     9    10    1
    87    82    83   ar
    88    86    87   ar
    89    41    44    1
    90    41    42    1
    91    24    25    1
    92    24    23    1
    93    11    10    2
    94    18    17    2
    95    10    15   am
    96    44    45    1
    97    25    26    2
    98    83    85   ar
    99    42    43    2
   100    87    85   ar
   101    87    88    1
   102    23    17   am
   103    17    16    1
   104    15    16    1
   105    46    45    2
   106   119   118    1
   107    45    47   am
   108    16    19    1
   109   120   118    1
   110   117   116    2
   111   118   115    1
   112   139   137   ar
   113   139   138   ar
   114   115   116    1
   115   115   114    1
   116   116   121   am
   117    19    21    1
   118    19    20    1
   119   137   135   ar
   120   138   136   ar
   121   156   155    1
   122    20    22    1
   123   135   134   ar
   124   124   123    2
   125   121   122    1
   126   136   134   ar
   127   127   126   ar
   128   155   154    1
   129   154   153    1
   130   122   123    1
   131   122   125    1
   132   134   133    1
   133   146   145   ar
   134   153   152    1
   135   126   125    1
   136   126   128   ar
   137   147   145   ar
   138   133   130    1
   139   145   144    1
   140   152   149    1
   141   130   129    1
   142   130   131    1
   143   151   150    2
   144   149   150    1
   145   149   148    1
   146   144   141    1
   147   141   140    1
   148   141   142    1
   149   132   131    2
   150   143   142    2
