@<TRIPOS>MOLECULE
tmp/4dveB02.pdb
 84 79 0 0 0
SMALL
GASTEIGER

@<TRIPOS>ATOM
      1  N         41.1050   -4.8180   13.5460 N.3    50  PRO50      -0.2102
      2  CA        39.7520   -4.8710   12.9940 C.3    50  PRO50       0.1504
      3  C         39.6730   -4.6910   11.4780 C.2    50  PRO50       0.2575
      4  O         38.6600   -5.0420   10.9070 O.2    50  PRO50      -0.2718
      5  CB        39.0450   -3.7150   13.6820 C.3    50  PRO50       0.0282
      6  CG        40.1390   -2.7750   14.0490 C.3    50  PRO50       0.0208
      7  CD        41.3060   -3.6400   14.4030 C.3    50  PRO50       0.0893
      8  N         40.6980   -4.1340   10.8380 N.am   51  LYS51      -0.1980
      9  CA        40.6570   -3.9260    9.3880 C.3    51  LYS51       0.1596
     10  C         41.2330   -5.1500    8.6820 C.2    51  LYS51       0.2287
     11  O         40.5210   -5.8490    7.9300 O.2    51  LYS51      -0.2864
     12  CB        41.3940   -2.6240    8.9940 C.3    51  LYS51       0.0298
     13  CG        41.5950   -2.4650    7.4840 C.3    51  LYS51       0.0038
     14  CD        42.2440   -1.1300    7.1000 C.3    51  LYS51       0.0206
     15  CE        42.3690   -1.0220    5.5820 C.3    51  LYS51       0.1093
     16  NZ        42.9340    0.2840    5.1040 N.3    51  LYS51      -0.1314
     17  N         39.5050   -8.5040    9.4410 N.3    54  THR54      -0.1203
     18  CA        38.2750   -8.6380    8.6760 C.3    54  THR54       0.1994
     19  C         38.5190   -8.9370    7.1850 C.2    54  THR54       0.2617
     20  O         37.8040   -9.7350    6.5580 O.2    54  THR54      -0.2717
     21  CB        37.4030   -7.3850    8.8230 C.3    54  THR54       0.1784
     22  OG1       37.1730   -7.1510   10.2100 O.3    54  THR54      -0.2211
     23  CG2       36.0730   -7.5730    8.1150 C.3    54  THR54       0.0376
     24  N         39.5280   -8.3000    6.6240 N.am   55  ILE55      -0.1979
     25  CA        39.9230   -8.5730    5.2550 C.3    55  ILE55       0.1595
     26  C         40.3420  -10.0310    5.0910 C.2    55  ILE55       0.2287
     27  O         39.9560  -10.6530    4.1250 O.2    55  ILE55      -0.2864
     28  CB        41.0600   -7.6220    4.7930 C.3    55  ILE55       0.0276
     29  CG1       40.4750   -6.2140    4.6270 C.3    55  ILE55       0.0022
     30  CG2       41.6910   -8.0750    3.4630 C.3    55  ILE55       0.0022
     31  CD1       41.5160   -5.1340    4.3870 C.3    55  ILE55       0.0001
     32  N         37.2330  -12.1390    5.3170 N.3    58  GLY58      -0.1210
     33  CA        36.4090  -11.8710    4.1570 C.3    58  GLY58       0.1956
     34  C         36.9320  -12.5440    2.9010 C.2    58  GLY58       0.2611
     35  O         36.1450  -13.0300    2.1010 O.2    58  GLY58      -0.2717
     36  N         38.2520  -12.5750    2.7270 N.am   59  ALA59      -0.1979
     37  CA        38.8500  -13.2600    1.5810 C.3    59  ALA59       0.1597
     38  C         38.5190  -14.7590    1.6250 C.2    59  ALA59       0.2287
     39  O         38.2220  -15.3620    0.5910 O.2    59  ALA59      -0.2864
     40  CB        40.3700  -13.0390    1.5340 C.3    59  ALA59       0.0319
     41  N         34.7530  -15.1180    0.8020 N.3    62  ALA62      -0.1245
     42  CA        34.6490  -14.8840   -0.6410 C.3    62  ALA62       0.1562
     43  C         35.0600  -16.0960   -1.4780 C.2    62  ALA62       0.2260
     44  O         34.3990  -16.4150   -2.4570 O.2    62  ALA62      -0.2867
     45  CB        35.4440  -13.6540   -1.0610 C.3    62  ALA62       0.0290
     46  N         32.0430  -13.1000    9.5850 N.3    93  LEU93      -0.1245
     47  CA        32.4770  -11.8770    8.9080 C.3    93  LEU93       0.1561
     48  C         32.7090  -10.6860    9.8940 C.2    93  LEU93       0.2260
     49  O         33.6270   -9.8900    9.7040 O.2    93  LEU93      -0.2867
     50  CB        31.4800  -11.4650    7.8290 C.3    93  LEU93       0.0270
     51  CG        31.9190  -10.2210    7.0280 C.3    93  LEU93       0.0019
     52  CD1       33.2720  -10.4570    6.3450 C.3    93  LEU93       0.0001
     53  CD2       30.8480   -9.8000    6.0160 C.3    93  LEU93       0.0001
     54  N         36.2400   -7.9090   13.2300 N.3    97  PHE97      -0.1241
     55  CA        36.0060   -6.5030   13.4100 C.3    97  PHE97       0.1605
     56  C         35.6900   -6.2430   14.8870 C.2    97  PHE97       0.2264
     57  O         36.2990   -5.3740   15.4870 O.2    97  PHE97      -0.2867
     58  CB        34.8960   -5.9320   12.5160 C.3    97  PHE97       0.0534
     59  CG        34.6420   -4.4870   12.7910 C.ar   97  PHE97      -0.0203
     60  CD1       33.6410   -4.0990   13.6610 C.ar   97  PHE97      -0.0042
     61  CD2       35.4800   -3.5210   12.2690 C.ar   97  PHE97      -0.0042
     62  CE1       33.4550   -2.7540   13.9720 C.ar   97  PHE97      -0.0003
     63  CE2       35.3010   -2.1720   12.5630 C.ar   97  PHE97      -0.0003
     64  CZ        34.2870   -1.7850   13.4230 C.ar   97  PHE97      -0.0000
     65  N         38.2620   -4.3260   17.1870 N.3   101  PHE101     -0.1241
     66  CA        37.8200   -3.0100   17.6450 C.3   101  PHE101      0.1605
     67  C         37.9130   -2.8710   19.1620 C.2   101  PHE101      0.2264
     68  O         38.4280   -1.8690   19.6960 O.2   101  PHE101     -0.2867
     69  CB        36.3780   -2.7340   17.1820 C.3   101  PHE101      0.0534
     70  CG        35.8410   -1.4080   17.6390 C.ar  101  PHE101     -0.0203
     71  CD1       35.0430   -1.3130   18.7790 C.ar  101  PHE101     -0.0042
     72  CD2       36.1120   -0.2610   16.9300 C.ar  101  PHE101     -0.0042
     73  CE1       34.5440   -0.0890   19.1980 C.ar  101  PHE101     -0.0003
     74  CE2       35.6290    0.9800   17.3480 C.ar  101  PHE101     -0.0003
     75  CZ        34.8510    1.0680   18.4850 C.ar  101  PHE101     -0.0000
     76  N         41.5310   -3.0010   20.5880 N.3   104  LYS104     -0.1245
     77  CA        42.1690   -1.7260   20.2850 C.3   104  LYS104      0.1561
     78  C         41.6410   -0.6330   21.2090 C.2   104  LYS104      0.2260
     79  O         42.4250    0.0310   21.9000 O.2   104  LYS104     -0.2867
     80  CB        41.9510   -1.4200   18.7940 C.3   104  LYS104      0.0271
     81  CG        42.4560   -0.0900   18.2930 C.3   104  LYS104      0.0035
     82  CD        42.4140   -0.1090   16.7770 C.3   104  LYS104      0.0206
     83  CE        42.2410    1.2730   16.1970 C.3   104  LYS104      0.1093
     84  NZ        42.2450    1.1500   14.7080 N.3   104  LYS104     -0.1314
@<TRIPOS>BOND
     1    44    43    2
     2    43    42    1
     3    45    42    1
     4    42    41    1
     5    39    38    2
     6    40    37    1
     7    37    38    1
     8    37    36    1
     9    35    34    2
    10    36    34   am
    11    34    33    1
    12    30    28    1
    13    27    26    2
    14    33    32    1
    15    31    29    1
    16    29    28    1
    17    28    25    1
    18    26    25    1
    19    16    15    1
    20    25    24    1
    21    15    14    1
    22    53    51    1
    23    52    51    1
    24    20    19    2
    25    24    19   am
    26    51    50    1
    27    14    13    1
    28    19    18    1
    29    13    12    1
    30    50    47    1
    31    11    10    2
    32    23    21    1
    33    18    21    1
    34    18    17    1
    35    10     9    1
    36    21    22    1
    37    47    46    1
    38    47    48    1
    39    12     9    1
    40     9     8    1
    41    49    48    2
    42     8     3   am
    43     4     3    2
    44     3     2    1
    45    61    63   ar
    46    61    59   ar
    47    58    59    1
    48    58    55    1
    49    63    64   ar
    50    59    60   ar
    51     2     1    1
    52     2     5    1
    53    54    55    1
    54    55    56    1
    55    64    62   ar
    56     1     7    1
    57    60    62   ar
    58     5     6    1
    59     6     7    1
    60    84    83    1
    61    56    57    2
    62    83    82    1
    63    82    81    1
    64    72    74   ar
    65    72    70   ar
    66    69    70    1
    67    69    66    1
    68    65    66    1
    69    74    75   ar
    70    70    71   ar
    71    66    67    1
    72    81    80    1
    73    75    73   ar
    74    71    73   ar
    75    80    77    1
    76    67    68    2
    77    77    76    1
    78    77    78    1
    79    78    79    2
