@<TRIPOS>MOLECULE
tmp/4dvgA00.pdb
 162 157 0 0 0
SMALL
GASTEIGER

@<TRIPOS>ATOM
      1  N         38.9000   51.0800   12.0420 N.3     9  GLY9       -0.1210
      2  CA        39.4330   51.4610   10.7440 C.3     9  GLY9        0.1956
      3  C         38.9420   52.8250   10.2520 C.2     9  GLY9        0.2612
      4  O         37.7430   53.1170   10.2340 O.2     9  GLY9       -0.2717
      5  N         39.8920   53.6830    9.9010 N.am   10  ALA10      -0.1965
      6  CA        39.6240   54.8370    9.0620 C.3    10  ALA10       0.1728
      7  C         39.0720   56.0200    9.8120 C.2    10  ALA10       0.2616
      8  O         38.5140   56.9180    9.1990 O.2    10  ALA10      -0.2715
      9  CB        38.6800   54.4550    7.9020 C.3    10  ALA10       0.0334
     10  N         39.2120   56.0240   11.1280 N.am   11  VAL11      -0.1963
     11  CA        38.6960   57.1300   11.9270 C.3    11  VAL11       0.1727
     12  C         39.6810   58.2830   12.0010 C.2    11  VAL11       0.2617
     13  O         39.3200   59.3720   12.4380 O.2    11  VAL11      -0.2715
     14  CB        38.3420   56.7030   13.3570 C.3    11  VAL11       0.0290
     15  CG1       37.2340   55.6650   13.3260 C.3    11  VAL11       0.0023
     16  CG2       39.5820   56.1820   14.0620 C.3    11  VAL11       0.0023
     17  N         40.9250   58.0300   11.5960 N.am   12  GLY12      -0.1940
     18  CA        41.9410   59.0710   11.5090 C.3    12  GLY12       0.2014
     19  C         43.0730   59.0200   12.5260 C.2    12  GLY12       0.2639
     20  O         43.6410   60.0560   12.8720 O.2    12  GLY12      -0.2714
     21  N         43.4080   57.8280   13.0070 N.am   13  LYS13      -0.1963
     22  CA        44.4990   57.6830   13.9610 C.3    13  LYS13       0.1728
     23  C         45.8730   58.0560   13.3680 C.2    13  LYS13       0.2617
     24  O         46.6070   58.8700   13.9500 O.2    13  LYS13      -0.2715
     25  CB        44.5450   56.2650   14.5110 C.3    13  LYS13       0.0311
     26  CG        43.3230   55.8480   15.3030 C.3    13  LYS13       0.0038
     27  CD        43.5170   54.4650   15.9210 C.3    13  LYS13       0.0206
     28  CE        43.6400   53.3990   14.8510 C.3    13  LYS13       0.1093
     29  NZ        42.4940   53.3970   13.9110 N.3    13  LYS13      -0.1314
     30  N         46.2240   57.4510   12.2290 N.am   14  THR14      -0.1937
     31  CA        47.5000   57.7390   11.5730 C.3    14  THR14       0.2028
     32  C         47.6370   59.2420   11.3530 C.2    14  THR14       0.2642
     33  O         48.6150   59.8560   11.7820 O.2    14  THR14      -0.2714
     34  CB        47.6280   57.0150   10.2260 C.3    14  THR14       0.1808
     35  OG1       47.4920   55.6010   10.4260 O.3    14  THR14      -0.2208
     36  CG2       48.9750   57.3320    9.5450 C.3    14  THR14       0.0379
     37  N         46.6440   59.8270   10.6900 N.am   15  CYS15      -0.1967
     38  CA        46.5880   61.2700   10.4950 C.3    15  CYS15       0.1712
     39  C         46.7330   62.0460   11.8020 C.2    15  CYS15       0.2296
     40  O         47.4670   63.0330   11.8590 O.2    15  CYS15      -0.2864
     41  CB        45.3060   61.6620    9.7770 C.3    15  CYS15       0.0983
     42  SG        45.2180   60.9640    8.1240 S.3    15  CYS15      -0.0798
     43  N         49.7320   65.4650    6.3890 N.3    25  ILE25      -0.1231
     44  CA        49.0340   64.2190    6.0840 C.3    25  ILE25       0.1678
     45  C         49.7350   63.4670    4.9570 C.2    25  ILE25       0.2434
     46  O         50.3620   64.0850    4.0950 O.2    25  ILE25      -0.2733
     47  CB        47.5770   64.5140    5.6820 C.3    25  ILE25       0.0265
     48  CG1       46.7170   64.7340    6.9270 C.3    25  ILE25       0.0019
     49  CG2       47.0080   63.4130    4.7850 C.3    25  ILE25       0.0020
     50  CD1       45.3280   65.2380    6.5980 C.3    25  ILE25       0.0001
     51  N         49.6500   62.1270    4.9780 N.am   26  PRO26      -0.2729
     52  CA        50.2690   61.2220    3.9980 C.3    26  PRO26       0.1401
     53  C         49.6390   61.1750    2.5940 C.2    26  PRO26       0.2269
     54  O         50.0530   60.3420    1.7820 O.2    26  PRO26      -0.2865
     55  CB        50.1570   59.8460    4.6730 C.3    26  PRO26       0.0296
     56  CG        49.1000   59.9940    5.6830 C.3    26  PRO26       0.0237
     57  CD        49.1870   61.4010    6.1680 C.3    26  PRO26       0.0939
     58  N         46.0350   57.2520    1.6190 N.3    29  TYR29      -0.1227
     59  CA        45.5400   56.4630    2.7290 C.3    29  TYR29       0.1736
     60  C         46.0650   55.0530    2.6600 C.2    29  TYR29       0.2595
     61  O         45.6770   54.2800    1.7850 O.2    29  TYR29      -0.2718
     62  CB        44.0170   56.3970    2.7110 C.3    29  TYR29       0.0548
     63  CG        43.4130   55.3630    3.6460 C.ar   29  TYR29      -0.0200
     64  CD1       43.4680   55.5250    5.0170 C.ar   29  TYR29      -0.0009
     65  CD2       42.7600   54.2380    3.1520 C.ar   29  TYR29      -0.0009
     66  CE1       42.8970   54.5980    5.8760 C.ar   29  TYR29       0.0417
     67  CE2       42.1750   53.3040    4.0150 C.ar   29  TYR29       0.0417
     68  CZ        42.2510   53.4950    5.3710 C.ar   29  TYR29       0.1957
     69  OH        41.6920   52.5820    6.2400 O.3    29  TYR29      -0.2866
     70  N         46.9310   54.7020    3.5900 N.am   30  VAL30      -0.1966
     71  CA        47.3110   53.3170    3.6910 C.3    30  VAL30       0.1712
     72  C         46.9280   52.7640    5.0310 C.2    30  VAL30       0.2458
     73  O         47.3490   53.2900    6.0520 O.2    30  VAL30      -0.2730
     74  CB        48.8040   53.1120    3.5040 C.3    30  VAL30       0.0289
     75  CG1       49.1120   51.6060    3.5740 C.3    30  VAL30       0.0023
     76  CG2       49.2460   53.7050    2.1870 C.3    30  VAL30       0.0023
     77  N         46.1360   51.6860    5.0340 N.am   31  PRO31      -0.2716
     78  CA        45.6830   51.0830    6.2970 C.3    31  PRO31       0.1536
     79  C         46.8920   50.6270    7.1500 C.2    31  PRO31       0.2599
     80  O         47.8040   49.9540    6.6470 O.2    31  PRO31      -0.2715
     81  CB        44.8340   49.8840    5.8330 C.3    31  PRO31       0.0310
     82  CG        44.5860   50.1160    4.3690 C.3    31  PRO31       0.0237
     83  CD        45.7310   50.9000    3.8590 C.3    31  PRO31       0.0939
     84  N         46.8920   51.0230    8.4220 N.am   32  THR32      -0.1951
     85  CA        47.9720   50.7390    9.3660 C.3    32  THR32       0.1897
     86  C         48.0430   49.2650    9.6770 C.2    32  THR32       0.2313
     87  O         47.0360   48.6270    9.7860 O.2    32  THR32      -0.2863
     88  CB        47.7100   51.4520   10.6770 C.3    32  THR32       0.1794
     89  OG1       47.4660   52.8340   10.4200 O.3    32  THR32      -0.2208
     90  CG2       48.8930   51.3280   11.5560 C.3    32  THR32       0.0378
     91  N         48.0910   51.6290   15.8460 N.3    55  THR55      -0.1218
     92  CA        47.5750   50.2690   15.7070 C.3    55  THR55       0.1862
     93  C         46.6110   50.1480   14.5510 C.2    55  THR55       0.2287
     94  O         46.2090   51.1590   13.9680 O.2    55  THR55      -0.2866
     95  CB        46.8860   49.7670   16.9730 C.3    55  THR55       0.1770
     96  OG1       45.7800   50.6150   17.3030 O.3    55  THR55      -0.2211
     97  CG2       47.8530   49.7690   18.1160 C.3    55  THR55       0.0375
     98  N         43.0520   49.4690   12.9220 N.3    57  GLY57      -0.1210
     99  CA        41.6180   49.4580   13.1400 C.3    57  GLY57       0.1956
    100  C         40.9620   48.1970   12.5900 C.2    57  GLY57       0.2611
    101  O         40.0300   47.6510   13.1890 O.2    57  GLY57      -0.2717
    102  N         41.4480   47.7260   11.4470 N.am   58  GLN58      -0.1979
    103  CA        40.8520   46.5570   10.7840 C.3    58  GLN58       0.1601
    104  C         40.8320   45.2740   11.6210 C.2    58  GLN58       0.2287
    105  O         41.7410   44.9960   12.3890 O.2    58  GLN58      -0.2864
    106  CB        41.4870   46.3170    9.4110 C.3    58  GLN58       0.0394
    107  CG        41.2690   47.4880    8.4400 C.3    58  GLN58       0.0908
    108  CD        41.8990   47.2620    7.0770 C.2    58  GLN58       0.2608
    109  OE1       42.6920   46.3360    6.8840 O.2    58  GLN58      -0.2717
    110  NE2       41.5400   48.1060    6.1170 N.am   58  GLN58      -0.0878
    111  N         37.6240   62.3320   16.6010 N.3   112  LEU112     -0.1231
    112  CA        38.3680   62.7470   15.4220 C.3   112  LEU112      0.1693
    113  C         37.4620   63.2610   14.2970 C.2   112  LEU112      0.2591
    114  O         36.2420   63.0860   14.3460 O.2   112  LEU112     -0.2718
    115  CB        39.2410   61.5960   14.9180 C.3   112  LEU112      0.0284
    116  CG        40.4940   61.2480   15.7400 C.3   112  LEU112      0.0019
    117  CD1       41.3160   60.1990   15.0280 C.3   112  LEU112      0.0001
    118  CD2       41.3600   62.4640   16.0100 C.3   112  LEU112      0.0001
    119  N         38.0810   63.9000   13.2990 N.am  113  LYS113     -0.1980
    120  CA        37.3830   64.5000   12.1620 C.3   113  LYS113      0.1596
    121  C         36.2710   65.5030   12.5310 C.2   113  LYS113      0.2287
    122  O         35.2130   65.5040   11.8880 O.2   113  LYS113     -0.2864
    123  CB        36.7710   63.4210   11.2700 C.3   113  LYS113      0.0298
    124  CG        37.7420   62.4170   10.7190 C.3   113  LYS113      0.0038
    125  CD        37.0300   61.4580    9.7590 C.3   113  LYS113      0.0206
    126  CE        37.7580   60.1330    9.6330 C.3   113  LYS113      0.1093
    127  NZ        37.4520   59.5360    8.3330 N.3   113  LYS113     -0.1314
    128  N         36.0500   68.4380   11.8640 N.3   115  ASP115     -0.1225
    129  CA        35.8870   69.3660   10.7630 C.3   115  ASP115      0.1805
    130  C         34.6980   68.9510    9.9170 C.2   115  ASP115      0.2597
    131  O         34.0630   69.7780    9.2710 O.2   115  ASP115     -0.2718
    132  CB        37.1550   69.4250    9.9130 C.3   115  ASP115      0.1424
    133  CG        37.5120   68.0790    9.2990 C.2   115  ASP115      0.3668
    134  OD1       37.1180   67.0500    9.8850 O.co2 115  ASP115     -0.2456
    135  OD2       38.1900   68.0420    8.2360 O.co2 115  ASP115     -0.2456
    136  N         34.3810   67.6640    9.9470 N.am  116  LEU116     -0.1979
    137  CA        33.3280   67.1420    9.0820 C.3   116  LEU116      0.1596
    138  C         31.9530   67.0800    9.7450 C.2   116  LEU116      0.2287
    139  O         30.9820   66.6710    9.1160 O.2   116  LEU116     -0.2864
    140  CB        33.6860   65.7520    8.5570 C.3   116  LEU116      0.0297
    141  CG        34.9370   65.5920    7.7060 C.3   116  LEU116      0.0022
    142  CD1       35.1970   64.1150    7.4380 C.3   116  LEU116      0.0001
    143  CD2       34.7990   66.3820    6.4180 C.3   116  LEU116      0.0001
    144  N         40.8330   67.7940   14.7190 N.3   145  SER145     -0.1202
    145  CA        40.8820   67.5840   13.2780 C.3   145  SER145      0.2020
    146  C         42.3110   67.6230   12.7420 C.2   145  SER145      0.2619
    147  O         43.0340   68.5880   12.9280 O.2   145  SER145     -0.2717
    148  CB        39.9890   68.5720   12.5380 C.3   145  SER145      0.2103
    149  OG        40.3060   68.6070   11.1520 O.3   145  SER145     -0.2182
    150  N         42.7210   66.5460   12.0930 N.am  146  SER146     -0.1937
    151  CA        44.0160   66.5200   11.4480 C.3   146  SER146      0.2055
    152  C         44.0020   67.4300   10.2220 C.2   146  SER146      0.2642
    153  O         45.0460   67.8880    9.7750 O.2   146  SER146     -0.2714
    154  CB        44.3640   65.0880   11.0430 C.3   146  SER146      0.2130
    155  OG        44.0540   64.1810   12.0870 O.3   146  SER146     -0.2179
    156  N         42.8140   67.6820    9.6780 N.am  147  VAL147     -0.1977
    157  CA        42.6690   68.4690    8.4510 C.3   147  VAL147      0.1596
    158  C         42.6220   69.9770    8.7120 C.2   147  VAL147      0.2287
    159  O         43.1980   70.7570    7.9610 O.2   147  VAL147     -0.2864
    160  CB        41.4210   68.0330    7.6380 C.3   147  VAL147      0.0276
    161  CG1       41.1220   69.0250    6.4930 C.3   147  VAL147      0.0022
    162  CG2       41.6120   66.6150    7.1010 C.3   147  VAL147      0.0022
@<TRIPOS>BOND
     1    58    59    1
     2    54    53    2
     3    61    60    2
     4    76    74    1
     5    53    52    1
     6    60    59    1
     7    60    70   am
     8    62    59    1
     9    62    63    1
    10    65    63   ar
    11    65    67   ar
    12    74    75    1
    13    74    71    1
    14    70    71    1
    15    63    64   ar
    16    71    72    1
    17    83    82    1
    18    83    77    1
    19    52    55    1
    20    52    51    1
    21    67    68   ar
    22    46    45    2
    23    82    81    1
    24    55    56    1
    25    49    47    1
    26    45    51   am
    27    45    44    1
    28    51    57    1
    29    64    66   ar
    30    72    77   am
    31    72    73    2
    32    77    78    1
    33    68    66   ar
    34    68    69    1
    35    47    44    1
    36    47    48    1
    37    56    57    1
    38    81    78    1
    39    44    43    1
    40   110   108   am
    41    78    79    1
    42   143   141    1
    43   161   160    1
    44    50    48    1
    45    80    79    2
    46   109   108    2
    47   108   107    1
    48   162   160    1
    49    79    84   am
    50   142   141    1
    51   160   157    1
    52   141   140    1
    53     9     6    1
    54   159   158    2
    55    42    41    1
    56   135   133   ar
    57   127   126    1
    58    84    85    1
    59   107   106    1
    60   157   158    1
    61   157   156    1
    62   140   137    1
    63     6     7    1
    64     6     5    1
    65   137   138    1
    66   137   136    1
    67   139   138    2
    68     8     7    2
    69   131   130    2
    70   133   134   ar
    71   133   132    1
    72    85    86    1
    73    85    88    1
    74   106   103    1
    75    36    34    1
    76   126   125    1
    77    86    87    2
    78   156   152   am
    79   125   124    1
    80   153   152    2
    81    41    38    1
    82     7    10   am
    83     5     3   am
    84   132   129    1
    85   130   136   am
    86   130   129    1
    87   152   151    1
    88    34    35    1
    89    34    31    1
    90     4     3    2
    91     3     2    1
    92    89    88    1
    93    38    37    1
    94    38    39    1
    95    88    90    1
    96    37    32   am
    97   124   123    1
    98     2     1    1
    99   129   128    1
   100   103   102    1
   101   103   104    1
   102   154   151    1
   103   154   155    1
   104    10    11    1
   105   149   148    1
   106   123   120    1
   107    32    31    1
   108    32    33    2
   109   102   100   am
   110   151   150    1
   111    18    17    1
   112    18    19    1
   113    31    30    1
   114    17    12   am
   115   104   105    2
   116    39    40    2
   117   122   121    2
   118    11    12    1
   119    11    14    1
   120    12    13    2
   121   150   146   am
   122   120   121    1
   123   120   119    1
   124    30    23   am
   125    19    20    2
   126    19    21   am
   127   148   145    1
   128   100    99    1
   129   100   101    2
   130   146   147    2
   131   146   145    1
   132    98    99    1
   133    21    22    1
   134   145   144    1
   135   119   113   am
   136    15    14    1
   137    14    16    1
   138    23    24    2
   139    23    22    1
   140    29    28    1
   141    22    25    1
   142    94    93    2
   143   113   114    2
   144   113   112    1
   145    25    26    1
   146    93    92    1
   147    28    27    1
   148   115   112    1
   149   115   116    1
   150   117   116    1
   151    26    27    1
   152   112   111    1
   153    92    91    1
   154    92    95    1
   155   116   118    1
   156    95    96    1
   157    95    97    1
