@<TRIPOS>MOLECULE
tmp/4dvkA00.pdb
 111 109 0 0 0
SMALL
GASTEIGER

@<TRIPOS>ATOM
      1  N        -12.7490   54.6420    7.6440 N.3     1  GLU1       -0.1231
      2  CA       -12.0260   54.2040    6.4470 C.3     1  GLU1        0.1699
      3  C        -12.4660   54.9330    5.1490 C.2     1  GLU1        0.2592
      4  O        -11.6760   55.0760    4.2110 O.2     1  GLU1       -0.2718
      5  CB       -12.0610   52.6530    6.3210 C.3     1  GLU1        0.0402
      6  CG       -11.3850   52.0370    5.0960 C.3     1  GLU1        0.1161
      7  CD        -9.9180   52.2960    4.7680 C.2     1  GLU1        0.3649
      8  OE1       -9.3240   51.4460    4.0630 O.co2   1  GLU1       -0.2457
      9  OE2       -9.3860   53.3700    5.1330 O.co2   1  GLU1       -0.2457
     10  N        -13.7070   55.4380    5.1410 N.am    2  ASN2       -0.1974
     11  CA       -14.3420   56.1400    4.0220 C.3     2  ASN2        0.1688
     12  C        -14.5520   57.6070    4.3250 C.2     2  ASN2        0.2292
     13  O        -15.0470   57.9550    5.4040 O.2     2  ASN2       -0.2864
     14  CB       -15.6920   55.4970    3.6520 C.3     2  ASN2        0.1181
     15  CG       -15.5840   54.0220    3.4630 C.2     2  ASN2        0.2629
     16  OD1      -14.5330   53.5050    3.0910 O.2     2  ASN2       -0.2716
     17  ND2      -16.6610   53.3030    3.7500 N.am    2  ASN2       -0.0877
     18  N        -16.8040   60.6670    3.8790 N.3     4  THR4       -0.1218
     19  CA       -18.1500   61.0920    3.5120 C.3     4  THR4        0.1862
     20  C        -18.0420   62.6190    3.3240 C.2     4  THR4        0.2287
     21  O        -17.6460   63.3240    4.2550 O.2     4  THR4       -0.2866
     22  CB       -19.1970   60.7010    4.5610 C.3     4  THR4        0.1770
     23  OG1      -19.2280   59.2840    4.6590 O.3     4  THR4       -0.2211
     24  CG2      -20.5800   61.2220    4.2180 C.3     4  THR4        0.0375
     25  N        -19.3890   59.0460   -0.7900 N.3    32  ILE32      -0.1245
     26  CA       -18.8130   58.2110    0.2650 C.3    32  ILE32       0.1561
     27  C        -17.6490   57.5610   -0.4190 C.2    32  ILE32       0.2260
     28  O        -17.8290   56.7860   -1.3680 O.2    32  ILE32      -0.2867
     29  CB       -19.7990   57.2060    0.9040 C.3    32  ILE32       0.0252
     30  CG1      -21.0100   57.9440    1.4940 C.3    32  ILE32       0.0019
     31  CG2      -19.0410   56.3380    1.9520 C.3    32  ILE32       0.0019
     32  CD1      -22.1970   57.0880    1.9420 C.3    32  ILE32       0.0001
     33  N        -14.2640   55.3810   -0.3260 N.3    34  PRO34      -0.2116
     34  CA       -13.1860   54.5010    0.1640 C.3    34  PRO34       0.1372
     35  C        -11.8620   54.9250   -0.5040 C.2    34  PRO34       0.2244
     36  O        -11.8660   55.7800   -1.3870 O.2    34  PRO34      -0.2868
     37  CB       -13.6240   53.1180   -0.3430 C.3    34  PRO34       0.0268
     38  CG       -15.1410   53.2810   -0.6200 C.3    34  PRO34       0.0207
     39  CD       -15.1980   54.6470   -1.1950 C.3    34  PRO34       0.0892
     40  N        -16.8970   49.0210   -7.5080 N.3    82  CYS82      -0.1221
     41  CA       -15.6870   48.2790   -7.1670 C.3    82  CYS82       0.1808
     42  C        -15.5150   48.0610   -5.6700 C.2    82  CYS82       0.2601
     43  O        -14.7050   47.2330   -5.2610 O.2    82  CYS82      -0.2717
     44  CB       -14.4550   48.9480   -7.7850 C.3    82  CYS82       0.0970
     45  SG       -14.0500   50.5720   -7.0770 S.3    82  CYS82      -0.0800
     46  N        -16.2720   48.8040   -4.8620 N.am   83  ASN83      -0.1960
     47  CA       -16.1560   48.7750   -3.4180 C.3    83  ASN83       0.1819
     48  C        -17.3090   48.0840   -2.7300 C.2    83  ASN83       0.2621
     49  O        -17.0850   47.3700   -1.7690 O.2    83  ASN83      -0.2715
     50  CB       -15.9280   50.1990   -2.8960 C.3    83  ASN83       0.1195
     51  CG       -14.6060   50.7610   -3.3620 C.2    83  ASN83       0.2630
     52  OD1      -13.5790   50.1100   -3.2720 O.2    83  ASN83      -0.2716
     53  ND2      -14.6000   51.9780   -3.8870 N.am   83  ASN83      -0.0877
     54  N        -18.5260   48.3180   -3.1960 N.am   84  TRP84      -0.1960
     55  CA       -19.7540   47.7530   -2.6530 C.3    84  TRP84       0.1771
     56  C        -20.2360   46.5220   -3.4110 C.2    84  TRP84       0.2620
     57  O        -21.0570   45.8010   -2.8610 O.2    84  TRP84      -0.2715
     58  CB       -20.8620   48.8120   -2.6240 C.3    84  TRP84       0.0590
     59  CG       -20.7710   49.6770   -1.4070 C.ar   84  TRP84       0.0006
     60  CD1      -21.4230   49.4990   -0.2260 C.ar   84  TRP84       0.0946
     61  CD2      -19.9350   50.8360   -1.2380 C.ar   84  TRP84       0.0152
     62  NE1      -21.0470   50.4700    0.6670 N.ar   84  TRP84      -0.2442
     63  CE2      -20.1440   51.3120    0.0680 C.ar   84  TRP84       0.0810
     64  CE3      -19.0690   51.5470   -2.0870 C.ar   84  TRP84       0.0012
     65  CZ2      -19.5050   52.4660    0.5560 C.ar   84  TRP84       0.0191
     66  CZ3      -18.4540   52.6940   -1.6070 C.ar   84  TRP84       0.0001
     67  CH2      -18.6360   53.1130   -0.2850 C.ar   84  TRP84       0.0015
     68  N        -19.7910   46.3220   -4.6910 N.am   85  TYR85      -0.1960
     69  CA       -20.1270   45.1600   -5.5460 C.3    85  TYR85       0.1771
     70  C        -21.5340   45.1150   -6.0690 C.2    85  TYR85       0.2619
     71  O        -21.7450   44.6340   -7.1730 O.2    85  TYR85      -0.2715
     72  CB       -19.7090   43.8040   -4.9200 C.3    85  TYR85       0.0574
     73  CG       -18.3060   43.8550   -4.3610 C.ar   85  TYR85      -0.0198
     74  CD1      -17.2090   44.0360   -5.1990 C.ar   85  TYR85      -0.0009
     75  CD2      -18.0810   43.8500   -2.9880 C.ar   85  TYR85      -0.0009
     76  CE1      -15.9220   44.1990   -4.6870 C.ar   85  TYR85       0.0417
     77  CE2      -16.7980   44.0090   -2.4630 C.ar   85  TYR85       0.0417
     78  CZ       -15.7190   44.1570   -3.3190 C.ar   85  TYR85       0.1957
     79  OH       -14.4440   44.2740   -2.8260 O.3    85  TYR85      -0.2866
     80  N        -22.4960   45.5900   -5.2940 N.am   86  ASN86      -0.1972
     81  CA       -23.9050   45.5520   -5.6620 C.3    86  ASN86       0.1688
     82  C        -24.4940   46.9070   -5.3450 C.2    86  ASN86       0.2292
     83  O        -24.1570   47.4800   -4.3190 O.2    86  ASN86      -0.2864
     84  CB       -24.6110   44.4100   -4.8650 C.3    86  ASN86       0.1181
     85  CG       -24.1460   43.0600   -5.3590 C.2    86  ASN86       0.2629
     86  OD1      -24.4780   42.6490   -6.4620 O.2    86  ASN86      -0.2716
     87  ND2      -23.2760   42.4120   -4.6270 N.am   86  ASN86      -0.0877
     88  N        -27.5860   47.8560   -4.5450 N.3    88  GLU88      -0.1231
     89  CA       -28.5120   47.8670   -3.4180 C.3    88  GLU88       0.1684
     90  C        -27.8610   48.3250   -2.0910 C.2    88  GLU88       0.2434
     91  O        -28.3160   49.3250   -1.5530 O.2    88  GLU88      -0.2733
     92  CB       -29.2530   46.5260   -3.2750 C.3    88  GLU88       0.0402
     93  CG       -30.1910   46.4740   -2.0730 C.3    88  GLU88       0.1161
     94  CD       -30.7830   45.1080   -1.7810 C.2    88  GLU88       0.3649
     95  OE1      -31.1730   44.8760   -0.6200 O.co2  88  GLU88      -0.2457
     96  OE2      -30.8290   44.2560   -2.6960 O.co2  88  GLU88      -0.2457
     97  N        -26.8190   47.6770   -1.5420 N.am   89  PRO89      -0.2729
     98  CA       -26.2730   48.1770   -0.2660 C.3    89  PRO89       0.1401
     99  C        -25.6670   49.5890   -0.3790 C.2    89  PRO89       0.2269
    100  O        -25.7330   50.3360    0.5930 O.2    89  PRO89      -0.2865
    101  CB       -25.2590   47.1050    0.1410 C.3    89  PRO89       0.0296
    102  CG       -24.8650   46.4460   -1.1480 C.3    89  PRO89       0.0237
    103  CD       -26.1230   46.4340   -1.9740 C.3    89  PRO89       0.0939
    104  N        -26.8660   52.8230    1.8680 N.3    93  LEU93      -0.1245
    105  CA       -25.8990   53.5980    2.6380 C.3    93  LEU93       0.1561
    106  C        -25.9240   55.0870    2.2340 C.2    93  LEU93       0.2260
    107  O        -26.0440   55.9490    3.1050 O.2    93  LEU93      -0.2867
    108  CB       -24.4840   53.0300    2.5320 C.3    93  LEU93       0.0270
    109  CG       -23.4180   53.7980    3.3390 C.3    93  LEU93       0.0019
    110  CD1      -23.7050   53.7000    4.8700 C.3    93  LEU93       0.0001
    111  CD2      -22.0400   53.3090    3.0180 C.3    93  LEU93       0.0001
@<TRIPOS>BOND
     1    44    41    1
     2    44    45    1
     3    40    41    1
     4    71    70    2
     5    41    42    1
     6    86    85    2
     7    70    69    1
     8    70    80   am
     9    42    43    2
    10    42    46   am
    11    81    82    1
    12    81    80    1
    13    81    84    1
    14    69    72    1
    15    69    68    1
    16    85    84    1
    17    85    87   am
    18    82    83    2
    19    74    76   ar
    20    74    73   ar
    21    72    73    1
    22    46    47    1
    23    68    56   am
    24    76    78   ar
    25    88    89    1
    26    73    75   ar
    27    53    51   am
    28    47    50    1
    29    47    48    1
    30    89    92    1
    31    89    90    1
    32    56    57    2
    33    56    55    1
    34    51    52    2
    35    51    50    1
    36    78    79    1
    37    78    77   ar
    38    92    93    1
    39    54    48   am
    40    54    55    1
    41    75    77   ar
    42    48    49    2
    43    96    94   ar
    44    55    58    1
    45    58    59    1
    46    90    91    2
    47    90    97   am
    48    64    66   ar
    49    64    61   ar
    50    93    94    1
    51   103    97    1
    52   103   102    1
    53    94    95   ar
    54    66    67   ar
    55    97    98    1
    56    59    61   ar
    57    59    60   ar
    58    36    35    2
    59    28    27    2
    60    61    63   ar
    61    39    38    1
    62    39    33    1
    63   102   101    1
    64    25    26    1
    65    38    37    1
    66    35    34    1
    67    27    26    1
    68    99    98    1
    69    99   100    2
    70    37    34    1
    71    33    34    1
    72    67    65   ar
    73    98   101    1
    74    60    62   ar
    75    63    65   ar
    76    63    62   ar
    77    26    29    1
    78    29    30    1
    79    29    31    1
    80    30    32    1
    81   104   105    1
    82   106   105    1
    83   106   107    2
    84   108   105    1
    85   108   109    1
    86   111   109    1
    87    16    15    2
    88    20    19    1
    89    20    21    2
    90   109   110    1
    91    15    14    1
    92    15    17   am
    93    19    18    1
    94    19    22    1
    95    14    11    1
    96    11    12    1
    97    11    10    1
    98     8     7   ar
    99     4     3    2
   100    24    22    1
   101    12    13    2
   102    22    23    1
   103     7     6    1
   104     7     9   ar
   105     6     5    1
   106    10     3   am
   107     3     2    1
   108     5     2    1
   109     2     1    1
