@<TRIPOS>MOLECULE
tmp/4dvlA00.pdb
 95 94 0 0 0
SMALL
GASTEIGER

@<TRIPOS>ATOM
      1  N         20.0730   16.4230   31.8660 N.3     2  ASN2       -0.1240
      2  CA        19.2480   17.4060   31.1630 C.3     2  ASN2        0.1653
      3  C         19.8060   17.6700   29.7810 C.2     2  ASN2        0.2266
      4  O         21.0010   17.9700   29.6420 O.2     2  ASN2       -0.2867
      5  CB        19.1430   18.7240   31.9320 C.3     2  ASN2        0.1155
      6  CG        18.6550   18.6080   33.3470 C.2     2  ASN2        0.2627
      7  OD1       17.9490   17.6620   33.7260 O.2     2  ASN2       -0.2716
      8  ND2       19.0370   19.5860   34.1670 N.am    2  ASN2       -0.0877
      9  N         15.8850   23.3260   27.7890 N.3    32  ILE32      -0.1245
     10  CA        16.6680   22.4890   28.7000 C.3    32  ILE32       0.1561
     11  C         15.6830   21.4250   29.1740 C.2    32  ILE32       0.2260
     12  O         14.6950   21.7340   29.8560 O.2    32  ILE32      -0.2867
     13  CB        17.3440   23.2610   29.8630 C.3    32  ILE32       0.0252
     14  CG1       18.3040   24.3420   29.3110 C.3    32  ILE32       0.0019
     15  CG2       18.0820   22.2810   30.8060 C.3    32  ILE32       0.0019
     16  CD1       18.7120   25.4360   30.2620 C.3    32  ILE32       0.0001
     17  N         14.7870   18.1230   31.3000 N.3    34  PRO34      -0.2116
     18  CA        15.0030   17.0130   32.2380 C.3    34  PRO34       0.1372
     19  C         14.2010   15.7740   31.7890 C.2    34  PRO34       0.2244
     20  O         13.4110   15.8800   30.8390 O.2    34  PRO34      -0.2868
     21  CB        14.4530   17.5640   33.5640 C.3    34  PRO34       0.0268
     22  CG        14.2920   19.0230   33.3620 C.3    34  PRO34       0.0207
     23  CD        13.9520   19.1650   31.9240 C.3    34  PRO34       0.0892
     24  N          7.4720   21.9390   36.8590 N.3    82  CYS82      -0.1221
     25  CA         7.4480   20.7230   37.6780 C.3    82  CYS82       0.1808
     26  C          8.8430   20.2130   38.0540 C.2    82  CYS82       0.2601
     27  O          8.9480   19.2630   38.8380 O.2    82  CYS82      -0.2717
     28  CB         6.6260   19.6440   36.9760 C.3    82  CYS82       0.0970
     29  SG         7.3880   19.0120   35.4550 S.3    82  CYS82      -0.0800
     30  N          9.9080   20.8320   37.4860 N.am   83  ASN83      -0.1960
     31  CA        11.2980   20.4340   37.6940 C.3    83  ASN83       0.1819
     32  C         12.1290   21.4500   38.4790 C.2    83  ASN83       0.2621
     33  O         12.9590   21.0400   39.2980 O.2    83  ASN83      -0.2715
     34  CB        11.9480   20.1120   36.3580 C.3    83  ASN83       0.1195
     35  CG        11.2900   18.9800   35.6040 C.2    83  ASN83       0.2630
     36  OD1       11.2530   17.8250   36.0490 O.2    83  ASN83      -0.2716
     37  ND2       10.8040   19.2770   34.4190 N.am   83  ASN83      -0.0877
     38  N         11.9300   22.7720   38.2100 N.am   84  TRP84      -0.1960
     39  CA        12.6520   23.8590   38.8900 C.3    84  TRP84       0.1771
     40  C         11.8380   24.4790   40.0000 C.2    84  TRP84       0.2620
     41  O         12.4130   25.1320   40.8790 O.2    84  TRP84      -0.2715
     42  CB        13.1470   24.9270   37.9070 C.3    84  TRP84       0.0590
     43  CG        14.4380   24.5430   37.2470 C.ar   84  TRP84       0.0006
     44  CD1       15.6980   24.7550   37.7220 C.ar   84  TRP84       0.0946
     45  CD2       14.5860   23.7700   36.0440 C.ar   84  TRP84       0.0152
     46  NE1       16.6270   24.2040   36.8660 N.ar   84  TRP84      -0.2442
     47  CE2       15.9740   23.6130   35.8170 C.ar   84  TRP84       0.0810
     48  CE3       13.6800   23.2500   35.1010 C.ar   84  TRP84       0.0012
     49  CZ2       16.4770   22.9640   34.6840 C.ar   84  TRP84       0.0191
     50  CZ3       14.1800   22.6100   33.9780 C.ar   84  TRP84       0.0001
     51  CH2       15.5610   22.4540   33.7860 C.ar   84  TRP84       0.0015
     52  N         10.4880   24.2570   39.9740 N.am   85  TYR85      -0.1960
     53  CA         9.5050   24.7200   40.9600 C.3    85  TYR85       0.1771
     54  C          9.2820   26.2230   40.9560 C.2    85  TYR85       0.2619
     55  O          8.1380   26.6630   40.9960 O.2    85  TYR85      -0.2715
     56  CB         9.7810   24.1480   42.3740 C.3    85  TYR85       0.0574
     57  CG        10.1250   22.6720   42.3620 C.ar   85  TYR85      -0.0198
     58  CD1        9.1880   21.7240   41.9680 C.ar   85  TYR85      -0.0009
     59  CD2       11.4090   22.2310   42.6750 C.ar   85  TYR85      -0.0009
     60  CE1        9.5100   20.3700   41.9040 C.ar   85  TYR85       0.0417
     61  CE2       11.7470   20.8780   42.6030 C.ar   85  TYR85       0.0417
     62  CZ        10.7880   19.9500   42.2280 C.ar   85  TYR85       0.1957
     63  OH        11.0880   18.6120   42.1740 O.3    85  TYR85      -0.2866
     64  N         10.3590   27.0060   40.8590 N.am   86  ASN86      -0.1972
     65  CA        10.3190   28.4640   40.8150 C.3    86  ASN86       0.1688
     66  C         10.8810   29.0000   39.4960 C.2    86  ASN86       0.2292
     67  O         11.8750   28.4800   38.9900 O.2    86  ASN86      -0.2864
     68  CB        11.0880   29.0510   41.9990 C.3    86  ASN86       0.1181
     69  CG        10.5680   28.5980   43.3250 C.2    86  ASN86       0.2629
     70  OD1       11.1580   27.7340   43.9770 O.2    86  ASN86      -0.2716
     71  ND2        9.4470   29.1630   43.7470 N.am   86  ASN86      -0.0877
     72  N         12.4410   31.9290   38.9420 N.3    88  GLU88      -0.1231
     73  CA        13.7280   32.5980   39.1190 C.3    88  GLU88       0.1684
     74  C         14.9090   31.6880   38.8080 C.2    88  GLU88       0.2434
     75  O         15.6620   32.0670   37.9110 O.2    88  GLU88      -0.2733
     76  CB        13.8410   33.2620   40.4920 C.3    88  GLU88       0.0402
     77  CG        15.1980   33.8880   40.7620 C.3    88  GLU88       0.1161
     78  CD        15.3780   34.5310   42.1170 C.2    88  GLU88       0.3649
     79  OE1       16.3600   35.2930   42.2720 O.co2  88  GLU88      -0.2457
     80  OE2       14.5420   34.2900   43.0180 O.co2  88  GLU88      -0.2457
     81  N         15.0730   30.4870   39.4510 N.am   89  PRO89      -0.2729
     82  CA        16.2020   29.5970   39.0990 C.3    89  PRO89       0.1401
     83  C         16.2200   29.1320   37.6440 C.2    89  PRO89       0.2269
     84  O         17.2910   28.9570   37.0780 O.2    89  PRO89      -0.2865
     85  CB        16.0120   28.3970   40.0380 C.3    89  PRO89       0.0296
     86  CG        15.1870   28.8910   41.1420 C.3    89  PRO89       0.0237
     87  CD        14.2690   29.8880   40.5370 C.3    89  PRO89       0.0939
     88  N         19.1280   30.1570   34.6570 N.3    93  LEU93      -0.1245
     89  CA        19.7660   29.0670   33.9250 C.3    93  LEU93       0.1561
     90  C         19.6100   29.2310   32.4330 C.2    93  LEU93       0.2260
     91  O         20.6130   29.2250   31.7250 O.2    93  LEU93      -0.2867
     92  CB        19.2470   27.6950   34.3700 C.3    93  LEU93       0.0270
     93  CG        19.8800   26.4740   33.6880 C.3    93  LEU93       0.0019
     94  CD1       21.3160   26.2850   34.1180 C.3    93  LEU93       0.0001
     95  CD2       19.0730   25.2370   33.9610 C.3    93  LEU93       0.0001
@<TRIPOS>BOND
     1     9    10    1
     2    10    11    1
     3    10    13    1
     4    11    12    2
     5    14    13    1
     6    14    16    1
     7     4     3    2
     8     3     2    1
     9    13    15    1
    10    20    19    2
    11     2     1    1
    12     2     5    1
    13    17    23    1
    14    17    18    1
    15    91    90    2
    16    19    18    1
    17    23    22    1
    18     5     6    1
    19    18    21    1
    20    90    89    1
    21     6     7    2
    22     6     8   am
    23    22    21    1
    24    93    95    1
    25    93    94    1
    26    93    92    1
    27    51    50   ar
    28    51    49   ar
    29    89    92    1
    30    89    88    1
    31    50    48   ar
    32    37    35   am
    33    49    47   ar
    34    48    45   ar
    35    29    28    1
    36    35    36    2
    37    35    34    1
    38    47    45   ar
    39    47    46   ar
    40    45    43   ar
    41    34    31    1
    42    24    25    1
    43    46    44   ar
    44    28    25    1
    45    84    83    2
    46    43    44   ar
    47    43    42    1
    48    30    31    1
    49    30    26   am
    50    83    82    1
    51    25    26    1
    52    31    32    1
    53    42    39    1
    54    75    74    2
    55    26    27    2
    56    38    32   am
    57    38    39    1
    58    32    33    2
    59    74    73    1
    60    74    81   am
    61    39    40    1
    62    72    73    1
    63    67    66    2
    64    82    81    1
    65    82    85    1
    66    73    76    1
    67    81    87    1
    68    66    65    1
    69    52    40   am
    70    52    53    1
    71    40    41    2
    72    85    86    1
    73    76    77    1
    74    87    86    1
    75    77    78    1
    76    65    64    1
    77    65    68    1
    78    64    54   am
    79    54    53    1
    80    54    55    2
    81    53    56    1
    82    60    58   ar
    83    60    62   ar
    84    58    57   ar
    85    68    69    1
    86    78    79   ar
    87    78    80   ar
    88    63    62    1
    89    62    61   ar
    90    57    56    1
    91    57    59   ar
    92    61    59   ar
    93    69    71   am
    94    69    70    2
