@<TRIPOS>MOLECULE
tmp/4dvnB04.pdb
 79 72 0 0 0
SMALL
GASTEIGER

@<TRIPOS>ATOM
      1  N        -18.7100  -56.1670    7.5040 N.3     7  ASN7       -0.1240
      2  CA       -18.2940  -56.2670    6.1190 C.3     7  ASN7        0.1653
      3  C        -19.2990  -57.1150    5.3570 C.2     7  ASN7        0.2266
      4  O        -19.8420  -58.0770    5.9110 O.2     7  ASN7       -0.2867
      5  CB       -16.9360  -56.9550    6.0400 C.3     7  ASN7        0.1155
      6  CG       -15.8090  -56.1420    6.5840 C.2     7  ASN7        0.2627
      7  OD1      -15.5080  -55.0840    6.0440 O.2     7  ASN7       -0.2716
      8  ND2      -15.1040  -56.6470    7.5960 N.am    7  ASN7       -0.0877
      9  N        -11.1120  -56.3610   -3.4960 N.3    14  GLU14      -0.1196
     10  CA        -9.9510  -57.1340   -3.0710 C.3    14  GLU14       0.1783
     11  C         -9.8140  -57.0490   -1.5410 C.2    14  GLU14       0.2306
     12  O        -10.0080  -55.9810   -0.9450 O.2    14  GLU14      -0.2863
     13  CB        -8.6990  -56.5680   -3.7650 C.2    14  GLU14       0.0071
     14  CG        -7.4450  -57.4200   -3.6470 C.2    14  GLU14       0.0834
     15  CD        -6.1290  -56.7010   -3.8990 C.2    14  GLU14       0.3877
     16  OE1       -6.1390  -55.5620   -4.4260 O.co2  14  GLU14      -0.2406
     17  OE2       -5.0760  -57.2930   -3.5700 O.co2  14  GLU14      -0.2406
     18  N        -10.9370  -58.7750    2.3280 N.3    16  ILE16      -0.1231
     19  CA       -12.0080  -59.4750    3.0450 C.3    16  ILE16       0.1692
     20  C        -13.2620  -59.7680    2.2270 C.2    16  ILE16       0.2591
     21  O        -13.6980  -60.9150    2.2080 O.2    16  ILE16      -0.2718
     22  CB       -12.2870  -58.9350    4.4770 C.3    16  ILE16       0.0266
     23  CG1      -13.1910  -59.9060    5.2790 C.3    16  ILE16       0.0019
     24  CG2      -12.8160  -57.4890    4.4810 C.3    16  ILE16       0.0020
     25  CD1      -13.1690  -59.7440    6.7070 C.3    16  ILE16       0.0001
     26  N        -13.7900  -58.7620    1.5070 N.am   17  GLN17      -0.1979
     27  CA       -15.0110  -58.8520    0.6920 C.3    17  GLN17       0.1601
     28  C        -14.9390  -59.9210   -0.4010 C.2    17  GLN17       0.2287
     29  O        -15.9300  -60.6140   -0.6350 O.2    17  GLN17      -0.2864
     30  CB       -15.4080  -57.4770    0.1060 C.3    17  GLN17       0.0394
     31  CG       -15.8420  -56.4200    1.1390 C.3    17  GLN17       0.0908
     32  CD       -14.7160  -55.6990    1.8400 C.2    17  GLN17       0.2608
     33  OE1      -13.5290  -55.8380    1.5050 O.2    17  GLN17      -0.2717
     34  NE2      -15.0690  -54.8980    2.8410 N.am   17  GLN17      -0.0878
     35  N        -17.2380  -56.4660   11.9230 N.3    30  HIS30      -0.1241
     36  CA       -16.0200  -55.6650   11.9140 C.3    30  HIS30       0.1621
     37  C        -15.7570  -55.2700   13.3730 C.2    30  HIS30       0.2264
     38  O        -14.7110  -55.6280   13.9150 O.2    30  HIS30      -0.2867
     39  CB       -16.1440  -54.4450   10.9890 C.3    30  HIS30       0.0745
     40  CG       -14.9100  -53.5810   10.9190 C.ar   30  HIS30       0.0817
     41  ND1      -14.7590  -52.6290    9.9400 N.ar   30  HIS30      -0.2268
     42  CD2      -13.8080  -53.5710   11.6990 C.ar   30  HIS30       0.1154
     43  CE1      -13.5960  -52.0580   10.1730 C.ar   30  HIS30       0.1986
     44  NE2      -12.9850  -52.6050   11.2110 N.ar   30  HIS30      -0.2212
     45  N         -9.6580  -59.2470    8.4920 N.3    60  ALA60      -0.1231
     46  CA        -9.4790  -58.3900    7.3200 C.3    60  ALA60       0.1694
     47  C         -8.0340  -58.5220    6.7710 C.2    60  ALA60       0.2592
     48  O         -7.7480  -58.0780    5.6610 O.2    60  ALA60      -0.2718
     49  CB        -9.7800  -56.9430    7.6860 C.3    60  ALA60       0.0304
     50  N         -7.1510  -59.1690    7.5460 N.am   61  SER61      -0.1952
     51  CA        -5.7380  -59.3870    7.2140 C.3    61  SER61       0.1924
     52  C         -5.5060  -60.5550    6.2690 C.2    61  SER61       0.2314
     53  O         -5.9610  -61.6730    6.5270 O.2    61  SER61      -0.2863
     54  CB        -4.9090  -59.5750    8.4830 C.3    61  SER61       0.2116
     55  OG        -3.5360  -59.7720    8.1860 O.3    61  SER61      -0.2180
     56  N         -7.7020  -58.7130   13.0200 N.3    71  LEU71      -0.1245
     57  CA        -8.8130  -57.7570   13.1780 C.3    71  LEU71       0.1561
     58  C         -9.4200  -57.8690   14.5910 C.2    71  LEU71       0.2260
     59  O         -9.5960  -56.8520   15.2490 O.2    71  LEU71      -0.2867
     60  CB        -9.8880  -57.9470   12.0840 C.3    71  LEU71       0.0270
     61  CG       -11.1370  -57.0280   12.1300 C.3    71  LEU71       0.0019
     62  CD1      -10.7530  -55.5290   12.0660 C.3    71  LEU71       0.0001
     63  CD2      -12.0950  -57.3790   11.0280 C.3    71  LEU71       0.0001
     64  N        -19.5800  -47.9240    3.2450 N.3   113  THR113     -0.1218
     65  CA       -18.7180  -47.8240    2.0740 C.3   113  THR113      0.1862
     66  C        -19.3350  -48.6550    0.9430 C.2   113  THR113      0.2287
     67  O        -19.9850  -49.6770    1.2020 O.2   113  THR113     -0.2866
     68  CB       -17.2940  -48.2810    2.4090 C.3   113  THR113      0.1770
     69  OG1      -17.3070  -49.6660    2.7640 O.3   113  THR113     -0.2211
     70  CG2      -16.6550  -47.4690    3.5320 C.3   113  THR113      0.0375
     71  N        -19.3020  -52.3710    3.3910 N.3   127  GLN127     -0.1245
     72  CA       -19.4080  -52.2440    4.8440 C.3   127  GLN127      0.1566
     73  C        -20.7180  -51.5560    5.1770 C.2   127  GLN127      0.2260
     74  O        -21.0910  -50.5890    4.5230 O.2   127  GLN127     -0.2867
     75  CB       -18.2410  -51.4450    5.4460 C.3   127  GLN127      0.0367
     76  CG       -16.9040  -52.1730    5.4510 C.3   127  GLN127      0.0905
     77  CD       -16.0030  -51.7060    6.5560 C.2   127  GLN127      0.2608
     78  OE1      -16.2440  -51.9680    7.7350 O.2   127  GLN127     -0.2717
     79  NE2      -14.9190  -51.0450    6.1950 N.am  127  GLN127     -0.0878
@<TRIPOS>BOND
     1    16    15   ar
     2    15    14    1
     3    15    17   ar
     4    13    14    2
     5    13    10    1
     6     9    10    1
     7    10    11    1
     8    11    12    2
     9    29    28    2
    10    28    27    1
    11    30    27    1
    12    30    31    1
    13    27    26    1
    14    66    67    2
    15    66    65    1
    16    31    32    1
    17    33    32    2
    18    26    20   am
    19    32    34   am
    20    65    68    1
    21    65    64    1
    22    21    20    2
    23    20    19    1
    24    18    19    1
    25    68    69    1
    26    68    70    1
    27    19    22    1
    28    71    72    1
    29    22    24    1
    30    22    23    1
    31    74    73    2
    32    72    73    1
    33    72    75    1
    34    23    25    1
    35     3     4    2
    36     3     2    1
    37    75    76    1
    38    76    77    1
    39    48    47    2
    40     5     2    1
    41     5     6    1
    42     7     6    2
    43     2     1    1
    44    79    77   am
    45    52    53    2
    46    52    51    1
    47    77    78    2
    48     6     8   am
    49    47    46    1
    50    47    50   am
    51    51    50    1
    52    51    54    1
    53    46    49    1
    54    46    45    1
    55    55    54    1
    56    41    43   ar
    57    41    40   ar
    58    43    44   ar
    59    40    39    1
    60    40    42   ar
    61    39    36    1
    62    63    61    1
    63    44    42   ar
    64    36    35    1
    65    36    37    1
    66    62    61    1
    67    60    61    1
    68    60    57    1
    69    56    57    1
    70    57    58    1
    71    37    38    2
    72    58    59    2
