@<TRIPOS>MOLECULE
tmp/4dvnA04.pdb
 121 117 0 0 0
SMALL
GASTEIGER

@<TRIPOS>ATOM
      1  N        -16.5310  -35.7620   29.0060 N.3     3  ILE3       -0.1245
      2  CA       -16.0960  -35.5040   27.6340 C.3     3  ILE3        0.1561
      3  C        -16.1910  -34.0100   27.3400 C.2     3  ILE3        0.2260
      4  O        -17.2680  -33.4270   27.4720 O.2     3  ILE3       -0.2867
      5  CB       -16.9440  -36.3190   26.6080 C.3     3  ILE3        0.0252
      6  CG1      -16.7530  -37.8430   26.7850 C.3     3  ILE3        0.0019
      7  CG2      -16.6230  -35.8880   25.1610 C.3     3  ILE3        0.0019
      8  CD1      -17.8260  -38.6840   26.1810 C.3     3  ILE3        0.0001
      9  N        -16.0950  -31.4260   24.3460 N.3     5  GLN5       -0.1245
     10  CA       -16.1950  -31.3330   22.8950 C.3     5  GLN5        0.1566
     11  C        -16.3390  -29.8790   22.4740 C.2     5  GLN5        0.2260
     12  O        -16.9500  -29.0870   23.1890 O.2     5  GLN5       -0.2867
     13  CB       -17.3690  -32.1800   22.3680 C.3     5  GLN5        0.0367
     14  CG       -17.3450  -32.3320   20.8460 C.3     5  GLN5        0.0905
     15  CD       -18.0250  -33.5640   20.3420 C.2     5  GLN5        0.2608
     16  OE1      -17.6930  -34.6840   20.7210 O.2     5  GLN5       -0.2717
     17  NE2      -18.9620  -33.3800   19.4300 N.am    5  GLN5       -0.0878
     18  N        -18.4760  -26.7240   22.7770 N.3    30  HIS30      -0.1241
     19  CA       -19.8020  -27.2780   22.5100 C.3    30  HIS30       0.1621
     20  C        -20.3920  -27.6710   23.8740 C.2    30  HIS30       0.2264
     21  O        -21.4320  -27.1410   24.2570 O.2    30  HIS30      -0.2867
     22  CB       -19.7390  -28.4590   21.5250 C.3    30  HIS30       0.0745
     23  CG       -21.0830  -29.0540   21.1900 C.ar   30  HIS30       0.0817
     24  ND1      -21.2310  -29.9310   20.1240 N.ar   30  HIS30      -0.2268
     25  CD2      -22.2950  -28.8730   21.7850 C.ar   30  HIS30       0.1154
     26  CE1      -22.5080  -30.2620   20.1180 C.ar   30  HIS30       0.1986
     27  NE2      -23.1880  -29.6460   21.1020 N.ar   30  HIS30      -0.2212
     28  N        -19.3950  -33.0320   29.0290 N.3    33  TRP33      -0.1228
     29  CA       -20.3640  -34.0890   29.2400 C.3    33  TRP33       0.1722
     30  C        -20.0620  -35.2050   30.2230 C.2    33  TRP33       0.2437
     31  O        -19.5160  -36.2250   29.7970 O.2    33  TRP33      -0.2733
     32  CB       -20.8460  -34.6660   27.8820 C.3    33  TRP33       0.0563
     33  CG       -21.2390  -33.6380   26.8480 C.ar   33  TRP33       0.0003
     34  CD1      -21.9830  -32.5120   27.0480 C.ar   33  TRP33       0.0946
     35  CD2      -20.9960  -33.7140   25.4310 C.ar   33  TRP33       0.0152
     36  NE1      -22.1900  -31.8620   25.8520 N.ar   33  TRP33      -0.2442
     37  CE2      -21.6020  -32.5850   24.8420 C.ar   33  TRP33       0.0810
     38  CE3      -20.2980  -34.6230   24.5970 C.ar   33  TRP33       0.0012
     39  CZ2      -21.5160  -32.3300   23.4590 C.ar   33  TRP33       0.0191
     40  CZ3      -20.2480  -34.3960   23.2250 C.ar   33  TRP33       0.0001
     41  CH2      -20.8370  -33.2560   22.6690 C.ar   33  TRP33       0.0015
     42  N        -20.5800  -35.1250   31.4940 N.am   34  PRO34      -0.2729
     43  CA       -20.5010  -36.2890   32.4020 C.3    34  PRO34       0.1401
     44  C        -21.4360  -37.4020   31.8970 C.2    34  PRO34       0.2269
     45  O        -22.2260  -37.1820   30.9770 O.2    34  PRO34      -0.2865
     46  CB       -21.0240  -35.7340   33.7370 C.3    34  PRO34       0.0296
     47  CG       -20.9950  -34.2660   33.5940 C.3    34  PRO34       0.0237
     48  CD       -21.2940  -34.0140   32.1560 C.3    34  PRO34       0.0939
     49  N        -27.0600  -37.6520   32.1160 N.3    37  ILE37      -0.1245
     50  CA       -27.8290  -36.6720   31.3590 C.3    37  ILE37       0.1561
     51  C        -29.0080  -36.2460   32.2440 C.2    37  ILE37       0.2260
     52  O        -29.6870  -37.0860   32.8410 O.2    37  ILE37      -0.2867
     53  CB       -28.2320  -37.1880   29.9530 C.3    37  ILE37       0.0252
     54  CG1      -27.0200  -37.0530   28.9850 C.3    37  ILE37       0.0019
     55  CG2      -29.4610  -36.4320   29.4010 C.3    37  ILE37       0.0019
     56  CD1      -27.2560  -37.5030   27.5230 C.3    37  ILE37       0.0001
     57  N        -29.1510  -24.9320   26.4660 N.3    74  HIS74      -0.1226
     58  CA       -29.3720  -26.3460   26.1760 C.3    74  HIS74       0.1752
     59  C        -28.3570  -27.2110   26.9240 C.2    74  HIS74       0.2595
     60  O        -28.7270  -28.2590   27.4390 O.2    74  HIS74      -0.2718
     61  CB       -29.2920  -26.6050   24.6480 C.3    74  HIS74       0.0759
     62  CG       -29.1370  -28.0440   24.2900 C.ar   74  HIS74       0.0818
     63  ND1      -30.2170  -28.8950   24.2710 N.ar   74  HIS74      -0.2268
     64  CD2      -28.0200  -28.7420   23.9880 C.ar   74  HIS74       0.1154
     65  CE1      -29.7260  -30.0780   23.9430 C.ar   74  HIS74       0.1986
     66  NE2      -28.4130  -30.0290   23.7580 N.ar   74  HIS74      -0.2212
     67  N        -27.0940  -26.7580   26.9930 N.am   75  GLU75      -0.1979
     68  CA       -26.0100  -27.4590   27.6850 C.3    75  GLU75       0.1602
     69  C        -26.1950  -27.4590   29.1820 C.2    75  GLU75       0.2287
     70  O        -25.9290  -28.4840   29.8080 O.2    75  GLU75      -0.2864
     71  CB       -24.6390  -26.9040   27.2950 C.3    75  GLU75       0.0415
     72  CG       -24.2550  -27.1820   25.8500 C.3    75  GLU75       0.1163
     73  CD       -24.1560  -28.6320   25.4200 C.2    75  GLU75       0.3649
     74  OE1      -23.6750  -29.4650   26.2200 O.co2  75  GLU75      -0.2457
     75  OE2      -24.5040  -28.9240   24.2550 O.co2  75  GLU75      -0.2457
     76  N        -29.4480  -29.9230   29.8010 N.3    78  LYS78      -0.1231
     77  CA       -29.1720  -31.3290   29.4870 C.3    78  LYS78       0.1693
     78  C        -27.9870  -31.9250   30.2530 C.2    78  LYS78       0.2592
     79  O        -28.0250  -33.1120   30.5790 O.2    78  LYS78      -0.2718
     80  CB       -28.9820  -31.5000   27.9650 C.3    78  LYS78       0.0285
     81  CG       -29.0180  -32.9360   27.4610 C.3    78  LYS78       0.0035
     82  CD       -28.8160  -33.0020   25.9620 C.3    78  LYS78       0.0206
     83  CE       -28.8340  -34.4210   25.4510 C.3    78  LYS78       0.1093
     84  NZ       -28.4420  -34.5050   24.0120 N.3    78  LYS78      -0.1314
     85  N        -26.9310  -31.1210   30.5290 N.am   79  HIS79      -0.1976
     86  CA       -25.7160  -31.6400   31.1620 C.3    79  HIS79       0.1656
     87  C        -25.2330  -30.9390   32.4210 C.2    79  HIS79       0.2291
     88  O        -24.3540  -31.4710   33.0960 O.2    79  HIS79      -0.2864
     89  CB       -24.5600  -31.6140   30.1360 C.3    79  HIS79       0.0771
     90  CG       -24.8570  -32.3080   28.8490 C.ar   79  HIS79       0.0820
     91  ND1      -24.7860  -33.6820   28.7390 N.ar   79  HIS79      -0.2267
     92  CD2      -25.2270  -31.7890   27.6610 C.ar   79  HIS79       0.1154
     93  CE1      -25.0850  -33.9540   27.4860 C.ar   79  HIS79       0.1986
     94  NE2      -25.3540  -32.8460   26.7970 N.ar   79  HIS79      -0.2212
     95  N        -13.8680  -35.6410   15.7580 N.3   112  VAL112     -0.1245
     96  CA       -15.1680  -36.2530   16.0040 C.3   112  VAL112      0.1561
     97  C        -15.8620  -36.3500   14.6420 C.2   112  VAL112      0.2260
     98  O        -16.1780  -37.4400   14.1830 O.2   112  VAL112     -0.2867
     99  CB       -16.0130  -35.4930   17.0760 C.3   112  VAL112      0.0252
    100  CG1      -17.4300  -36.0590   17.1810 C.3   112  VAL112      0.0019
    101  CG2      -15.3200  -35.5170   18.4320 C.3   112  VAL112      0.0019
    102  N        -15.6180  -30.7920   14.4310 N.3   127  GLN127     -0.1245
    103  CA       -15.8160  -30.9900   15.8670 C.3   127  GLN127      0.1566
    104  C        -14.7230  -31.9160   16.3780 C.2   127  GLN127      0.2260
    105  O        -14.3910  -32.9090   15.7220 O.2   127  GLN127     -0.2867
    106  CB       -17.1870  -31.5960   16.1930 C.3   127  GLN127      0.0367
    107  CG       -18.3610  -30.6420   16.0280 C.3   127  GLN127      0.0905
    108  CD       -19.5240  -30.9610   16.9340 C.2   127  GLN127      0.2608
    109  OE1      -19.4790  -30.7710   18.1570 O.2   127  GLN127     -0.2717
    110  NE2      -20.6070  -31.4060   16.3380 N.am  127  GLN127     -0.0878
    111  N        -12.7340  -33.4600   20.3240 N.3   129  ARG129     -0.1245
    112  CA       -12.8810  -33.7170   21.7530 C.3   129  ARG129      0.1563
    113  C        -11.5430  -34.0920   22.3850 C.2   129  ARG129      0.2260
    114  O        -10.5690  -34.2960   21.6720 O.2   129  ARG129     -0.2867
    115  CB       -13.9830  -34.7590   22.0300 C.3   129  ARG129      0.0307
    116  CG       -13.6830  -36.1510   21.4980 C.3   129  ARG129      0.0489
    117  CD       -14.6490  -37.1660   22.0560 C.3   129  ARG129      0.2205
    118  NE       -16.0330  -36.9100   21.6390 N.pl3 129  ARG129     -0.0865
    119  CZ       -17.0580  -37.6780   21.9820 C.cat 129  ARG129      0.5346
    120  NH1      -16.8650  -38.7560   22.7330 N.pl3 129  ARG129      0.1354
    121  NH2      -18.2840  -37.3780   21.5750 N.pl3 129  ARG129      0.1354
@<TRIPOS>BOND
     1    98    97    2
     2   102   103    1
     3    97    96    1
     4   105   104    2
     5    95    96    1
     6   103   106    1
     7   103   104    1
     8    96    99    1
     9   107   106    1
    10   107   108    1
    11   110   108   am
    12   108   109    2
    13    99   100    1
    14    99   101    1
    15    17    15   am
    16    26    24   ar
    17    26    27   ar
    18    24    23   ar
    19   111   112    1
    20    15    16    2
    21    15    14    1
    22    14    13    1
    23    27    25   ar
    24    23    22    1
    25    23    25   ar
    26   116   115    1
    27   116   117    1
    28    22    19    1
    29   121   119    1
    30   118   119    2
    31   118   117    1
    32   114   113    2
    33   112   115    1
    34   112   113    1
    35   119   120    1
    36    13    10    1
    37    11    10    1
    38    11    12    2
    39    19    18    1
    40    19    20    1
    41    41    40   ar
    42    41    39   ar
    43    10     9    1
    44    40    38   ar
    45    39    37   ar
    46    66    65   ar
    47    66    64   ar
    48    20    21    2
    49    65    63   ar
    50    64    62   ar
    51    84    83    1
    52    75    73   ar
    53    63    62   ar
    54    62    61    1
    55    38    35   ar
    56    61    58    1
    57    37    35   ar
    58    37    36   ar
    59     7     5    1
    60    73    72    1
    61    73    74   ar
    62    35    33   ar
    63    83    82    1
    64    72    71    1
    65    36    34   ar
    66    82    81    1
    67    58    57    1
    68    58    59    1
    69     8     6    1
    70     5     6    1
    71     5     2    1
    72    94    93   ar
    73    94    92   ar
    74    33    34   ar
    75    33    32    1
    76    59    67   am
    77    59    60    2
    78    67    68    1
    79    71    68    1
    80     3     4    2
    81     3     2    1
    82    81    80    1
    83    93    91   ar
    84    56    54    1
    85     2     1    1
    86    92    90   ar
    87    68    69    1
    88    32    29    1
    89    80    77    1
    90    91    90   ar
    91    90    89    1
    92    54    53    1
    93    28    29    1
    94    69    70    2
    95    29    30    1
    96    55    53    1
    97    77    76    1
    98    77    78    1
    99    31    30    2
   100    53    50    1
   101    89    86    1
   102    30    42   am
   103    78    85   am
   104    78    79    2
   105    85    86    1
   106    45    44    2
   107    86    87    1
   108    50    49    1
   109    50    51    1
   110    42    48    1
   111    42    43    1
   112    44    43    1
   113    48    47    1
   114    51    52    2
   115    43    46    1
   116    87    88    2
   117    47    46    1
