@<TRIPOS>MOLECULE
tmp/4dvqE01.pdb
 177 173 0 0 0
SMALL
GASTEIGER

@<TRIPOS>ATOM
      1  N          1.8400  -21.6900   15.8020 N.3    77  ARG77      -0.1245
      2  CA         1.5620  -22.4610   14.5950 C.3    77  ARG77       0.1563
      3  C          2.4950  -22.0210   13.4880 C.2    77  ARG77       0.2260
      4  O          3.1050  -20.9750   13.5720 O.2    77  ARG77      -0.2867
      5  CB         0.0780  -22.3360   14.1730 C.3    77  ARG77       0.0307
      6  CG        -0.5440  -20.9450   14.3290 C.3    77  ARG77       0.0489
      7  CD        -1.9960  -20.9100   13.8330 C.3    77  ARG77       0.2205
      8  NE        -2.7980  -22.0380   14.3550 N.pl3  77  ARG77      -0.0865
      9  CZ        -3.9280  -21.9210   15.0510 C.cat  77  ARG77       0.5346
     10  NH1       -4.5410  -23.0040   15.4750 N.pl3  77  ARG77       0.1354
     11  NH2       -4.4590  -20.7380   15.3240 N.pl3  77  ARG77       0.1354
     12  N         -1.5010  -15.8060    3.2730 N.3    83  TRP83      -0.1241
     13  CA        -2.4280  -15.0230    4.0960 C.3    83  TRP83       0.1605
     14  C         -1.7600  -13.8640    4.7920 C.2    83  TRP83       0.2264
     15  O         -2.2650  -12.7340    4.7230 O.2    83  TRP83      -0.2867
     16  CB        -3.0500  -15.9110    5.1550 C.3    83  TRP83       0.0550
     17  CG        -4.0320  -16.9000    4.6150 C.ar   83  TRP83       0.0003
     18  CD1       -3.9730  -17.6080    3.4250 C.ar   83  TRP83       0.0946
     19  CD2       -5.2570  -17.3290    5.2440 C.ar   83  TRP83       0.0152
     20  NE1       -5.0540  -18.4100    3.2920 N.ar   83  TRP83      -0.2442
     21  CE2       -5.8660  -18.2860    4.3360 C.ar   83  TRP83       0.0810
     22  CE3       -5.9070  -17.0020    6.4120 C.ar   83  TRP83       0.0012
     23  CZ2       -7.0660  -18.8860    4.6140 C.ar   83  TRP83       0.0191
     24  CZ3       -7.1070  -17.6230    6.6980 C.ar   83  TRP83       0.0001
     25  CH2       -7.6790  -18.5410    5.8260 C.ar   83  TRP83       0.0015
     26  N         -2.0040   -9.3600    4.3460 N.3    87  ARG87      -0.1245
     27  CA        -2.1420   -8.3260    5.3940 C.3    87  ARG87       0.1563
     28  C         -0.9940   -7.3140    5.3200 C.2    87  ARG87       0.2260
     29  O         -1.2230   -6.1050    5.3820 O.2    87  ARG87      -0.2867
     30  CB        -2.1850   -8.9180    6.8190 C.3    87  ARG87       0.0307
     31  CG        -3.0120  -10.1900    7.0270 C.3    87  ARG87       0.0489
     32  CD        -4.3570  -10.1050    6.3400 C.3    87  ARG87       0.2205
     33  NE        -5.3340  -11.0570    6.8650 N.pl3  87  ARG87      -0.0865
     34  CZ        -5.7890  -12.1330    6.2340 C.cat  87  ARG87       0.5346
     35  NH1       -6.7040  -12.8790    6.8260 N.pl3  87  ARG87       0.1354
     36  NH2       -5.3460  -12.4800    5.0320 N.pl3  87  ARG87       0.1354
     37  N         -6.0060  -15.7760   14.1710 N.3    97  PHE97      -0.1241
     38  CA        -5.5200  -16.9850   13.5010 C.3    97  PHE97       0.1605
     39  C         -4.0690  -16.8330   13.0100 C.2    97  PHE97       0.2264
     40  O         -3.2920  -17.7860   13.0750 O.2    97  PHE97      -0.2867
     41  CB        -6.4420  -17.3770   12.3510 C.3    97  PHE97       0.0534
     42  CG        -5.9390  -18.5430   11.5550 C.ar   97  PHE97      -0.0203
     43  CD1       -5.6720  -19.7670   12.1820 C.ar   97  PHE97      -0.0042
     44  CD2       -5.7140  -18.4250   10.1890 C.ar   97  PHE97      -0.0042
     45  CE1       -5.2020  -20.8510   11.4500 C.ar   97  PHE97      -0.0003
     46  CE2       -5.2510  -19.5000    9.4560 C.ar   97  PHE97      -0.0003
     47  CZ        -4.9940  -20.7150   10.0790 C.ar   97  PHE97      -0.0000
     48  N         -9.5540  -18.1510   -3.0840 N.3   197  MET197     -0.1230
     49  CA        -8.5810  -17.9400   -1.9870 C.3   197  MET197      0.1702
     50  C         -8.0850  -19.2740   -1.4060 C.2   197  MET197      0.2592
     51  O         -6.8840  -19.4840   -1.2670 O.2   197  MET197     -0.2718
     52  CB        -9.1890  -17.0680   -0.8850 C.3   197  MET197      0.0401
     53  CG        -8.2410  -16.6430    0.2290 C.3   197  MET197      0.0596
     54  SD        -8.1110  -17.8740    1.5410 S.3   197  MET197     -0.1393
     55  CE        -9.7760  -17.9520    2.2140 C.3   197  MET197      0.0692
     56  N         -9.0060  -20.1730   -1.0860 N.am  198  PHE198     -0.1976
     57  CA        -8.6230  -21.4590   -0.5030 C.3   198  PHE198      0.1639
     58  C         -7.7360  -22.3110   -1.4280 C.2   198  PHE198      0.2290
     59  O         -6.7450  -22.8950   -0.9790 O.2   198  PHE198     -0.2864
     60  CB        -9.8690  -22.2580   -0.0990 C.3   198  PHE198      0.0560
     61  CG       -10.5130  -21.7780    1.1810 C.ar  198  PHE198     -0.0200
     62  CD1       -9.7430  -21.4680    2.2950 C.ar  198  PHE198     -0.0042
     63  CD2      -11.8850  -21.6370    1.2720 C.ar  198  PHE198     -0.0042
     64  CE1      -10.3320  -21.0290    3.4710 C.ar  198  PHE198     -0.0003
     65  CE2      -12.4720  -21.1940    2.4390 C.ar  198  PHE198     -0.0003
     66  CZ       -11.6980  -20.8960    3.5440 C.ar  198  PHE198     -0.0000
     67  N         -8.4470  -12.2810   -1.9370 N.3   227  TRP227     -0.1241
     68  CA        -8.4540  -11.5630   -0.6640 C.3   227  TRP227      0.1605
     69  C         -9.0480  -10.1790   -0.7610 C.2   227  TRP227      0.2264
     70  O         -9.8970   -9.8150    0.0390 O.2   227  TRP227     -0.2867
     71  CB        -7.0580  -11.4750   -0.0730 C.3   227  TRP227      0.0550
     72  CG        -6.6940  -12.6670    0.7600 C.ar  227  TRP227      0.0003
     73  CD1       -5.6350  -13.5250    0.5770 C.ar  227  TRP227      0.0946
     74  CD2       -7.4060  -13.1800    1.9290 C.ar  227  TRP227      0.0152
     75  NE1       -5.6450  -14.5030    1.5330 N.ar  227  TRP227     -0.2442
     76  CE2       -6.6790  -14.3480    2.3660 C.ar  227  TRP227      0.0810
     77  CE3       -8.5500  -12.8150    2.6020 C.ar  227  TRP227      0.0012
     78  CZ2       -7.0760  -15.0950    3.4470 C.ar  227  TRP227      0.0191
     79  CZ3       -8.9490  -13.5740    3.7020 C.ar  227  TRP227      0.0001
     80  CH2       -8.2310  -14.6920    4.1100 C.ar  227  TRP227      0.0015
     81  N        -11.5640  -12.0170    9.9780 N.3   277  GLU277     -0.1245
     82  CA       -11.3450  -13.4130   10.2060 C.3   277  GLU277      0.1567
     83  C        -12.6610  -14.0790   10.5260 C.2   277  GLU277      0.2260
     84  O        -12.9320  -15.1600   10.0400 O.2   277  GLU277     -0.2867
     85  CB       -10.3300  -13.6690   11.3060 C.3   277  GLU277      0.0388
     86  CG        -8.8950  -13.3930   10.8920 C.3   277  GLU277      0.1160
     87  CD        -7.8740  -14.0670   11.8150 C.2   277  GLU277      0.3649
     88  OE1       -8.2950  -14.7090   12.8090 O.co2 277  GLU277     -0.2457
     89  OE2       -6.6450  -13.9680   11.5540 O.co2 277  GLU277     -0.2457
     90  N        -14.8340  -14.0940    7.0240 N.3   280  ALA280     -0.1231
     91  CA       -14.2400  -15.0900    6.1150 C.3   280  ALA280      0.1694
     92  C        -14.3690  -16.4870    6.6850 C.2   280  ALA280      0.2592
     93  O        -14.5510  -17.4450    5.9470 O.2   280  ALA280     -0.2718
     94  CB       -12.7640  -14.7800    5.8590 C.3   280  ALA280      0.0304
     95  N        -14.2880  -16.6000    8.0010 N.am  281  GLY281     -0.1957
     96  CA       -14.1900  -17.8970    8.6500 C.3   281  GLY281      0.1869
     97  C        -15.4880  -18.6360    8.8280 C.2   281  GLY281      0.2309
     98  O        -15.5140  -19.8640    8.9370 O.2   281  GLY281     -0.2863
     99  N        -16.5540  -23.2960    6.5580 N.3   285  THR285     -0.1218
    100  CA       -16.1950  -24.1600    7.6540 C.3   285  THR285      0.1862
    101  C        -17.4400  -24.7660    8.2980 C.2   285  THR285      0.2287
    102  O        -17.4180  -25.9120    8.6730 O.2   285  THR285     -0.2866
    103  CB       -15.3620  -23.3970    8.6910 C.3   285  THR285      0.1770
    104  OG1      -16.1350  -22.3160    9.2080 O.3   285  THR285     -0.2211
    105  CG2      -14.1120  -22.8270    8.0580 C.3   285  THR285      0.0375
    106  N        -13.5210  -30.7380    8.6750 N.3   345  VAL345     -0.1231
    107  CA       -13.2110  -29.5580    7.8530 C.3   345  VAL345      0.1692
    108  C        -11.7620  -29.1590    7.9510 C.2   345  VAL345      0.2593
    109  O        -11.1410  -28.8410    6.9540 O.2   345  VAL345     -0.2718
    110  CB       -14.0580  -28.3080    8.2210 C.3   345  VAL345      0.0266
    111  CG1      -15.3810  -28.3420    7.5110 C.3   345  VAL345      0.0020
    112  CG2      -14.2610  -28.2100    9.7170 C.3   345  VAL345      0.0020
    113  N        -11.2450  -29.1260    9.1650 N.am  346  GLY346     -0.1942
    114  CA        -9.8190  -28.8770    9.3910 C.3   346  GLY346      0.2014
    115  C         -9.1940  -30.2390    9.4090 C.2   346  GLY346      0.2639
    116  O         -9.4900  -31.0340   10.2940 O.2   346  GLY346     -0.2714
    117  N         -8.3810  -30.5330    8.4000 N.am  347  LEU347     -0.1963
    118  CA        -7.7410  -31.8530    8.2600 C.3   347  LEU347      0.1728
    119  C         -6.7500  -32.1180    9.4080 C.2   347  LEU347      0.2616
    120  O         -6.7960  -33.1670   10.0510 O.2   347  LEU347     -0.2715
    121  CB        -7.0080  -31.9590    6.9110 C.3   347  LEU347      0.0311
    122  CG        -7.0320  -33.2910    6.1470 C.3   347  LEU347      0.0022
    123  CD1       -5.9590  -33.2950    5.0620 C.3   347  LEU347      0.0001
    124  CD2       -6.8870  -34.4890    7.0800 C.3   347  LEU347      0.0001
    125  N         -5.8620  -31.1670    9.6710 N.am  348  PHE348     -0.1960
    126  CA        -4.8340  -31.3860   10.6800 C.3   348  PHE348      0.1771
    127  C         -4.6920  -30.2540   11.7200 C.2   348  PHE348      0.2619
    128  O         -4.7700  -29.0720   11.3830 O.2   348  PHE348     -0.2715
    129  CB        -3.4800  -31.7140   10.0060 C.3   348  PHE348      0.0574
    130  CG        -3.0490  -30.7170    8.9670 C.ar  348  PHE348     -0.0200
    131  CD1       -2.2620  -29.6300    9.3110 C.ar  348  PHE348     -0.0042
    132  CD2       -3.3850  -30.8880    7.6450 C.ar  348  PHE348     -0.0042
    133  CE1       -1.8440  -28.7090    8.3450 C.ar  348  PHE348     -0.0003
    134  CE2       -2.9810  -29.9690    6.6780 C.ar  348  PHE348     -0.0003
    135  CZ        -2.2180  -28.8790    7.0250 C.ar  348  PHE348     -0.0000
    136  N         -4.5170  -30.6440   12.9910 N.am  349  LEU349     -0.1963
    137  CA        -4.1640  -29.7100   14.0590 C.3   349  LEU349      0.1728
    138  C         -2.6710  -29.5420   13.9490 C.2   349  LEU349      0.2616
    139  O         -1.9740  -30.4730   13.5050 O.2   349  LEU349     -0.2715
    140  CB        -4.5280  -30.2630   15.4360 C.3   349  LEU349      0.0311
    141  CG        -5.9820  -30.7270   15.6440 C.3   349  LEU349      0.0022
    142  CD1       -6.2390  -31.1480   17.0940 C.3   349  LEU349      0.0001
    143  CD2       -6.9760  -29.6430   15.2050 C.3   349  LEU349      0.0001
    144  N         -2.1550  -28.3840   14.3340 N.am  350  GLU350     -0.1977
    145  CA        -0.7380  -28.1260   14.1240 C.3   350  GLU350      0.1602
    146  C         -0.0770  -27.2360   15.2050 C.2   350  GLU350      0.2287
    147  O         -0.6210  -26.1910   15.5950 O.2   350  GLU350     -0.2864
    148  CB        -0.5560  -27.5980   12.7010 C.3   350  GLU350      0.0415
    149  CG         0.3320  -26.3850   12.5270 C.3   350  GLU350      0.1163
    150  CD         0.6180  -26.0780   11.0510 C.2   350  GLU350      0.3649
    151  OE1        0.5910  -24.8780   10.6790 O.co2 350  GLU350     -0.2457
    152  OE2        0.8620  -27.0340   10.2700 O.co2 350  GLU350     -0.2457
    153  N        -10.6520  -23.4200   18.5060 N.3   411  CYS411     -0.1235
    154  CA       -11.5020  -22.6010   17.6230 C.3   411  CYS411      0.1677
    155  C        -12.2400  -21.4940   18.3830 C.2   411  CYS411      0.2270
    156  O        -12.9670  -21.7660   19.3400 O.2   411  CYS411     -0.2867
    157  CB       -12.5270  -23.4950   16.9160 C.3   411  CYS411      0.0956
    158  SG       -13.5770  -22.6430   15.7170 S.3   411  CYS411     -0.0801
    159  N         -7.2750  -26.7020    1.4090 N.3   448  PHE448     -0.1227
    160  CA        -7.1040  -25.9700    2.6650 C.3   448  PHE448      0.1736
    161  C         -8.1560  -26.3110    3.6780 C.2   448  PHE448      0.2595
    162  O         -7.8260  -26.5930    4.8010 O.2   448  PHE448     -0.2718
    163  CB        -7.0200  -24.4780    2.5000 C.3   448  PHE448      0.0547
    164  CG        -6.4010  -23.8130    3.6860 C.ar  448  PHE448     -0.0202
    165  CD1       -5.0510  -23.9960    3.9620 C.ar  448  PHE448     -0.0042
    166  CD2       -7.1550  -23.0560    4.5510 C.ar  448  PHE448     -0.0042
    167  CE1       -4.4660  -23.4160    5.0620 C.ar  448  PHE448     -0.0003
    168  CE2       -6.5730  -22.4790    5.6610 C.ar  448  PHE448     -0.0003
    169  CZ        -5.2320  -22.6700    5.9240 C.ar  448  PHE448     -0.0000
    170  N         -9.4140  -26.2830    3.2780 N.am  449  ILE449     -0.1980
    171  CA       -10.4680  -26.9260    4.0380 C.3   449  ILE449      0.1595
    172  C        -10.6530  -28.3040    3.4130 C.2   449  ILE449      0.2287
    173  O        -10.3210  -28.4950    2.2530 O.2   449  ILE449     -0.2864
    174  CB       -11.8080  -26.1310    3.9960 C.3   449  ILE449      0.0276
    175  CG1      -12.1360  -25.6810    2.5870 C.3   449  ILE449      0.0022
    176  CG2      -11.7700  -24.9120    4.9050 C.3   449  ILE449      0.0022
    177  CD1      -13.6150  -25.5230    2.3590 C.3   449  ILE449      0.0001
@<TRIPOS>BOND
     1    48    49    1
     2    49    50    1
     3    49    52    1
     4    67    68    1
     5    58    59    2
     6    58    57    1
     7    50    51    2
     8    50    56   am
     9    56    57    1
    10    52    53    1
    11    69    68    1
    12    69    70    2
    13    68    71    1
    14    57    60    1
    15    60    61    1
    16    71    72    1
    17    53    54    1
    18    73    72   ar
    19    73    75   ar
    20    72    74   ar
    21    61    63   ar
    22    61    62   ar
    23    63    65   ar
    24   159   160    1
    25    75    76   ar
    26    54    55    1
    27    74    76   ar
    28    74    77   ar
    29   173   172    2
    30    62    64   ar
    31   177   175    1
    32    76    78   ar
    33    65    66   ar
    34   163   160    1
    35   163   164    1
    36   175   174    1
    37    77    79   ar
    38   160   161    1
    39    12    13    1
    40   170   161   am
    41   170   171    1
    42    20    18   ar
    43    20    21   ar
    44   172   171    1
    45    18    17   ar
    46    78    80   ar
    47    64    66   ar
    48   161   162    2
    49   164   165   ar
    50   164   166   ar
    51    79    80   ar
    52   165   167   ar
    53   174   171    1
    54   174   176    1
    55    13    14    1
    56    13    16    1
    57    21    23   ar
    58    21    19   ar
    59    26    27    1
    60   166   168   ar
    61    23    25   ar
    62    17    16    1
    63    17    19   ar
    64    15    14    2
    65    36    34    1
    66   123   122    1
    67   167   169   ar
    68    19    22   ar
    69    28    29    2
    70    28    27    1
    71    27    30    1
    72   168   169   ar
    73    25    24   ar
    74    94    91    1
    75    93    92    2
    76    91    92    1
    77    91    90    1
    78   122   121    1
    79   122   124    1
    80    34    35    1
    81    34    33    2
    82    32    33    1
    83    32    31    1
    84    22    24   ar
    85    99   100    1
    86   134   135   ar
    87   134   132   ar
    88    92    95   am
    89    30    31    1
    90   121   118    1
    91   109   108    2
    92   135   133   ar
    93   111   110    1
    94   132   130   ar
    95   100   101    1
    96   100   103    1
    97   107   108    1
    98   107   110    1
    99   107   106    1
   100   108   113   am
   101    95    96    1
   102   105   103    1
   103   110   112    1
   104   118   117    1
   105   118   119    1
   106   101   102    2
   107   133   131   ar
   108   117   115   am
   109    96    97    1
   110   103   104    1
   111    97    98    2
   112   130   131   ar
   113   130   129    1
   114   113   114    1
   115   114   115    1
   116   119   125   am
   117   119   120    2
   118   115   116    2
   119    46    47   ar
   120    46    44   ar
   121   125   126    1
   122    81    82    1
   123   129   126    1
   124    84    83    2
   125    47    45   ar
   126    44    42   ar
   127    82    83    1
   128    82    85    1
   129   152   150   ar
   130   151   150   ar
   131   126   127    1
   132    86    85    1
   133    86    87    1
   134   150   149    1
   135   128   127    2
   136    45    43   ar
   137    89    87   ar
   138    42    43   ar
   139    42    41    1
   140   127   136   am
   141    87    88   ar
   142    41    38    1
   143   149   148    1
   144   148   145    1
   145   136   137    1
   146    39    40    2
   147    39    38    1
   148     3     4    2
   149     3     2    1
   150    38    37    1
   151   139   138    2
   152     7     6    1
   153     7     8    1
   154   138   137    1
   155   138   144   am
   156   137   140    1
   157   145   144    1
   158   145   146    1
   159     5     6    1
   160     5     2    1
   161     8     9    2
   162     2     1    1
   163     9    11    1
   164     9    10    1
   165   143   141    1
   166   146   147    2
   167   140   141    1
   168   141   142    1
   169   158   157    1
   170   157   154    1
   171   154   155    1
   172   154   153    1
   173   155   156    2
