@<TRIPOS>MOLECULE
tmp/4dvrA06.pdb
 201 199 0 0 0
SMALL
GASTEIGER

@<TRIPOS>ATOM
      1  N         32.0330   11.9720   83.2230 N.3    23  TRP23      -0.1241
      2  CA        31.3950   13.2750   83.3710 C.3    23  TRP23       0.1605
      3  C         30.5940   13.6630   82.1320 C.2    23  TRP23       0.2264
      4  O         29.6430   14.4400   82.2180 O.2    23  TRP23      -0.2867
      5  CB        32.4380   14.3490   83.6830 C.3    23  TRP23       0.0550
      6  CG        32.8540   14.3770   85.1220 C.ar   23  TRP23       0.0003
      7  CD1       33.3150   13.3270   85.8620 C.ar   23  TRP23       0.0946
      8  CD2       32.8560   15.5140   85.9940 C.ar   23  TRP23       0.0152
      9  NE1       33.5970   13.7380   87.1420 N.ar   23  TRP23      -0.2442
     10  CE2       33.3250   15.0770   87.2480 C.ar   23  TRP23       0.0810
     11  CE3       32.5050   16.8580   85.8350 C.ar   23  TRP23       0.0012
     12  CZ2       33.4530   15.9360   88.3390 C.ar   23  TRP23       0.0191
     13  CZ3       32.6320   17.7100   86.9200 C.ar   23  TRP23       0.0001
     14  CH2       33.1020   17.2450   88.1550 C.ar   23  TRP23       0.0015
     15  N         36.6740   14.2870   92.3360 N.3    93  VAL93      -0.1231
     16  CA        37.3210   15.4350   91.7130 C.3    93  VAL93       0.1692
     17  C         37.2900   16.6380   92.6490 C.2    93  VAL93       0.2593
     18  O         36.2190   17.1190   93.0200 O.2    93  VAL93      -0.2718
     19  CB        36.6430   15.8120   90.3820 C.3    93  VAL93       0.0266
     20  CG1       37.1930   17.1300   89.8580 C.3    93  VAL93       0.0020
     21  CG2       36.8270   14.7010   89.3570 C.3    93  VAL93       0.0020
     22  N         38.4690   17.1180   93.0300 N.am   94  SER94      -0.1938
     23  CA        38.5710   18.2460   93.9470 C.3    94  SER94       0.2055
     24  C         39.9550   18.8840   93.8930 C.2    94  SER94       0.2643
     25  O         40.8400   18.4140   93.1790 O.2    94  SER94      -0.2714
     26  CB        38.2670   17.8000   95.3790 C.3    94  SER94       0.2130
     27  OG        39.2610   16.9080   95.8540 O.3    94  SER94      -0.2179
     28  N         40.1300   19.9570   94.6560 N.am   95  THR95      -0.1950
     29  CA        41.4130   20.6410   94.7440 C.3    95  THR95       0.1897
     30  C         41.7910   20.8600   96.2040 C.2    95  THR95       0.2313
     31  O         40.9480   20.7540   97.0940 O.2    95  THR95      -0.2863
     32  CB        41.3770   22.0010   94.0240 C.3    95  THR95       0.1794
     33  OG1       40.4180   22.8550   94.6590 O.3    95  THR95      -0.2208
     34  CG2       40.9990   21.8220   92.5610 C.3    95  THR95       0.0378
     35  N         42.7630   30.6740   89.3810 N.3   184  ASP184     -0.1239
     36  CA        41.3350   30.4690   89.1630 C.3   184  ASP184      0.1674
     37  C         40.6140   30.1640   90.4710 C.2   184  ASP184      0.2266
     38  O         41.2260   29.6820   91.4250 O.2   184  ASP184     -0.2867
     39  CB        41.1030   29.3340   88.1620 C.3   184  ASP184      0.1410
     40  CG        41.6970   29.6280   86.7990 C.2   184  ASP184      0.3668
     41  OD1       41.8110   30.8190   86.4390 O.co2 184  ASP184     -0.2456
     42  OD2       42.0490   28.6650   86.0850 O.co2 184  ASP184     -0.2456
     43  N         38.7470   27.8280   91.2490 N.3   186  GLU186     -0.1231
     44  CA        38.8280   26.4120   91.5860 C.3   186  GLU186      0.1699
     45  C         40.1190   26.0880   92.3310 C.2   186  GLU186      0.2592
     46  O         40.1690   25.1490   93.1250 O.2   186  GLU186     -0.2718
     47  CB        38.7250   25.5490   90.3240 C.3   186  GLU186      0.0402
     48  CG        37.4460   25.7500   89.5240 C.3   186  GLU186      0.1161
     49  CD        37.4410   27.0500   88.7400 C.2   186  GLU186      0.3649
     50  OE1       38.4690   27.7600   88.7570 O.co2 186  GLU186     -0.2457
     51  OE2       36.4110   27.3590   88.1060 O.co2 186  GLU186     -0.2457
     52  N         41.1600   26.8730   92.0730 N.am  187  ILE187     -0.1980
     53  CA        42.4720   26.6220   92.6580 C.3   187  ILE187      0.1595
     54  C         42.6640   27.3760   93.9710 C.2   187  ILE187      0.2287
     55  O         43.2330   26.8440   94.9230 O.2   187  ILE187     -0.2864
     56  CB        43.6010   27.0090   91.6820 C.3   187  ILE187      0.0276
     57  CG1       43.3620   26.3700   90.3130 C.3   187  ILE187      0.0022
     58  CG2       44.9540   26.5990   92.2400 C.3   187  ILE187      0.0022
     59  CD1       43.2530   24.8620   90.3550 C.3   187  ILE187      0.0001
     60  N         37.5460   23.4920   95.9220 N.3   191  SER191     -0.1202
     61  CA        36.4290   23.2230   95.0230 C.3   191  SER191      0.2020
     62  C         36.1730   21.7290   94.8560 C.2   191  SER191      0.2619
     63  O         37.1020   20.9210   94.8760 O.2   191  SER191     -0.2717
     64  CB        36.6780   23.8660   93.6570 C.3   191  SER191      0.2103
     65  OG        37.8790   23.3840   93.0810 O.3   191  SER191     -0.2182
     66  N         34.9040   21.3720   94.6860 N.am  192  PHE192     -0.1961
     67  CA        34.5140   19.9790   94.5160 C.3   192  PHE192      0.1771
     68  C         33.0620   19.8920   94.0660 C.2   192  PHE192      0.2619
     69  O         32.3280   20.8790   94.1140 O.2   192  PHE192     -0.2715
     70  CB        34.6960   19.2110   95.8250 C.3   192  PHE192      0.0574
     71  CG        33.8240   19.7080   96.9400 C.ar  192  PHE192     -0.0200
     72  CD1       34.2040   20.8020   97.7000 C.ar  192  PHE192     -0.0042
     73  CD2       32.6200   19.0860   97.2250 C.ar  192  PHE192     -0.0042
     74  CE1       33.4020   21.2640   98.7250 C.ar  192  PHE192     -0.0003
     75  CE2       31.8140   19.5440   98.2490 C.ar  192  PHE192     -0.0003
     76  CZ        32.2050   20.6340   99.0000 C.ar  192  PHE192     -0.0000
     77  N         32.6500   18.7060   93.6300 N.am  193  ASN193     -0.1972
     78  CA        31.2790   18.4970   93.1840 C.3   193  ASN193      0.1688
     79  C         30.4730   17.6680   94.1760 C.2   193  ASN193      0.2292
     80  O         30.8810   16.5740   94.5640 O.2   193  ASN193     -0.2864
     81  CB        31.2550   17.8340   91.8060 C.3   193  ASN193      0.1181
     82  CG        29.8530   17.7200   91.2410 C.2   193  ASN193      0.2629
     83  OD1       29.1160   16.7870   91.5600 O.2   193  ASN193     -0.2716
     84  ND2       29.4760   18.6740   90.3960 N.am  193  ASN193     -0.0877
     85  N         28.5660   22.4630   91.9730 N.3   198  PHE198     -0.1241
     86  CA        29.9760   22.7860   92.1670 C.3   198  PHE198      0.1605
     87  C         30.1750   23.7360   93.3440 C.2   198  PHE198      0.2264
     88  O         29.6800   24.8640   93.3350 O.2   198  PHE198     -0.2867
     89  CB        30.5700   23.3950   90.8940 C.3   198  PHE198      0.0534
     90  CG        30.5590   22.4650   89.7120 C.ar  198  PHE198     -0.0203
     91  CD1       31.5910   21.5610   89.5140 C.ar  198  PHE198     -0.0042
     92  CD2       29.5220   22.4990   88.7950 C.ar  198  PHE198     -0.0042
     93  CE1       31.5850   20.7060   88.4270 C.ar  198  PHE198     -0.0003
     94  CE2       29.5110   21.6460   87.7050 C.ar  198  PHE198     -0.0003
     95  CZ        30.5440   20.7490   87.5220 C.ar  198  PHE198     -0.0000
     96  N         32.5490   25.9930   95.9970 N.3   200  TYR200     -0.1241
     97  CA        33.7910   26.7480   96.1030 C.3   200  TYR200      0.1605
     98  C         33.9420   27.2880   97.5180 C.2   200  TYR200      0.2264
     99  O         33.4770   28.3830   97.8280 O.2   200  TYR200     -0.2867
    100  CB        33.8060   27.8980   95.0970 C.3   200  TYR200      0.0534
    101  CG        33.8700   27.4480   93.6560 C.ar  200  TYR200     -0.0201
    102  CD1       32.7370   26.9840   93.0020 C.ar  200  TYR200     -0.0009
    103  CD2       35.0630   27.4910   92.9480 C.ar  200  TYR200     -0.0009
    104  CE1       32.7920   26.5730   91.6850 C.ar  200  TYR200      0.0417
    105  CE2       35.1270   27.0830   91.6320 C.ar  200  TYR200      0.0417
    106  CZ        33.9890   26.6250   91.0060 C.ar  200  TYR200      0.1957
    107  OH        34.0480   26.2170   89.6940 O.3   200  TYR200     -0.2866
    108  N         32.2790   27.4630   85.3690 N.3   225  ILE225     -0.1231
    109  CA        33.4810   26.8720   85.9420 C.3   225  ILE225      0.1692
    110  C         34.5650   26.6470   84.8940 C.2   225  ILE225      0.2592
    111  O         34.2760   26.5080   83.7060 O.2   225  ILE225     -0.2718
    112  CB        33.1700   25.5250   86.6220 C.3   225  ILE225      0.0266
    113  CG1       32.9600   24.4350   85.5710 C.3   225  ILE225      0.0019
    114  CG2       31.9510   25.6510   87.5250 C.3   225  ILE225      0.0020
    115  CD1       32.7180   23.0610   86.1580 C.3   225  ILE225      0.0001
    116  N         35.8140   26.6140   85.3460 N.am  226  ASN226     -0.1960
    117  CA        36.9370   26.2970   84.4750 C.3   226  ASN226      0.1819
    118  C         37.1540   24.7910   84.4050 C.2   226  ASN226      0.2621
    119  O         37.5870   24.1730   85.3780 O.2   226  ASN226     -0.2715
    120  CB        38.2100   26.9930   84.9610 C.3   226  ASN226      0.1195
    121  CG        38.0880   28.5040   84.9500 C.2   226  ASN226      0.2630
    122  OD1       38.3210   29.1500   83.9280 O.2   226  ASN226     -0.2716
    123  ND2       37.7220   29.0770   86.0910 N.am  226  ASN226     -0.0877
    124  N         36.8460   24.2050   83.2520 N.am  227  MET227     -0.1963
    125  CA        36.9250   22.7590   83.0760 C.3   227  MET227      0.1736
    126  C         38.2620   22.1850   83.5380 C.2   227  MET227      0.2616
    127  O         39.3140   22.7880   83.3330 O.2   227  MET227     -0.2715
    128  CB        36.6630   22.3810   81.6160 C.3   227  MET227      0.0427
    129  CG        35.2680   22.7340   81.1270 C.3   227  MET227      0.0599
    130  SD        34.9780   22.2360   79.4200 S.3   227  MET227     -0.1393
    131  CE        35.2730   20.4720   79.5270 C.3   227  MET227      0.0692
    132  N         38.2080   21.0150   84.1670 N.am  228  TRP228     -0.1960
    133  CA        39.4140   20.3300   84.6180 C.3   228  TRP228      0.1771
    134  C         39.8680   19.2980   83.5900 C.2   228  TRP228      0.2620
    135  O         41.0450   18.9390   83.5370 O.2   228  TRP228     -0.2715
    136  CB        39.1820   19.6600   85.9750 C.3   228  TRP228      0.0590
    137  CG        38.0940   18.6290   85.9630 C.ar  228  TRP228      0.0006
    138  CD1       36.7760   18.8250   86.2570 C.ar  228  TRP228      0.0946
    139  CD2       38.2310   17.2380   85.6430 C.ar  228  TRP228      0.0152
    140  NE1       36.0830   17.6430   86.1400 N.ar  228  TRP228     -0.2442
    141  CE2       36.9540   16.6550   85.7630 C.ar  228  TRP228      0.0810
    142  CE3       39.3090   16.4310   85.2660 C.ar  228  TRP228      0.0012
    143  CZ2       36.7260   15.3020   85.5200 C.ar  228  TRP228      0.0191
    144  CZ3       39.0800   15.0880   85.0250 C.ar  228  TRP228      0.0001
    145  CH2       37.7990   14.5380   85.1530 C.ar  228  TRP228      0.0015
    146  N         38.9300   18.8280   82.7730 N.am  229  GLN229     -0.1963
    147  CA        39.2360   17.8450   81.7400 C.3   229  GLN229      0.1733
    148  C         40.1740   18.4310   80.6910 C.2   229  GLN229      0.2616
    149  O         41.0500   17.7410   80.1690 O.2   229  GLN229     -0.2715
    150  CB        37.9560   17.3500   81.0610 C.3   229  GLN229      0.0408
    151  CG        36.9200   16.7610   82.0040 C.3   229  GLN229      0.0908
    152  CD        36.0800   17.8210   82.6870 C.2   229  GLN229      0.2608
    153  OE1       36.3850   19.0120   82.6200 O.2   229  GLN229     -0.2717
    154  NE2       35.0090   17.3930   83.3450 N.am  229  GLN229     -0.0878
    155  N         39.9800   19.7090   80.3840 N.am  230  GLU230     -0.1963
    156  CA        40.7730   20.3820   79.3640 C.3   230  GLU230      0.1733
    157  C         40.7440   21.8940   79.5570 C.2   230  GLU230      0.2616
    158  O         40.2830   22.3890   80.5850 O.2   230  GLU230     -0.2715
    159  CB        40.2610   20.0180   77.9700 C.3   230  GLU230      0.0429
    160  CG        38.7830   20.3060   77.7620 C.3   230  GLU230      0.1163
    161  CD        38.2750   19.8060   76.4250 C.2   230  GLU230      0.3649
    162  OE1       39.1020   19.3610   75.6020 O.co2 230  GLU230     -0.2457
    163  OE2       37.0470   19.8540   76.1990 O.co2 230  GLU230     -0.2457
    164  N         41.2380   22.6240   78.5610 N.am  231  VAL231     -0.1977
    165  CA        41.2840   24.0790   78.6320 C.3   231  VAL231      0.1596
    166  C         40.0100   24.7030   78.0720 C.2   231  VAL231      0.2287
    167  O         39.6480   24.4700   76.9190 O.2   231  VAL231     -0.2864
    168  CB        42.4950   24.6430   77.8680 C.3   231  VAL231      0.0276
    169  CG1       42.5570   26.1550   78.0190 C.3   231  VAL231      0.0022
    170  CG2       43.7800   24.0000   78.3640 C.3   231  VAL231      0.0022
    171  N         44.6070   21.3150   90.7730 N.3   269  GLY269     -0.1210
    172  CA        44.4300   21.6730   89.3770 C.3   269  GLY269      0.1956
    173  C         44.5450   20.4690   88.4620 C.2   269  GLY269      0.2612
    174  O         43.6390   20.1820   87.6800 O.2   269  GLY269     -0.2717
    175  N         45.6670   19.7640   88.5620 N.am  270  ASP270     -0.1959
    176  CA        45.8910   18.5650   87.7640 C.3   270  ASP270      0.1840
    177  C         45.3340   17.3370   88.4770 C.2   270  ASP270      0.2622
    178  O         45.9780   16.7760   89.3630 O.2   270  ASP270     -0.2715
    179  CB        47.3830   18.3820   87.4780 C.3   270  ASP270      0.1450
    180  CG        47.6670   17.1620   86.6220 C.2   270  ASP270      0.3671
    181  OD1       46.7800   16.7640   85.8360 O.co2 270  ASP270     -0.2456
    182  OD2       48.7780   16.6010   86.7330 O.co2 270  ASP270     -0.2456
    183  N         44.1350   16.9220   88.0810 N.am  271  MET271     -0.1963
    184  CA        43.4560   15.8050   88.7310 C.3   271  MET271      0.1736
    185  C         44.2280   14.4930   88.6070 C.2   271  MET271      0.2616
    186  O         43.8610   13.4910   89.2210 O.2   271  MET271     -0.2715
    187  CB        42.0340   15.6450   88.1850 C.3   271  MET271      0.0427
    188  CG        41.1410   16.8560   88.4280 C.3   271  MET271      0.0599
    189  SD        40.9830   17.2710   90.1780 S.3   271  MET271     -0.1393
    190  CE        40.0930   18.8220   90.0810 C.3   271  MET271      0.0692
    191  N         45.2960   14.5020   87.8160 N.am  272  ARG272     -0.1977
    192  CA        46.1450   13.3240   87.6840 C.3   272  ARG272      0.1597
    193  C         46.7880   12.9950   89.0250 C.2   272  ARG272      0.2287
    194  O         46.8700   11.8320   89.4170 O.2   272  ARG272     -0.2864
    195  CB        47.2320   13.5460   86.6320 C.3   272  ARG272      0.0334
    196  CG        46.7120   13.8850   85.2460 C.3   272  ARG272      0.0492
    197  CD        47.8230   13.7790   84.2140 C.3   272  ARG272      0.2205
    198  NE        47.4660   14.4170   82.9510 N.pl3 272  ARG272     -0.0865
    199  CZ        47.8470   15.6420   82.6020 C.cat 272  ARG272      0.5346
    200  NH1       48.6040   16.3610   83.4190 N.pl3 272  ARG272      0.1354
    201  NH2       47.4750   16.1460   81.4330 N.pl3 272  ARG272      0.1354
@<TRIPOS>BOND
     1   162   161   ar
     2   163   161   ar
     3   161   160    1
     4   167   166    2
     5   160   159    1
     6   168   169    1
     7   168   170    1
     8   168   165    1
     9   159   156    1
    10   166   165    1
    11   164   165    1
    12   164   157   am
    13   156   157    1
    14   156   155    1
    15   130   131    1
    16   130   129    1
    17   157   158    2
    18   149   148    2
    19   155   148   am
    20   148   147    1
    21   150   147    1
    22   150   151    1
    23   129   128    1
    24   201   199    1
    25   128   125    1
    26   147   146    1
    27   151   152    1
    28     3     4    2
    29     3     2    1
    30   199   198    2
    31   199   200    1
    32   153   152    2
    33   152   154   am
    34   146   134   am
    35   198   197    1
    36   125   124    1
    37   125   126    1
    38     1     2    1
    39   124   118   am
    40   127   126    2
    41     2     5    1
    42   135   134    2
    43   126   132   am
    44   134   133    1
    45     5     6    1
    46   111   110    2
    47   122   121    2
    48   132   133    1
    49   197   196    1
    50   118   117    1
    51   118   119    2
    52   117   120    1
    53   117   116    1
    54   133   136    1
    55   110   116   am
    56   110   109    1
    57   121   120    1
    58   121   123   am
    59   144   145   ar
    60   144   142   ar
    61     6     7   ar
    62     6     8   ar
    63   145   143   ar
    64   196   195    1
    65   142   139   ar
    66   108   109    1
    67   143   141   ar
    68   113   115    1
    69   113   112    1
    70   139   141   ar
    71   139   137   ar
    72   141   140   ar
    73    11     8   ar
    74    11    13   ar
    75   181   180   ar
    76     7     9   ar
    77   109   112    1
    78   137   136    1
    79   137   138   ar
    80     8    10   ar
    81    42    40   ar
    82   140   138   ar
    83    41    40   ar
    84   112   114    1
    85   180   182   ar
    86   180   179    1
    87   195   192    1
    88    40    39    1
    89    13    14   ar
    90     9    10   ar
    91    10    12   ar
    92   179   176    1
    93    95    94   ar
    94    95    93   ar
    95   174   173    2
    96   192   191    1
    97   192   193    1
    98    94    92   ar
    99   176   177    1
   100   176   175    1
   101   191   185   am
   102   183   177   am
   103   183   184    1
   104    51    49   ar
   105    14    12   ar
   106    39    36    1
   107   187   188    1
   108   187   184    1
   109    93    91   ar
   110   188   189    1
   111   173   175   am
   112   173   172    1
   113   177   178    2
   114   185   184    1
   115   185   186    2
   116    49    50   ar
   117    49    48    1
   118    92    90   ar
   119   193   194    2
   120    36    35    1
   121    36    37    1
   122    21    19    1
   123   172   171    1
   124    91    90   ar
   125    48    47    1
   126   107   106    1
   127    90    89    1
   128    20    19    1
   129   190   189    1
   130    57    59    1
   131    57    56    1
   132    47    44    1
   133    19    16    1
   134    84    82   am
   135    37    38    2
   136    89    86    1
   137   106   105   ar
   138   106   104   ar
   139    82    83    2
   140    82    81    1
   141    43    44    1
   142    44    45    1
   143   105   103   ar
   144    56    58    1
   145    56    53    1
   146   104   102   ar
   147    16    15    1
   148    16    17    1
   149    81    78    1
   150    85    86    1
   151    52    45   am
   152    52    53    1
   153    86    87    1
   154    45    46    2
   155    34    32    1
   156    17    18    2
   157    17    22   am
   158    53    54    1
   159   103   101   ar
   160   102   101   ar
   161    22    23    1
   162    65    64    1
   163    25    24    2
   164    78    77    1
   165    78    79    1
   166    88    87    2
   167    77    68   am
   168   101   100    1
   169    64    61    1
   170    24    23    1
   171    24    28   am
   172    23    26    1
   173    54    55    2
   174    32    33    1
   175    32    29    1
   176    68    69    2
   177    68    67    1
   178    79    80    2
   179    67    66    1
   180    67    70    1
   181    28    29    1
   182    66    62   am
   183    29    30    1
   184    62    63    2
   185    62    61    1
   186    61    60    1
   187   100    97    1
   188    26    27    1
   189    70    71    1
   190    96    97    1
   191    97    98    1
   192    30    31    2
   193    71    73   ar
   194    71    72   ar
   195    73    75   ar
   196    98    99    2
   197    72    74   ar
   198    75    76   ar
   199    74    76   ar
