@<TRIPOS>MOLECULE
tmp/4dvsA11.pdb
 170 168 0 0 0
SMALL
GASTEIGER

@<TRIPOS>ATOM
      1  N         29.1490   -4.2670   46.0970 N.3    69  TRP69      -0.1241
      2  CA        29.7410   -5.5520   46.4470 C.3    69  TRP69       0.1605
      3  C         31.2620   -5.4590   46.5320 C.2    69  TRP69       0.2264
      4  O         31.8850   -6.0860   47.3890 O.2    69  TRP69      -0.2867
      5  CB        29.3270   -6.6230   45.4370 C.3    69  TRP69       0.0550
      6  CG        27.9870   -7.2250   45.7250 C.ar   69  TRP69       0.0003
      7  CD1       26.8140   -6.5570   45.9240 C.ar   69  TRP69       0.0946
      8  CD2       27.6810   -8.6190   45.8390 C.ar   69  TRP69       0.0152
      9  NE1       25.7960   -7.4500   46.1620 N.ar   69  TRP69      -0.2442
     10  CE2       26.3020   -8.7230   46.1140 C.ar   69  TRP69       0.0810
     11  CE3       28.4390   -9.7900   45.7380 C.ar   69  TRP69       0.0012
     12  CZ2       25.6660   -9.9500   46.2890 C.ar   69  TRP69       0.0191
     13  CZ3       27.8050  -11.0090   45.9120 C.ar   69  TRP69       0.0001
     14  CH2       26.4330  -11.0790   46.1840 C.ar   69  TRP69       0.0015
     15  N         20.7450  -10.1830   44.3800 N.3   139  VAL139     -0.1231
     16  CA        21.4840  -10.9790   43.4080 C.3   139  VAL139      0.1692
     17  C         21.1620  -12.4590   43.5590 C.2   139  VAL139      0.2593
     18  O         21.3540  -13.0360   44.6290 O.2   139  VAL139     -0.2718
     19  CB        23.0030  -10.7800   43.5570 C.3   139  VAL139      0.0266
     20  CG1       23.7550  -11.6790   42.5900 C.3   139  VAL139      0.0020
     21  CG2       23.3720   -9.3220   43.3340 C.3   139  VAL139      0.0020
     22  N         20.6750  -13.0730   42.4850 N.am  140  SER140     -0.1938
     23  CA        20.3220  -14.4870   42.5200 C.3   140  SER140      0.2055
     24  C         20.2190  -15.0820   41.1230 C.2   140  SER140      0.2643
     25  O         20.1790  -14.3580   40.1280 O.2   140  SER140     -0.2714
     26  CB        18.9920  -14.6850   43.2470 C.3   140  SER140      0.2130
     27  OG        17.9270  -14.1060   42.5120 O.3   140  SER140     -0.2179
     28  N         20.1750  -16.4090   41.0620 N.am  141  THR141     -0.1950
     29  CA        19.9420  -17.1170   39.8100 C.3   141  THR141      0.1897
     30  C         18.7020  -17.9950   39.9380 C.2   141  THR141      0.2313
     31  O         18.2890  -18.3410   41.0450 O.2   141  THR141     -0.2863
     32  CB        21.1440  -17.9970   39.4200 C.3   141  THR141      0.1794
     33  OG1       21.2740  -19.0770   40.3550 O.3   141  THR141     -0.2208
     34  CG2       22.4250  -17.1790   39.4120 C.3   141  THR141      0.0378
     35  N         27.9090  -24.2290   35.2690 N.3   229  ASP229     -0.1239
     36  CA        28.4380  -23.9520   36.6010 C.3   229  ASP229      0.1674
     37  C         27.3500  -24.0350   37.6690 C.2   229  ASP229      0.2266
     38  O         26.1620  -23.8920   37.3730 O.2   229  ASP229     -0.2867
     39  CB        29.1160  -22.5790   36.6410 C.3   229  ASP229      0.1410
     40  CG        30.3610  -22.5170   35.7750 C.2   229  ASP229      0.3668
     41  OD1       30.9660  -23.5800   35.5210 O.co2 229  ASP229     -0.2456
     42  OD2       30.7360  -21.4030   35.3510 O.co2 229  ASP229     -0.2456
     43  N         26.4900  -22.0300   39.9970 N.3   231  GLU231     -0.1231
     44  CA        25.7280  -20.7990   40.1780 C.3   231  GLU231      0.1699
     45  C         24.4810  -20.7850   39.3000 C.2   231  GLU231      0.2592
     46  O         23.5070  -20.0930   39.6010 O.2   231  GLU231     -0.2718
     47  CB        26.5920  -19.5700   39.8750 C.3   231  GLU231      0.0402
     48  CG        27.6860  -19.2940   40.9000 C.3   231  GLU231      0.1161
     49  CD        28.8830  -20.2150   40.7520 C.2   231  GLU231      0.3649
     50  OE1       29.0070  -20.8720   39.6960 O.co2 231  GLU231     -0.2457
     51  OE2       29.7020  -20.2770   41.6930 O.co2 231  GLU231     -0.2457
     52  N         24.5160  -21.5550   38.2170 N.am  232  ILE232     -0.1980
     53  CA        23.4180  -21.5780   37.2570 C.3   232  ILE232      0.1595
     54  C         22.5420  -22.8170   37.4170 C.2   232  ILE232      0.2287
     55  O         21.3150  -22.7310   37.3660 O.2   232  ILE232     -0.2864
     56  CB        23.9370  -21.5230   35.8070 C.3   232  ILE232      0.0276
     57  CG1       25.0250  -20.4570   35.6680 C.3   232  ILE232      0.0022
     58  CG2       22.7890  -21.2670   34.8390 C.3   232  ILE232      0.0022
     59  CD1       24.5990  -19.0890   36.1430 C.3   232  ILE232      0.0001
     60  N         21.1390  -19.8880   43.2310 N.3   236  SER236     -0.1202
     61  CA        22.1650  -19.1920   44.0000 C.3   236  SER236      0.2020
     62  C         21.6610  -17.8480   44.5090 C.2   236  SER236      0.2618
     63  O         20.9670  -17.1230   43.7970 O.2   236  SER236     -0.2717
     64  CB        23.4270  -18.9890   43.1580 C.3   236  SER236      0.2103
     65  OG        24.0520  -20.2250   42.8650 O.3   236  SER236     -0.2182
     66  N         22.0190  -17.5230   45.7460 N.am  237  PHE237     -0.1975
     67  CA        21.6230  -16.2630   46.3620 C.3   237  PHE237      0.1639
     68  C         22.4570  -16.0150   47.6130 C.2   237  PHE237      0.2290
     69  O         23.0870  -16.9330   48.1360 O.2   237  PHE237     -0.2864
     70  CB        20.1320  -16.2820   46.7120 C.3   237  PHE237      0.0560
     71  CG        19.7500  -17.3600   47.6900 C.ar  237  PHE237     -0.0200
     72  CD1       19.4590  -18.6420   47.2520 C.ar  237  PHE237     -0.0042
     73  CD2       19.6790  -17.0890   49.0480 C.ar  237  PHE237     -0.0042
     74  CE1       19.1080  -19.6350   48.1500 C.ar  237  PHE237     -0.0003
     75  CE2       19.3280  -18.0790   49.9520 C.ar  237  PHE237     -0.0003
     76  CZ        19.0430  -19.3530   49.5020 C.ar  237  PHE237     -0.0000
     77  N         26.7110  -17.2680   50.9020 N.3   243  PHE243     -0.1241
     78  CA        26.2540  -17.6900   49.5810 C.3   243  PHE243      0.1605
     79  C         25.5750  -19.0560   49.6260 C.2   243  PHE243      0.2264
     80  O         26.2160  -20.0720   49.9000 O.2   243  PHE243     -0.2867
     81  CB        27.4190  -17.7100   48.5870 C.3   243  PHE243      0.0534
     82  CG        28.0110  -16.3560   48.3200 C.ar  243  PHE243     -0.0203
     83  CD1       29.0220  -15.8560   49.1250 C.ar  243  PHE243     -0.0042
     84  CD2       27.5520  -15.5800   47.2670 C.ar  243  PHE243     -0.0042
     85  CE1       29.5670  -14.6080   48.8820 C.ar  243  PHE243     -0.0003
     86  CE2       28.0930  -14.3320   47.0200 C.ar  243  PHE243     -0.0003
     87  CZ        29.1020  -13.8450   47.8290 C.ar  243  PHE243     -0.0000
     88  N         23.5880  -22.1660   47.8080 N.3   245  TYR245     -0.1241
     89  CA        23.3550  -22.8850   46.5630 C.3   245  TYR245      0.1605
     90  C         22.3260  -23.9770   46.8160 C.2   245  TYR245      0.2264
     91  O         22.5990  -24.9320   47.5430 O.2   245  TYR245     -0.2867
     92  CB        24.6510  -23.5150   46.0550 C.3   245  TYR245      0.0534
     93  CG        25.6850  -22.5230   45.5750 C.ar  245  TYR245     -0.0201
     94  CD1       26.2920  -21.6390   46.4570 C.ar  245  TYR245     -0.0009
     95  CD2       26.0650  -22.4820   44.2410 C.ar  245  TYR245     -0.0009
     96  CE1       27.2430  -20.7340   46.0200 C.ar  245  TYR245      0.0417
     97  CE2       27.0140  -21.5840   43.7960 C.ar  245  TYR245      0.0417
     98  CZ        27.5990  -20.7120   44.6870 C.ar  245  TYR245      0.1957
     99  OH        28.5450  -19.8180   44.2420 O.3   245  TYR245     -0.2866
    100  N         33.2710  -19.0390   45.1000 N.3   271  ILE271     -0.1231
    101  CA        32.2010  -18.6300   44.2010 C.3   271  ILE271      0.1692
    102  C         32.7190  -18.1520   42.8490 C.2   271  ILE271      0.2592
    103  O         33.7910  -17.5520   42.7590 O.2   271  ILE271     -0.2718
    104  CB        31.3610  -17.4970   44.8250 C.3   271  ILE271      0.0266
    105  CG1       30.5270  -18.0260   45.9950 C.3   271  ILE271      0.0019
    106  CG2       30.4600  -16.8610   43.7820 C.3   271  ILE271      0.0020
    107  CD1       31.3460  -18.4700   47.1820 C.3   271  ILE271      0.0001
    108  N         31.9540  -18.4320   41.7990 N.am  272  ASN272     -0.1960
    109  CA        32.1760  -17.8100   40.5020 C.3   272  ASN272      0.1819
    110  C         31.4800  -16.4540   40.4880 C.2   272  ASN272      0.2621
    111  O         30.2630  -16.3730   40.6430 O.2   272  ASN272     -0.2715
    112  CB        31.6420  -18.6940   39.3750 C.3   272  ASN272      0.1195
    113  CG        32.5140  -19.9080   39.1210 C.2   272  ASN272      0.2630
    114  OD1       33.7410  -19.8110   39.0880 O.2   272  ASN272     -0.2716
    115  ND2       31.8820  -21.0630   38.9420 N.am  272  ASN272     -0.0877
    116  N         32.2560  -15.3920   40.3110 N.am  273  MET273     -0.1963
    117  CA        31.7320  -14.0390   40.4540 C.3   273  MET273      0.1736
    118  C         30.7450  -13.6590   39.3540 C.2   273  MET273      0.2616
    119  O         31.0000  -13.8760   38.1710 O.2   273  MET273     -0.2715
    120  CB        32.8800  -13.0290   40.5240 C.3   273  MET273      0.0427
    121  CG        33.8340  -13.2730   41.6840 C.3   273  MET273      0.0599
    122  SD        35.1960  -12.0940   41.7460 S.3   273  MET273     -0.1393
    123  CE        34.3140  -10.5730   42.0900 C.3   273  MET273      0.0692
    124  N         29.6120  -13.0960   39.7600 N.am  274  TRP274     -0.1960
    125  CA        28.6080  -12.6270   38.8150 C.3   274  TRP274      0.1771
    126  C         29.0730  -11.3390   38.1490 C.2   274  TRP274      0.2620
    127  O         28.5340  -10.9320   37.1200 O.2   274  TRP274     -0.2715
    128  CB        27.2630  -12.4130   39.5140 C.3   274  TRP274      0.0590
    129  CG        27.3080  -11.4120   40.6320 C.ar  274  TRP274      0.0006
    130  CD1       27.5390  -11.6680   41.9540 C.ar  274  TRP274      0.0946
    131  CD2       27.1160   -9.9950   40.5260 C.ar  274  TRP274      0.0152
    132  NE1       27.5020  -10.5000   42.6760 N.ar  274  TRP274     -0.2442
    133  CE2       27.2430   -9.4590   41.8230 C.ar  274  TRP274      0.0810
    134  CE3       26.8470   -9.1300   39.4610 C.ar  274  TRP274      0.0012
    135  CZ2       27.1120   -8.0960   42.0830 C.ar  274  TRP274      0.0191
    136  CZ3       26.7170   -7.7760   39.7210 C.ar  274  TRP274      0.0001
    137  CH2       26.8500   -7.2730   41.0220 C.ar  274  TRP274      0.0015
    138  N         30.0770  -10.7010   38.7420 N.am  275  GLN275     -0.1963
    139  CA        30.6430   -9.4790   38.1830 C.3   275  GLN275      0.1733
    140  C         31.4030   -9.7810   36.8980 C.2   275  GLN275      0.2616
    141  O         31.6600   -8.8870   36.0920 O.2   275  GLN275     -0.2715
    142  CB        31.5750   -8.7930   39.1870 C.3   275  GLN275      0.0408
    143  CG        30.9040   -8.3360   40.4720 C.3   275  GLN275      0.0908
    144  CD        30.9080   -9.4020   41.5510 C.2   275  GLN275      0.2608
    145  OE1       30.6980  -10.5850   41.2760 O.2   275  GLN275     -0.2717
    146  NE2       31.1570   -8.9880   42.7900 N.am  275  GLN275     -0.0878
    147  N         31.7690  -11.0470   36.7180 N.am  276  GLY276     -0.1955
    148  CA        32.4490  -11.4820   35.5120 C.3   276  GLY276      0.1869
    149  C         33.9480  -11.6350   35.6750 C.2   276  GLY276      0.2309
    150  O         34.6140  -12.2110   34.8170 O.2   276  GLY276     -0.2863
    151  N         22.3750  -16.0390   35.6360 N.3   320  GLY320     -0.1210
    152  CA        23.8090  -15.8260   35.5700 C.3   320  GLY320      0.1956
    153  C         24.1480  -14.4070   35.1630 C.2   320  GLY320      0.2612
    154  O         25.1560  -13.8490   35.5990 O.2   320  GLY320     -0.2717
    155  N         23.3060  -13.8250   34.3150 N.am  321  ASN321     -0.1960
    156  CA        23.4500  -12.4290   33.9250 C.3   321  ASN321      0.1819
    157  C         22.5890  -11.5550   34.8190 C.2   321  ASN321      0.2621
    158  O         21.3920  -11.3880   34.5800 O.2   321  ASN321     -0.2715
    159  CB        23.0710  -12.2330   32.4550 C.3   321  ASN321      0.1195
    160  CG        23.1710  -10.7830   32.0150 C.2   321  ASN321      0.2630
    161  OD1       23.6120   -9.9190   32.7750 O.2   321  ASN321     -0.2716
    162  ND2       22.7640  -10.5110   30.7800 N.am  321  ASN321     -0.0877
    163  N         23.2090  -11.0010   35.8540 N.am  322  ILE322     -0.1977
    164  CA        22.4890  -10.2630   36.8820 C.3   322  ILE322      0.1596
    165  C         21.7580   -9.0430   36.3300 C.2   322  ILE322      0.2287
    166  O         20.8430   -8.5180   36.9660 O.2   322  ILE322     -0.2864
    167  CB        23.4330   -9.8380   38.0200 C.3   322  ILE322      0.0276
    168  CG1       24.1950  -11.0560   38.5440 C.3   322  ILE322      0.0022
    169  CG2       22.6530   -9.1660   39.1350 C.3   322  ILE322      0.0022
    170  CD1       23.2930  -12.2130   38.9370 C.3   322  ILE322      0.0001
@<TRIPOS>BOND
     1   162   160   am
     2   160   159    1
     3   160   161    2
     4   159   156    1
     5   156   155    1
     6   156   157    1
     7   155   153   am
     8   158   157    2
     9   150   149    2
    10   157   163   am
    11    58    56    1
    12   153   152    1
    13   153   154    2
    14    35    36    1
    15    42    40   ar
    16   148   149    1
    17   148   147    1
    18    41    40   ar
    19   152   151    1
    20    57    56    1
    21    57    59    1
    22    40    39    1
    23    56    53    1
    24   163   164    1
    25   141   140    2
    26   165   164    1
    27   165   166    2
    28    36    39    1
    29    36    37    1
    30   147   140   am
    31   164   167    1
    32   140   139    1
    33   127   126    2
    34    53    54    1
    35    53    52    1
    36    55    54    2
    37    38    37    2
    38   167   168    1
    39   167   169    1
    40   126   138   am
    41   126   125    1
    42   119   118    2
    43   139   138    1
    44   139   142    1
    45    52    45   am
    46   168   170    1
    47   125   128    1
    48   125   124    1
    49   115   113   am
    50   114   113    2
    51   113   112    1
    52   142   143    1
    53    45    46    2
    54    45    44    1
    55   118   124   am
    56   118   117    1
    57   112   109    1
    58    34    32    1
    59    32    29    1
    60    32    33    1
    61   134   136   ar
    62   134   131   ar
    63   128   129    1
    64    50    49   ar
    65   136   137   ar
    66    29    30    1
    67    29    28    1
    68    47    44    1
    69    47    48    1
    70    30    31    2
    71    43    44    1
    72    25    24    2
    73   116   117    1
    74   116   110   am
    75   117   120    1
    76   143   144    1
    77   110   109    1
    78   110   111    2
    79   109   108    1
    80   120   121    1
    81   131   129   ar
    82   131   133   ar
    83   129   130   ar
    84    49    48    1
    85    49    51   ar
    86   137   135   ar
    87    28    24   am
    88    24    23    1
    89   145   144    2
    90   144   146   am
    91   121   122    1
    92   122   123    1
    93   108   102   am
    94   133   135   ar
    95   133   132   ar
    96   130   132   ar
    97    22    23    1
    98    22    17   am
    99    27    26    1
   100    23    26    1
   101    20    19    1
   102   103   102    2
   103   102   101    1
   104    65    64    1
   105    64    61    1
   106    60    61    1
   107    21    19    1
   108    16    19    1
   109    16    17    1
   110    16    15    1
   111    17    18    2
   112   106   104    1
   113    97    95   ar
   114    97    98   ar
   115    63    62    2
   116    61    62    1
   117   101   104    1
   118   101   100    1
   119    95    93   ar
   120    99    98    1
   121    62    66   am
   122    98    96   ar
   123   104   105    1
   124     5     6    1
   125     5     2    1
   126    93    92    1
   127    93    94   ar
   128     6     8   ar
   129     6     7   ar
   130    11     8   ar
   131    11    13   ar
   132    66    67    1
   133     8    10   ar
   134    13    14   ar
   135     7     9   ar
   136   105   107    1
   137    96    94   ar
   138    92    89    1
   139     1     2    1
   140    10     9   ar
   141    10    12   ar
   142    14    12   ar
   143    67    70    1
   144    67    68    1
   145     2     3    1
   146     3     4    2
   147    89    90    1
   148    89    88    1
   149    70    71    1
   150    90    91    2
   151    86    84   ar
   152    86    87   ar
   153    72    71   ar
   154    72    74   ar
   155    84    82   ar
   156    68    69    2
   157    71    73   ar
   158    87    85   ar
   159    74    76   ar
   160    82    81    1
   161    82    83   ar
   162    81    78    1
   163    85    83   ar
   164    73    75   ar
   165    76    75   ar
   166    78    79    1
   167    78    77    1
   168    79    80    2
