@<TRIPOS>MOLECULE
tmp/4dvtB00.pdb
 173 170 0 0 0
SMALL
GASTEIGER

@<TRIPOS>ATOM
      1  N         -1.6280  -22.2180    1.1950 N.3    69  TRP69      -0.1241
      2  CA        -1.0350  -23.4790    0.7610 C.3    69  TRP69       0.1605
      3  C         -0.4000  -23.3730   -0.6230 C.2    69  TRP69       0.2264
      4  O          0.6250  -23.9990   -0.8930 O.2    69  TRP69      -0.2867
      5  CB        -2.0800  -24.5970    0.7860 C.3    69  TRP69       0.0550
      6  CG        -2.3740  -25.1050    2.1630 C.ar   69  TRP69       0.0003
      7  CD1       -2.8320  -24.3800    3.2240 C.ar   69  TRP69       0.0946
      8  CD2       -2.2360  -26.4540    2.6280 C.ar   69  TRP69       0.0152
      9  NE1       -2.9830  -25.1920    4.3230 N.ar   69  TRP69      -0.2442
     10  CE2       -2.6250  -26.4700    3.9820 C.ar   69  TRP69       0.0810
     11  CE3       -1.8210  -27.6480    2.0310 C.ar   69  TRP69       0.0012
     12  CZ2       -2.6100  -27.6330    4.7500 C.ar   69  TRP69       0.0191
     13  CZ3       -1.8060  -28.8020    2.7950 C.ar   69  TRP69       0.0001
     14  CH2       -2.1990  -28.7860    4.1390 C.ar   69  TRP69       0.0015
     15  N         -5.9980  -28.4500    8.2850 N.3   139  VAL139     -0.1231
     16  CA        -6.5080  -29.2650    7.1890 C.3   139  VAL139      0.1692
     17  C         -6.3620  -30.7510    7.5010 C.2   139  VAL139      0.2593
     18  O         -5.2550  -31.2400    7.7250 O.2   139  VAL139     -0.2718
     19  CB        -5.7710  -28.9620    5.8710 C.3   139  VAL139      0.0266
     20  CG1       -6.3090  -29.8370    4.7500 C.3   139  VAL139      0.0020
     21  CG2       -5.8980  -27.4870    5.5170 C.3   139  VAL139      0.0020
     22  N         -7.4830  -31.4650    7.5140 N.am  140  SER140     -0.1938
     23  CA        -7.4700  -32.8990    7.7820 C.3   140  SER140      0.2055
     24  C         -8.7390  -33.5770    7.2750 C.2   140  SER140      0.2643
     25  O         -9.6470  -32.9190    6.7660 O.2   140  SER140     -0.2714
     26  CB        -7.3030  -33.1620    9.2800 C.3   140  SER140      0.2130
     27  OG        -8.4070  -32.6560   10.0110 O.3   140  SER140     -0.2179
     28  N         -8.7920  -34.8970    7.4200 N.am  141  THR141     -0.1950
     29  CA        -9.9610  -35.6700    7.0170 C.3   141  THR141      0.1897
     30  C        -10.4480  -36.5520    8.1620 C.2   141  THR141      0.2313
     31  O         -9.6710  -36.9290    9.0400 O.2   141  THR141     -0.2863
     32  CB        -9.6610  -36.5540    5.7920 C.3   141  THR141      0.1794
     33  OG1       -8.5540  -37.4160    6.0820 O.3   141  THR141     -0.2208
     34  CG2       -9.3260  -35.6950    4.5840 C.3   141  THR141      0.0378
     35  N        -10.4880  -42.4210   -2.4130 N.3   229  ASP229     -0.1239
     36  CA        -9.0630  -42.1230   -2.3430 C.3   229  ASP229      0.1674
     37  C         -8.5590  -42.1900   -0.9050 C.2   229  ASP229      0.2266
     38  O         -9.3360  -42.0620    0.0410 O.2   229  ASP229     -0.2867
     39  CB        -8.7710  -40.7480   -2.9450 C.3   229  ASP229      0.1410
     40  CG        -9.2390  -40.6300   -4.3820 C.2   229  ASP229      0.3668
     41  OD1       -8.4730  -41.0110   -5.2920 O.co2 229  ASP229     -0.2456
     42  OD2      -10.3740  -40.1570   -4.6010 O.co2 229  ASP229     -0.2456
     43  N         -7.0070  -40.1490    0.8900 N.3   231  GLU231     -0.1231
     44  CA        -7.2690  -38.9340    1.6540 C.3   231  GLU231      0.1699
     45  C         -8.6070  -38.9980    2.3850 C.2   231  GLU231      0.2592
     46  O         -8.7570  -38.4370    3.4690 O.2   231  GLU231     -0.2718
     47  CB        -7.2250  -37.7020    0.7460 C.3   231  GLU231      0.0402
     48  CG        -5.8390  -37.3520    0.2240 C.3   231  GLU231      0.1161
     49  CD        -5.3030  -38.3780   -0.7550 C.2   231  GLU231      0.3649
     50  OE1       -6.0410  -39.3300   -1.0850 O.co2 231  GLU231     -0.2457
     51  OE2       -4.1440  -38.2300   -1.1960 O.co2 231  GLU231     -0.2457
     52  N         -9.5740  -39.6870    1.7880 N.am  232  ILE232     -0.1980
     53  CA       -10.9120  -39.7750    2.3640 C.3   232  ILE232      0.1595
     54  C        -11.1320  -41.0930    3.1010 C.2   232  ILE232      0.2287
     55  O        -11.9880  -41.1850    3.9810 O.2   232  ILE232     -0.2864
     56  CB       -12.0020  -39.6090    1.2860 C.3   232  ILE232      0.0276
     57  CG1      -13.3820  -39.4910    1.9360 C.3   232  ILE232      0.0022
     58  CG2      -11.9620  -40.7700    0.3050 C.3   232  ILE232      0.0022
     59  CD1      -14.5070  -39.2870    0.9440 C.3   232  ILE232      0.0001
     60  N         -6.1880  -38.2550    7.1700 N.3   236  SER236     -0.1202
     61  CA        -5.0870  -37.5020    6.5830 C.3   236  SER236      0.2020
     62  C         -4.8950  -36.1550    7.2730 C.2   236  SER236      0.2619
     63  O         -5.8590  -35.5170    7.6960 O.2   236  SER236     -0.2717
     64  CB        -5.3150  -37.2970    5.0840 C.3   236  SER236      0.2103
     65  OG        -6.5100  -36.5760    4.8450 O.3   236  SER236     -0.2182
     66  N         -3.6400  -35.7330    7.3820 N.am  237  PHE237     -0.1961
     67  CA        -3.3070  -34.4550    7.9960 C.3   237  PHE237      0.1771
     68  C         -1.8330  -34.1350    7.7820 C.2   237  PHE237      0.2619
     69  O         -1.0450  -35.0120    7.4260 O.2   237  PHE237     -0.2715
     70  CB        -3.6350  -34.4730    9.4910 C.3   237  PHE237      0.0574
     71  CG        -2.9190  -35.5480   10.2570 C.ar  237  PHE237     -0.0200
     72  CD1       -3.4150  -36.8410   10.2900 C.ar  237  PHE237     -0.0042
     73  CD2       -1.7540  -35.2650   10.9490 C.ar  237  PHE237     -0.0042
     74  CE1       -2.7600  -37.8320   10.9960 C.ar  237  PHE237     -0.0003
     75  CE2       -1.0940  -36.2520   11.6580 C.ar  237  PHE237     -0.0003
     76  CZ        -1.5970  -37.5370   11.6820 C.ar  237  PHE237     -0.0000
     77  N         -1.4650  -32.8770    7.9970 N.am  238  ASN238     -0.1972
     78  CA        -0.0840  -32.4520    7.8070 C.3   238  ASN238      0.1688
     79  C          0.6260  -32.1900    9.1300 C.2   238  ASN238      0.2292
     80  O          0.1850  -31.3660    9.9310 O.2   238  ASN238     -0.2864
     81  CB        -0.0200  -31.2080    6.9190 C.3   238  ASN238      0.1181
     82  CG         1.3990  -30.8390    6.5410 C.2   238  ASN238      0.2629
     83  OD1        2.1270  -30.2360    7.3300 O.2   238  ASN238     -0.2716
     84  ND2        1.8010  -31.1990    5.3270 N.am  238  ASN238     -0.0877
     85  N          2.9810  -35.0510    5.2600 N.3   243  PHE243     -0.1241
     86  CA         1.6000  -35.4970    5.1010 C.3   243  PHE243      0.1605
     87  C          1.3790  -36.8840    5.6980 C.2   243  PHE243      0.2264
     88  O          1.8870  -37.8810    5.1860 O.2   243  PHE243     -0.2867
     89  CB         1.2000  -35.4870    3.6250 C.3   243  PHE243      0.0534
     90  CG         1.2170  -34.1200    3.0040 C.ar  243  PHE243     -0.0203
     91  CD1        0.0960  -33.3090    3.0560 C.ar  243  PHE243     -0.0042
     92  CD2        2.3530  -33.6460    2.3720 C.ar  243  PHE243     -0.0042
     93  CE1        0.1070  -32.0490    2.4880 C.ar  243  PHE243     -0.0003
     94  CE2        2.3710  -32.3870    1.8010 C.ar  243  PHE243     -0.0003
     95  CZ         1.2470  -31.5870    1.8590 C.ar  243  PHE243     -0.0000
     96  N         -0.8570  -40.1570    6.7190 N.3   245  TYR245     -0.1241
     97  CA        -2.0210  -40.9630    6.3700 C.3   245  TYR245      0.1605
     98  C         -2.1600  -42.1120    7.3640 C.2   245  TYR245      0.2264
     99  O         -1.4020  -43.0800    7.3140 O.2   245  TYR245     -0.2867
    100  CB        -1.8880  -41.5130    4.9510 C.3   245  TYR245      0.0534
    101  CG        -2.0340  -40.4710    3.8650 C.ar  245  TYR245     -0.0201
    102  CD1       -0.9690  -39.6530    3.5120 C.ar  245  TYR245     -0.0009
    103  CD2       -3.2350  -40.3130    3.1870 C.ar  245  TYR245     -0.0009
    104  CE1       -1.0990  -38.7010    2.5160 C.ar  245  TYR245      0.0417
    105  CE2       -3.3750  -39.3650    2.1910 C.ar  245  TYR245      0.0417
    106  CZ        -2.3040  -38.5630    1.8600 C.ar  245  TYR245      0.1957
    107  OH        -2.4410  -37.6190    0.8680 O.3   245  TYR245     -0.2866
    108  N          0.3160  -36.9740   -3.1920 N.3   271  ILE271     -0.1231
    109  CA        -0.9760  -36.6210   -2.6150 C.3   271  ILE271      0.1692
    110  C         -1.9370  -36.0380   -3.6460 C.2   271  ILE271      0.2592
    111  O         -1.5140  -35.4590   -4.6470 O.2   271  ILE271     -0.2718
    112  CB        -0.8170  -35.6010   -1.4670 C.3   271  ILE271      0.0266
    113  CG1       -0.0100  -36.2010   -0.3140 C.3   271  ILE271      0.0019
    114  CG2       -2.1770  -35.1290   -0.9790 C.3   271  ILE271      0.0020
    115  CD1        1.4690  -36.3420   -0.6040 C.3   271  ILE271      0.0001
    116  N         -3.2320  -36.1990   -3.3920 N.am  272  ASN272     -0.1960
    117  CA        -4.2610  -35.5520   -4.1960 C.3   272  ASN272      0.1819
    118  C         -4.6880  -34.2400   -3.5510 C.2   272  ASN272      0.2621
    119  O         -5.4190  -34.2360   -2.5620 O.2   272  ASN272     -0.2715
    120  CB        -5.4700  -36.4720   -4.3640 C.3   272  ASN272      0.1195
    121  CG        -5.1170  -37.7800   -5.0450 C.2   272  ASN272      0.2630
    122  OD1       -4.2720  -37.8200   -5.9390 O.2   272  ASN272     -0.2716
    123  ND2       -5.7580  -38.8610   -4.6170 N.am  272  ASN272     -0.0877
    124  N         -4.2220  -33.1290   -4.1120 N.am  273  MET273     -0.1963
    125  CA        -4.5050  -31.8070   -3.5620 C.3   273  MET273      0.1736
    126  C         -5.9790  -31.6220   -3.2110 C.2   273  MET273      0.2616
    127  O         -6.8620  -31.8850   -4.0280 O.2   273  MET273     -0.2715
    128  CB        -4.0630  -30.7190   -4.5430 C.3   273  MET273      0.0427
    129  CG        -2.5690  -30.7060   -4.8140 C.3   273  MET273      0.0599
    130  SD        -2.1010  -29.4540   -6.0200 S.3   273  MET273     -0.1393
    131  CE        -0.3210  -29.6420   -6.0300 C.3   273  MET273      0.0692
    132  N         -6.2350  -31.1670   -1.9880 N.am  274  TRP274     -0.1974
    133  CA        -7.5980  -30.9100   -1.5370 C.3   274  TRP274      0.1640
    134  C         -8.1620  -29.6540   -2.1930 C.2   274  TRP274      0.2290
    135  O         -9.3600  -29.3830   -2.1100 O.2   274  TRP274     -0.2864
    136  CB        -7.6500  -30.7860   -0.0120 C.3   274  TRP274      0.0576
    137  CG        -6.7200  -29.7500    0.5470 C.ar  274  TRP274      0.0006
    138  CD1       -5.4390  -29.9450    0.9740 C.ar  274  TRP274      0.0946
    139  CD2       -7.0020  -28.3590    0.7430 C.ar  274  TRP274      0.0152
    140  NE1       -4.9050  -28.7610    1.4230 N.ar  274  TRP274     -0.2442
    141  CE2       -5.8430  -27.7720    1.2920 C.ar  274  TRP274      0.0810
    142  CE3       -8.1190  -27.5520    0.5080 C.ar  274  TRP274      0.0012
    143  CZ2       -5.7710  -26.4170    1.6080 C.ar  274  TRP274      0.0191
    144  CZ3       -8.0450  -26.2070    0.8230 C.ar  274  TRP274      0.0001
    145  CH2       -6.8800  -25.6530    1.3670 C.ar  274  TRP274      0.0015
    146  N         -8.4940  -29.2420   -5.2540 N.3   276  GLY276     -0.1225
    147  CA        -9.3670  -29.7220   -6.3090 C.3   276  GLY276      0.1811
    148  C         -8.6300  -30.0740   -7.5860 C.2   276  GLY276      0.2280
    149  O         -9.1420  -30.8200   -8.4210 O.2   276  GLY276     -0.2866
    150  N        -14.9570  -36.9610    5.3990 N.3   319  GLY319     -0.1210
    151  CA       -13.7870  -36.2290    4.9510 C.3   319  GLY319      0.1956
    152  C        -13.8340  -35.9560    3.4600 C.2   319  GLY319      0.2612
    153  O        -14.5470  -36.6330    2.7200 O.2   319  GLY319     -0.2717
    154  N        -13.0730  -34.9600    3.0190 N.am  320  GLY320     -0.1942
    155  CA       -13.0270  -34.6040    1.6120 C.3   320  GLY320      0.2014
    156  C        -13.1990  -33.1150    1.3820 C.2   320  GLY320      0.2639
    157  O        -12.2640  -32.4290    0.9700 O.2   320  GLY320     -0.2714
    158  N        -14.4020  -32.6150    1.6480 N.am  321  ASN321     -0.1958
    159  CA       -14.6910  -31.1960    1.4870 C.3   321  ASN321      0.1819
    160  C        -14.1460  -30.3810    2.6560 C.2   321  ASN321      0.2621
    161  O        -14.7760  -30.2880    3.7100 O.2   321  ASN321     -0.2715
    162  CB       -16.1960  -30.9700    1.3340 C.3   321  ASN321      0.1195
    163  CG       -16.5360  -29.5350    0.9830 C.2   321  ASN321      0.2630
    164  OD1      -15.6810  -28.7760    0.5270 O.2   321  ASN321     -0.2716
    165  ND2      -17.7920  -29.1570    1.1900 N.am  321  ASN321     -0.0877
    166  N        -12.9710  -29.7910    2.4600 N.am  322  ILE322     -0.1977
    167  CA       -12.2950  -29.0470    3.5180 C.3   322  ILE322      0.1596
    168  C        -13.1210  -27.8670    4.0220 C.2   322  ILE322      0.2287
    169  O        -12.9010  -27.3760    5.1300 O.2   322  ILE322     -0.2864
    170  CB       -10.9160  -28.5420    3.0560 C.3   322  ILE322      0.0276
    171  CG1      -10.0840  -29.7010    2.5030 C.3   322  ILE322      0.0022
    172  CG2      -10.1880  -27.8530    4.2000 C.3   322  ILE322      0.0022
    173  CD1       -9.8880  -30.8340    3.4870 C.3   322  ILE322      0.0001
@<TRIPOS>BOND
     1   149   148    2
     2   148   147    1
     3   147   146    1
     4   131   130    1
     5   130   129    1
     6   122   121    2
     7    41    40   ar
     8   121   123   am
     9   121   120    1
    10   129   128    1
    11   111   110    2
    12    42    40   ar
    13   128   125    1
    14    40    39    1
    15   120   117    1
    16   117   118    1
    17   117   116    1
    18   124   125    1
    19   124   118   am
    20   127   126    2
    21   110   116   am
    22   110   109    1
    23   125   126    1
    24   118   119    2
    25   126   132   am
    26   108   109    1
    27    39    36    1
    28   109   112    1
    29    35    36    1
    30    36    37    1
    31   134   135    2
    32   134   133    1
    33   132   133    1
    34   133   136    1
    35   112   114    1
    36   112   113    1
    37    51    49   ar
    38    50    49   ar
    39    37    38    2
    40     4     3    2
    41    49    48    1
    42     3     2    1
    43   115   113    1
    44   136   137    1
    45    48    47    1
    46    58    56    1
    47   142   139   ar
    48   142   144   ar
    49   164   163    2
    50   137   139   ar
    51   137   138   ar
    52   139   141   ar
    53    47    44    1
    54     2     5    1
    55     2     1    1
    56     5     6    1
    57   144   145   ar
    58   107   106    1
    59    43    44    1
    60    59    57    1
    61   157   156    2
    62   138   140   ar
    63   163   165   am
    64   163   162    1
    65    56    57    1
    66    56    53    1
    67   141   140   ar
    68   141   143   ar
    69   162   159    1
    70   145   143   ar
    71   156   155    1
    72   156   158   am
    73   159   158    1
    74   159   160    1
    75   155   154    1
    76    44    45    1
    77    52    53    1
    78    52    45   am
    79    94    95   ar
    80    94    92   ar
    81    95    93   ar
    82   106   105   ar
    83   106   104   ar
    84    11     8   ar
    85    11    13   ar
    86     6     8   ar
    87     6     7   ar
    88   105   103   ar
    89    53    54    1
    90    92    90   ar
    91    45    46    2
    92   166   160   am
    93   166   167    1
    94    93    91   ar
    95   171   170    1
    96   171   173    1
    97   104   102   ar
    98     8    10   ar
    99   160   161    2
   100   153   152    2
   101    13    14   ar
   102    90    91   ar
   103    90    89    1
   104   154   152   am
   105   170   167    1
   106   170   172    1
   107    54    55    2
   108   103   101   ar
   109     7     9   ar
   110   152   151    1
   111   102   101   ar
   112   167   168    1
   113    89    86    1
   114   101   100    1
   115    10     9   ar
   116    10    12   ar
   117   168   169    2
   118    14    12   ar
   119    34    32    1
   120    20    19    1
   121    65    64    1
   122   100    97    1
   123   151   150    1
   124    64    61    1
   125    86    85    1
   126    86    87    1
   127    88    87    2
   128    84    82   am
   129    21    19    1
   130    32    33    1
   131    32    29    1
   132    19    16    1
   133    97    96    1
   134    97    98    1
   135    82    81    1
   136    82    83    2
   137    61    60    1
   138    61    62    1
   139    25    24    2
   140    81    78    1
   141    29    28    1
   142    29    30    1
   143    16    17    1
   144    16    15    1
   145    62    66   am
   146    62    63    2
   147    24    28   am
   148    24    23    1
   149    99    98    2
   150    66    67    1
   151    69    68    2
   152    17    22   am
   153    17    18    2
   154    22    23    1
   155    23    26    1
   156    68    67    1
   157    68    77   am
   158    78    77    1
   159    78    79    1
   160    67    70    1
   161    30    31    2
   162    79    80    2
   163    26    27    1
   164    70    71    1
   165    71    72   ar
   166    71    73   ar
   167    72    74   ar
   168    73    75   ar
   169    74    76   ar
   170    75    76   ar
