@<TRIPOS>MOLECULE
tmp/4dvvA00.pdb
 177 174 0 0 0
SMALL
GASTEIGER

@<TRIPOS>ATOM
      1  N         29.3660   -3.4590   46.1790 N.3    69  TRP69      -0.1241
      2  CA        29.9600   -4.7520   46.5230 C.3    69  TRP69       0.1605
      3  C         31.4810   -4.6800   46.5830 C.2    69  TRP69       0.2264
      4  O         32.1080   -5.3500   47.4070 O.2    69  TRP69      -0.2867
      5  CB        29.5170   -5.8310   45.5280 C.3    69  TRP69       0.0550
      6  CG        28.1470   -6.3670   45.8010 C.ar   69  TRP69       0.0003
      7  CD1       26.9960   -5.6470   45.9320 C.ar   69  TRP69       0.0946
      8  CD2       27.7800   -7.7420   45.9650 C.ar   69  TRP69       0.0152
      9  NE1       25.9370   -6.4880   46.1780 N.ar   69  TRP69      -0.2442
     10  CE2       26.3930   -7.7810   46.2030 C.ar   69  TRP69       0.0810
     11  CE3       28.4920   -8.9440   45.9410 C.ar   69  TRP69       0.0012
     12  CZ2       25.7020   -8.9760   46.4090 C.ar   69  TRP69       0.0191
     13  CZ3       27.8070  -10.1270   46.1480 C.ar   69  TRP69       0.0001
     14  CH2       26.4270  -10.1350   46.3780 C.ar   69  TRP69       0.0015
     15  N         20.8320   -9.3280   44.4740 N.3   139  VAL139     -0.1231
     16  CA        21.5830  -10.1400   43.5140 C.3   139  VAL139      0.1692
     17  C         21.2260  -11.6160   43.6680 C.2   139  VAL139      0.2593
     18  O         21.3670  -12.1860   44.7520 O.2   139  VAL139     -0.2718
     19  CB        23.1050   -9.9530   43.6840 C.3   139  VAL139      0.0266
     20  CG1       23.8660  -10.8740   42.7480 C.3   139  VAL139      0.0020
     21  CG2       23.4910   -8.5090   43.4230 C.3   139  VAL139      0.0020
     22  N         20.7520  -12.2330   42.5870 N.am  140  SER140     -0.1938
     23  CA        20.3480  -13.6350   42.6320 C.3   140  SER140      0.2055
     24  C         20.2980  -14.2530   41.2400 C.2   140  SER140      0.2643
     25  O         20.3530  -13.5460   40.2320 O.2   140  SER140     -0.2714
     26  CB        18.9790  -13.7810   43.2990 C.3   140  SER140      0.2130
     27  OG        17.9460  -13.2930   42.4570 O.3   140  SER140     -0.2179
     28  N         20.2040  -15.5790   41.1920 N.am  141  THR141     -0.1950
     29  CA        19.9590  -16.2910   39.9410 C.3   141  THR141      0.1897
     30  C         18.6830  -17.1100   40.0760 C.2   141  THR141      0.2313
     31  O         18.1990  -17.3220   41.1920 O.2   141  THR141     -0.2863
     32  CB        21.1270  -17.2230   39.5700 C.3   141  THR141      0.1794
     33  OG1       21.2580  -18.2560   40.5550 O.3   141  THR141     -0.2208
     34  CG2       22.4250  -16.4400   39.4840 C.3   141  THR141      0.0378
     35  N         26.6630  -25.8840   33.3620 N.3   228  GLY228     -0.1210
     36  CA        27.1720  -24.5570   33.6650 C.3   228  GLY228      0.1956
     37  C         27.6830  -24.4410   35.0880 C.2   228  GLY228      0.2611
     38  O         27.6780  -25.4180   35.8380 O.2   228  GLY228     -0.2717
     39  N         28.1290  -23.2450   35.4610 N.am  229  ASP229     -0.1973
     40  CA        28.6200  -23.0060   36.8120 C.3   229  ASP229      0.1709
     41  C         27.5070  -23.1830   37.8430 C.2   229  ASP229      0.2293
     42  O         26.3230  -23.0710   37.5160 O.2   229  ASP229     -0.2864
     43  CB        29.2410  -21.6090   36.9160 C.3   229  ASP229      0.1436
     44  CG        30.4280  -21.4320   35.9900 C.2   229  ASP229      0.3671
     45  OD1       31.0450  -22.4520   35.6170 O.co2 229  ASP229     -0.2456
     46  OD2       30.7450  -20.2760   35.6330 O.co2 229  ASP229     -0.2456
     47  N         26.5540  -21.3010   40.1260 N.3   231  GLU231     -0.1231
     48  CA        25.7800  -20.0770   40.3010 C.3   231  GLU231      0.1699
     49  C         24.5310  -20.0700   39.4210 C.2   231  GLU231      0.2592
     50  O         23.5440  -19.4120   39.7420 O.2   231  GLU231     -0.2718
     51  CB        26.6450  -18.8440   40.0120 C.3   231  GLU231      0.0402
     52  CG        27.7440  -18.5760   41.0450 C.3   231  GLU231      0.1161
     53  CD        28.9290  -19.5150   40.9170 C.2   231  GLU231      0.3649
     54  OE1       29.0970  -20.1280   39.8420 O.co2 231  GLU231     -0.2457
     55  OE2       29.6970  -19.6400   41.8940 O.co2 231  GLU231     -0.2457
     56  N         24.5720  -20.8270   38.3280 N.am  232  ILE232     -0.1980
     57  CA        23.4700  -20.8640   37.3700 C.3   232  ILE232      0.1595
     58  C         22.5810  -22.0990   37.5360 C.2   232  ILE232      0.2287
     59  O         21.3560  -22.0090   37.4470 O.2   232  ILE232     -0.2864
     60  CB        23.9970  -20.8050   35.9190 C.3   232  ILE232      0.0276
     61  CG1       24.9250  -19.6060   35.7400 C.3   232  ILE232      0.0022
     62  CG2       22.8450  -20.7380   34.9300 C.3   232  ILE232      0.0022
     63  CD1       24.3280  -18.3250   36.2410 C.3   232  ILE232      0.0001
     64  N         21.1280  -19.1580   43.4140 N.3   236  SER236     -0.1202
     65  CA        22.1310  -18.5440   44.2760 C.3   236  SER236      0.2020
     66  C         21.6910  -17.1480   44.6920 C.2   236  SER236      0.2619
     67  O         21.0720  -16.4240   43.9110 O.2   236  SER236     -0.2717
     68  CB        23.4970  -18.4970   43.5870 C.3   236  SER236      0.2103
     69  OG        23.4970  -17.6020   42.4920 O.3   236  SER236     -0.2182
     70  N         21.9990  -16.7820   45.9310 N.am  237  PHE237     -0.1961
     71  CA        21.5860  -15.4990   46.4850 C.3   237  PHE237      0.1771
     72  C         22.4190  -15.1890   47.7160 C.2   237  PHE237      0.2619
     73  O         23.1740  -16.0410   48.1890 O.2   237  PHE237     -0.2715
     74  CB        20.0920  -15.5050   46.8310 C.3   237  PHE237      0.0574
     75  CG        19.6810  -16.6110   47.7580 C.ar  237  PHE237     -0.0200
     76  CD1       19.4420  -17.8860   47.2700 C.ar  237  PHE237     -0.0042
     77  CD2       19.5080  -16.3700   49.1130 C.ar  237  PHE237     -0.0042
     78  CE1       19.0550  -18.9020   48.1120 C.ar  237  PHE237     -0.0003
     79  CE2       19.1210  -17.3840   49.9640 C.ar  237  PHE237     -0.0003
     80  CZ        18.8920  -18.6530   49.4610 C.ar  237  PHE237     -0.0000
     81  N         22.2980  -13.9710   48.2280 N.am  238  ASN238     -0.1972
     82  CA        23.0400  -13.6000   49.4250 C.3   238  ASN238      0.1688
     83  C         22.1140  -13.3030   50.5990 C.2   238  ASN238      0.2292
     84  O         21.2760  -12.4010   50.5320 O.2   238  ASN238     -0.2864
     85  CB        23.9590  -12.4070   49.1490 C.3   238  ASN238      0.1181
     86  CG        24.9680  -12.1860   50.2550 C.2   238  ASN238      0.2629
     87  OD1       24.6020  -11.8240   51.3700 O.2   238  ASN238     -0.2716
     88  ND2       26.2430  -12.3960   49.9520 N.am  238  ASN238     -0.0877
     89  N         26.7730  -16.5100   51.0850 N.3   243  PHE243     -0.1241
     90  CA        26.3510  -16.9450   49.7520 C.3   243  PHE243      0.1605
     91  C         25.6600  -18.3060   49.7730 C.2   243  PHE243      0.2264
     92  O         26.2800  -19.3310   50.0690 O.2   243  PHE243     -0.2867
     93  CB        27.5370  -16.9420   48.7820 C.3   243  PHE243      0.0534
     94  CG        28.0080  -15.5640   48.4130 C.ar  243  PHE243     -0.0203
     95  CD1       27.4210  -14.8780   47.3600 C.ar  243  PHE243     -0.0042
     96  CD2       29.0340  -14.9540   49.1180 C.ar  243  PHE243     -0.0042
     97  CE1       27.8460  -13.6120   47.0170 C.ar  243  PHE243     -0.0003
     98  CE2       29.4660  -13.6860   48.7800 C.ar  243  PHE243     -0.0003
     99  CZ        28.8710  -13.0140   47.7280 C.ar  243  PHE243     -0.0000
    100  N         23.4950  -21.4030   47.9410 N.3   245  TYR245     -0.1241
    101  CA        23.2690  -22.1030   46.6800 C.3   245  TYR245      0.1605
    102  C         22.2280  -23.1880   46.9220 C.2   245  TYR245      0.2264
    103  O         22.4810  -24.1350   47.6700 O.2   245  TYR245     -0.2867
    104  CB        24.5660  -22.7500   46.1820 C.3   245  TYR245      0.0534
    105  CG        25.6130  -21.7850   45.6680 C.ar  245  TYR245     -0.0201
    106  CD1       26.2470  -20.8940   46.5240 C.ar  245  TYR245     -0.0009
    107  CD2       25.9910  -21.7890   44.3310 C.ar  245  TYR245     -0.0009
    108  CE1       27.2070  -20.0210   46.0610 C.ar  245  TYR245      0.0417
    109  CE2       26.9530  -20.9220   43.8600 C.ar  245  TYR245      0.0417
    110  CZ        27.5560  -20.0420   44.7300 C.ar  245  TYR245      0.1957
    111  OH        28.5150  -19.1740   44.2650 O.3   245  TYR245     -0.2866
    112  N         33.2070  -18.5800   45.2640 N.3   271  ILE271     -0.1231
    113  CA        32.1780  -18.2970   44.2640 C.3   271  ILE271      0.1692
    114  C         32.7360  -17.7230   42.9610 C.2   271  ILE271      0.2592
    115  O         33.8200  -17.1350   42.9340 O.2   271  ILE271     -0.2718
    116  CB        31.1060  -17.3130   44.8110 C.3   271  ILE271      0.0266
    117  CG1       31.6340  -15.8750   44.8090 C.3   271  ILE271      0.0019
    118  CG2       30.6390  -17.7190   46.2080 C.3   271  ILE271      0.0020
    119  CD1       30.6140  -14.8510   45.2520 C.3   271  ILE271      0.0001
    120  N         31.9880  -17.9180   41.8790 N.am  272  ASN272     -0.1960
    121  CA        32.2300  -17.1980   40.6400 C.3   272  ASN272      0.1819
    122  C         31.5270  -15.8530   40.7400 C.2   272  ASN272      0.2621
    123  O         30.3160  -15.7980   40.9580 O.2   272  ASN272     -0.2715
    124  CB        31.6990  -17.9910   39.4430 C.3   272  ASN272      0.1195
    125  CG        32.5370  -19.2200   39.1350 C.2   272  ASN272      0.2630
    126  OD1       33.7520  -19.1300   38.9570 O.2   272  ASN272     -0.2716
    127  ND2       31.8890  -20.3770   39.0730 N.am  272  ASN272     -0.0877
    128  N         32.2860  -14.7700   40.6010 N.am  273  MET273     -0.1963
    129  CA        31.7400  -13.4330   40.8120 C.3   273  MET273      0.1736
    130  C         30.7680  -13.0330   39.7000 C.2   273  MET273      0.2616
    131  O         31.0550  -13.2140   38.5150 O.2   273  MET273     -0.2715
    132  CB        32.8700  -12.4010   40.9550 C.3   273  MET273      0.0427
    133  CG        33.8640  -12.7110   42.0760 C.3   273  MET273      0.0599
    134  SD        35.3870  -11.7410   42.0060 S.3   273  MET273     -0.1393
    135  CE        34.9670  -10.3270   43.0230 C.3   273  MET273      0.0692
    136  N         29.6110  -12.5070   40.1000 N.am  274  TRP274     -0.1974
    137  CA        28.5920  -12.0340   39.1650 C.3   274  TRP274      0.1640
    138  C         29.0590  -10.7970   38.4130 C.2   274  TRP274      0.2290
    139  O         28.5780  -10.5090   37.3160 O.2   274  TRP274     -0.2864
    140  CB        27.2770  -11.7510   39.8980 C.3   274  TRP274      0.0576
    141  CG        27.3750  -10.6940   40.9390 C.ar  274  TRP274      0.0006
    142  CD1       27.6410  -10.8700   42.2630 C.ar  274  TRP274      0.0946
    143  CD2       27.1980   -9.2880   40.7480 C.ar  274  TRP274      0.0152
    144  NE1       27.6460   -9.6590   42.9090 N.ar  274  TRP274     -0.2442
    145  CE2       27.3750   -8.6700   41.9990 C.ar  274  TRP274      0.0810
    146  CE3       26.9100   -8.4900   39.6380 C.ar  274  TRP274      0.0012
    147  CZ2       27.2730   -7.2920   42.1720 C.ar  274  TRP274      0.0191
    148  CZ3       26.8080   -7.1260   39.8100 C.ar  274  TRP274      0.0001
    149  CH2       26.9900   -6.5390   41.0650 C.ar  274  TRP274      0.0015
    150  N         31.5640  -10.7810   37.0310 N.3   276  GLY276     -0.1225
    151  CA        32.1310  -11.4470   35.8710 C.3   276  GLY276      0.1811
    152  C         33.6400  -11.3830   35.8170 C.2   276  GLY276      0.2280
    153  O         34.2400  -11.5200   34.7490 O.2   276  GLY276     -0.2866
    154  N         19.6820  -17.3220   34.4270 N.3   319  GLY319     -0.1210
    155  CA        20.1870  -16.0940   35.0120 C.3   319  GLY319      0.1956
    156  C         21.6990  -16.0140   34.9290 C.2   319  GLY319      0.2612
    157  O         22.3230  -16.7250   34.1390 O.2   319  GLY319     -0.2717
    158  N         22.2940  -15.1500   35.7450 N.am  320  GLY320     -0.1942
    159  CA        23.7360  -14.9830   35.7380 C.3   320  GLY320      0.2014
    160  C         24.1700  -13.6430   35.1870 C.2   320  GLY320      0.2639
    161  O         25.2350  -13.1360   35.5420 O.2   320  GLY320     -0.2714
    162  N         23.3570  -13.0810   34.2980 N.am  321  ASN321     -0.1958
    163  CA        23.5170  -11.6860   33.9090 C.3   321  ASN321      0.1819
    164  C         22.6680  -10.8360   34.8420 C.2   321  ASN321      0.2621
    165  O         21.4650  -10.6780   34.6360 O.2   321  ASN321     -0.2715
    166  CB        23.1170  -11.4670   32.4480 C.3   321  ASN321      0.1195
    167  CG        23.3400  -10.0350   31.9880 C.2   321  ASN321      0.2630
    168  OD1       23.8830   -9.2080   32.7250 O.2   321  ASN321     -0.2716
    169  ND2       22.9250   -9.7370   30.7630 N.am  321  ASN321     -0.0877
    170  N         23.3110  -10.2970   35.8720 N.am  322  ILE322     -0.1977
    171  CA        22.6270   -9.5730   36.9390 C.3   322  ILE322      0.1596
    172  C         21.9210   -8.3120   36.4210 C.2   322  ILE322      0.2287
    173  O         21.0280   -7.7730   37.0790 O.2   322  ILE322     -0.2864
    174  CB        23.6180   -9.2450   38.0820 C.3   322  ILE322      0.0276
    175  CG1       24.3020  -10.5260   38.5520 C.3   322  ILE322      0.0022
    176  CG2       22.9180   -8.5960   39.2570 C.3   322  ILE322      0.0022
    177  CD1       23.3300  -11.5980   39.0060 C.3   322  ILE322      0.0001
@<TRIPOS>BOND
     1   169   167   am
     2   167   166    1
     3   167   168    2
     4   166   163    1
     5    35    36    1
     6    36    37    1
     7   163   162    1
     8   163   164    1
     9   157   156    2
    10   162   160   am
    11   154   155    1
    12   165   164    2
    13   153   152    2
    14   164   170   am
    15   156   155    1
    16   156   158   am
    17    62    60    1
    18    37    39   am
    19    37    38    2
    20   160   161    2
    21   160   159    1
    22    39    40    1
    23    45    44   ar
    24    46    44   ar
    25   159   158    1
    26    61    60    1
    27    61    63    1
    28   152   151    1
    29   151   150    1
    30   170   171    1
    31    60    57    1
    32    44    43    1
    33   172   171    1
    34   172   173    2
    35    40    43    1
    36    40    41    1
    37   171   174    1
    38   139   138    2
    39    57    58    1
    40    57    56    1
    41    59    58    2
    42    42    41    2
    43   174   175    1
    44   174   176    1
    45    56    49   am
    46   138   137    1
    47   131   130    2
    48   175   177    1
    49   126   125    2
    50   127   125   am
    51   125   124    1
    52   137   140    1
    53   137   136    1
    54    49    50    2
    55    49    48    1
    56   124   121    1
    57    34    32    1
    58    32    29    1
    59    32    33    1
    60   146   148   ar
    61   146   143   ar
    62   130   136   am
    63   130   129    1
    64   148   149   ar
    65    54    53   ar
    66   140   141    1
    67    29    30    1
    68    29    28    1
    69    51    48    1
    70    51    52    1
    71    30    31    2
    72    47    48    1
    73    25    24    2
    74   128   122   am
    75   128   129    1
    76   121   122    1
    77   121   120    1
    78   122   123    2
    79   143   141   ar
    80   143   145   ar
    81   129   132    1
    82    53    52    1
    83    53    55   ar
    84   141   142   ar
    85   132   133    1
    86   149   147   ar
    87    28    24   am
    88    24    23    1
    89   120   114   am
    90   145   147   ar
    91   145   144   ar
    92   134   133    1
    93   134   135    1
    94   142   144   ar
    95    27    26    1
    96    69    68    1
    97    22    23    1
    98    22    17   am
    99    23    26    1
   100    20    19    1
   101   115   114    2
   102   114   113    1
   103    64    65    1
   104    21    19    1
   105    16    17    1
   106    16    19    1
   107    16    15    1
   108    68    65    1
   109    17    18    2
   110   109   107   ar
   111   109   110   ar
   112    67    66    2
   113   113   116    1
   114   113   112    1
   115   111   110    1
   116    65    66    1
   117   107   105   ar
   118    66    70   am
   119   110   108   ar
   120   117   116    1
   121   117   119    1
   122   116   118    1
   123     5     6    1
   124     5     2    1
   125   105   104    1
   126   105   106   ar
   127     6     7   ar
   128     6     8   ar
   129    70    71    1
   130     7     9   ar
   131    11     8   ar
   132    11    13   ar
   133     8    10   ar
   134   108   106   ar
   135    13    14   ar
   136     9    10   ar
   137     1     2    1
   138   104   101    1
   139    10    12   ar
   140    14    12   ar
   141    71    74    1
   142    71    72    1
   143     2     3    1
   144     3     4    2
   145   101   102    1
   146   101   100    1
   147    74    75    1
   148   102   103    2
   149    97    95   ar
   150    97    99   ar
   151    76    75   ar
   152    76    78   ar
   153    95    94   ar
   154    72    73    2
   155    72    81   am
   156    99    98   ar
   157    75    77   ar
   158    78    80   ar
   159    81    82    1
   160    94    93    1
   161    94    96   ar
   162    98    96   ar
   163    93    90    1
   164    77    79   ar
   165    85    82    1
   166    85    86    1
   167    82    83    1
   168    80    79   ar
   169    90    91    1
   170    90    89    1
   171    91    92    2
   172    88    86   am
   173    86    87    2
   174    84    83    2
