@<TRIPOS>MOLECULE
tmp/4dvwA09.pdb
 173 170 0 0 0
SMALL
GASTEIGER

@<TRIPOS>ATOM
      1  N         29.4080   -3.3510   46.1510 N.3    69  TRP69      -0.1241
      2  CA        29.9920   -4.6420   46.4960 C.3    69  TRP69       0.1605
      3  C         31.5160   -4.5730   46.5940 C.2    69  TRP69       0.2264
      4  O         32.1160   -5.1980   47.4680 O.2    69  TRP69      -0.2867
      5  CB        29.5650   -5.7120   45.4890 C.3    69  TRP69       0.0550
      6  CG        28.2130   -6.2950   45.7760 C.ar   69  TRP69       0.0003
      7  CD1       27.0380   -5.6150   45.9100 C.ar   69  TRP69       0.0946
      8  CD2       27.8980   -7.6810   45.9580 C.ar   69  TRP69       0.0152
      9  NE1       26.0100   -6.4910   46.1700 N.ar   69  TRP69      -0.2442
     10  CE2       26.5110   -7.7640   46.2040 C.ar   69  TRP69       0.0810
     11  CE3       28.6530   -8.8570   45.9410 C.ar   69  TRP69       0.0012
     12  CZ2       25.8670   -8.9800   46.4290 C.ar   69  TRP69       0.0191
     13  CZ3       28.0100  -10.0620   46.1650 C.ar   69  TRP69       0.0001
     14  CH2       26.6310  -10.1140   46.4050 C.ar   69  TRP69       0.0015
     15  N         20.8630   -9.3050   44.4870 N.3   139  VAL139     -0.1231
     16  CA        21.6010  -10.1360   43.5440 C.3   139  VAL139      0.1692
     17  C         21.2540  -11.6100   43.7180 C.2   139  VAL139      0.2593
     18  O         21.3850  -12.1660   44.8080 O.2   139  VAL139     -0.2718
     19  CB        23.1230   -9.9500   43.6980 C.3   139  VAL139      0.0266
     20  CG1       23.8740  -10.9440   42.8270 C.3   139  VAL139      0.0020
     21  CG2       23.5200   -8.5190   43.3530 C.3   139  VAL139      0.0020
     22  N         20.8070  -12.2400   42.6360 N.am  140  SER140     -0.1938
     23  CA        20.4470  -13.6500   42.6740 C.3   140  SER140      0.2055
     24  C         20.3630  -14.2400   41.2720 C.2   140  SER140      0.2643
     25  O         20.3700  -13.5120   40.2780 O.2   140  SER140     -0.2714
     26  CB        19.1040  -13.8340   43.3800 C.3   140  SER140      0.2130
     27  OG        18.0550  -13.2540   42.6240 O.3   140  SER140     -0.2179
     28  N         20.2840  -15.5650   41.2070 N.am  141  THR141     -0.1950
     29  CA        20.0540  -16.2630   39.9490 C.3   141  THR141      0.1897
     30  C         18.7800  -17.0950   40.0460 C.2   141  THR141      0.2313
     31  O         18.2990  -17.3840   41.1430 O.2   141  THR141     -0.2863
     32  CB        21.2300  -17.1870   39.5880 C.3   141  THR141      0.1794
     33  OG1       21.3690  -18.2020   40.5900 O.3   141  THR141     -0.2208
     34  CG2       22.5230  -16.3940   39.4880 C.3   141  THR141      0.0378
     35  N         28.0040  -23.2780   35.3870 N.3   229  ASP229     -0.1239
     36  CA        28.5430  -23.0730   36.7270 C.3   229  ASP229      0.1674
     37  C         27.4590  -23.1870   37.7950 C.2   229  ASP229      0.2266
     38  O         26.2700  -23.0470   37.5080 O.2   229  ASP229     -0.2867
     39  CB        29.2450  -21.7160   36.8280 C.3   229  ASP229      0.1410
     40  CG        30.4950  -21.6420   35.9730 C.2   229  ASP229      0.3668
     41  OD1       31.0900  -22.7040   35.6920 O.co2 229  ASP229     -0.2456
     42  OD2       30.8850  -20.5210   35.5860 O.co2 229  ASP229     -0.2456
     43  N         26.5640  -21.2290   40.0620 N.3   231  GLU231     -0.1231
     44  CA        25.7940  -20.0030   40.2450 C.3   231  GLU231      0.1699
     45  C         24.5400  -19.9950   39.3750 C.2   231  GLU231      0.2592
     46  O         23.5710  -19.2980   39.6740 O.2   231  GLU231     -0.2718
     47  CB        26.6510  -18.7700   39.9440 C.3   231  GLU231      0.0402
     48  CG        27.7550  -18.4990   40.9600 C.3   231  GLU231      0.1161
     49  CD        28.9440  -19.4340   40.8110 C.2   231  GLU231      0.3649
     50  OE1       29.0400  -20.1240   39.7730 O.co2 231  GLU231     -0.2457
     51  OE2       29.7850  -19.4750   41.7330 O.co2 231  GLU231     -0.2457
     52  N         24.5630  -20.7800   38.3020 N.am  232  ILE232     -0.1980
     53  CA        23.4600  -20.8100   37.3480 C.3   232  ILE232      0.1595
     54  C         22.6170  -22.0770   37.4750 C.2   232  ILE232      0.2287
     55  O         21.3910  -22.0280   37.3750 O.2   232  ILE232     -0.2864
     56  CB        23.9710  -20.6970   35.8990 C.3   232  ILE232      0.0276
     57  CG1       25.0020  -19.5730   35.7860 C.3   232  ILE232      0.0022
     58  CG2       22.8120  -20.4770   34.9380 C.3   232  ILE232      0.0022
     59  CD1       24.4990  -18.2380   36.2930 C.3   232  ILE232      0.0001
     60  N         21.2250  -19.1130   43.3640 N.3   236  SER236     -0.1202
     61  CA        22.2230  -18.4790   44.2150 C.3   236  SER236      0.2020
     62  C         21.7680  -17.0890   44.6400 C.2   236  SER236      0.2619
     63  O         21.1540  -16.3590   43.8630 O.2   236  SER236     -0.2717
     64  CB        23.5840  -18.4110   43.5150 C.3   236  SER236      0.2103
     65  OG        23.5530  -17.5190   42.4160 O.3   236  SER236     -0.2182
     66  N         22.0700  -16.7380   45.8840 N.am  237  PHE237     -0.1961
     67  CA        21.6960  -15.4450   46.4380 C.3   237  PHE237      0.1771
     68  C         22.5390  -15.1620   47.6750 C.2   237  PHE237      0.2619
     69  O         23.2530  -16.0390   48.1600 O.2   237  PHE237     -0.2715
     70  CB        20.2040  -15.4220   46.7910 C.3   237  PHE237      0.0574
     71  CG        19.7880  -16.5110   47.7430 C.ar  237  PHE237     -0.0200
     72  CD1       19.4730  -17.7770   47.2760 C.ar  237  PHE237     -0.0042
     73  CD2       19.7070  -16.2670   49.1040 C.ar  237  PHE237     -0.0042
     74  CE1       19.0900  -18.7780   48.1470 C.ar  237  PHE237     -0.0003
     75  CE2       19.3250  -17.2660   49.9820 C.ar  237  PHE237     -0.0003
     76  CZ        19.0170  -18.5230   49.5030 C.ar  237  PHE237     -0.0000
     77  N         22.4600  -13.9380   48.1820 N.am  238  ASN238     -0.1972
     78  CA        23.2000  -13.5760   49.3820 C.3   238  ASN238      0.1688
     79  C         22.2640  -13.2830   50.5460 C.2   238  ASN238      0.2292
     80  O         21.4160  -12.3950   50.4630 O.2   238  ASN238     -0.2864
     81  CB        24.1120  -12.3750   49.1260 C.3   238  ASN238      0.1181
     82  CG        25.0970  -12.1420   50.2580 C.2   238  ASN238      0.2629
     83  OD1       24.7080  -11.8030   51.3770 O.2   238  ASN238     -0.2716
     84  ND2       26.3830  -12.3210   49.9710 N.am  238  ASN238     -0.0877
     85  N         26.7850  -16.4280   51.0450 N.3   243  PHE243     -0.1241
     86  CA        26.3390  -16.8550   49.7220 C.3   243  PHE243      0.1605
     87  C         25.6630  -18.2230   49.7650 C.2   243  PHE243      0.2264
     88  O         26.2940  -19.2290   50.0910 O.2   243  PHE243     -0.2867
     89  CB        27.5100  -16.8730   48.7370 C.3   243  PHE243      0.0534
     90  CG        28.0620  -15.5090   48.4270 C.ar  243  PHE243     -0.0203
     91  CD1       29.0820  -14.9690   49.1930 C.ar  243  PHE243     -0.0042
     92  CD2       27.5620  -14.7680   47.3690 C.ar  243  PHE243     -0.0042
     93  CE1       29.5920  -13.7150   48.9090 C.ar  243  PHE243     -0.0003
     94  CE2       28.0680  -13.5140   47.0800 C.ar  243  PHE243     -0.0003
     95  CZ        29.0830  -12.9870   47.8520 C.ar  243  PHE243     -0.0000
     96  N         23.6260  -21.3650   47.9040 N.3   245  TYR245     -0.1241
     97  CA        23.4040  -22.0790   46.6520 C.3   245  TYR245      0.1605
     98  C         22.3720  -23.1740   46.8840 C.2   245  TYR245      0.2264
     99  O         22.6510  -24.1580   47.5670 O.2   245  TYR245     -0.2867
    100  CB        24.7060  -22.7040   46.1480 C.3   245  TYR245      0.0534
    101  CG        25.7360  -21.7070   45.6700 C.ar  245  TYR245     -0.0201
    102  CD1       26.3530  -20.8350   46.5580 C.ar  245  TYR245     -0.0009
    103  CD2       26.1050  -21.6470   44.3310 C.ar  245  TYR245     -0.0009
    104  CE1       27.2980  -19.9250   46.1260 C.ar  245  TYR245      0.0417
    105  CE2       27.0510  -20.7390   43.8900 C.ar  245  TYR245      0.0417
    106  CZ        27.6440  -19.8810   44.7930 C.ar  245  TYR245      0.1957
    107  OH        28.5870  -18.9750   44.3640 O.3   245  TYR245     -0.2866
    108  N         33.2560  -18.3550   45.2340 N.3   271  ILE271     -0.1231
    109  CA        32.1880  -17.9810   44.3160 C.3   271  ILE271      0.1692
    110  C         32.7120  -17.4650   42.9810 C.2   271  ILE271      0.2592
    111  O         33.7990  -16.8920   42.9080 O.2   271  ILE271     -0.2718
    112  CB        31.2900  -16.8860   44.9310 C.3   271  ILE271      0.0266
    113  CG1       30.5420  -17.4200   46.1550 C.3   271  ILE271      0.0019
    114  CG2       30.3090  -16.3560   43.8990 C.3   271  ILE271      0.0020
    115  CD1       31.4180  -17.6350   47.3660 C.3   271  ILE271      0.0001
    116  N         31.9350  -17.6800   41.9240 N.am  272  ASN272     -0.1960
    117  CA        32.1770  -17.0050   40.6590 C.3   272  ASN272      0.1819
    118  C         31.5090  -15.6360   40.6990 C.2   272  ASN272      0.2621
    119  O         30.2920  -15.5360   40.8440 O.2   272  ASN272     -0.2715
    120  CB        31.6430  -17.8240   39.4830 C.3   272  ASN272      0.1195
    121  CG        32.3830  -19.1350   39.3010 C.2   272  ASN272      0.2630
    122  OD1       33.5370  -19.1550   38.8740 O.2   272  ASN272     -0.2716
    123  ND2       31.7160  -20.2400   39.6170 N.am  272  ASN272     -0.0877
    124  N         32.3110  -14.5840   40.5860 N.am  273  MET273     -0.1963
    125  CA        31.8090  -13.2220   40.7270 C.3   273  MET273      0.1736
    126  C         30.7980  -12.8620   39.6420 C.2   273  MET273      0.2616
    127  O         31.0510  -13.0610   38.4540 O.2   273  MET273     -0.2715
    128  CB        32.9720  -12.2290   40.7280 C.3   273  MET273      0.0427
    129  CG        33.9740  -12.4700   41.8470 C.3   273  MET273      0.0599
    130  SD        35.3350  -11.2880   41.8500 S.3   273  MET273     -0.1393
    131  CE        34.4580   -9.7600   42.1720 C.3   273  MET273      0.0692
    132  N         29.6510  -12.3340   40.0580 N.am  274  TRP274     -0.1974
    133  CA        28.6250  -11.9070   39.1110 C.3   274  TRP274      0.1640
    134  C         29.0960  -10.6890   38.3250 C.2   274  TRP274      0.2290
    135  O         28.5530  -10.3720   37.2690 O.2   274  TRP274     -0.2864
    136  CB        27.3020  -11.6170   39.8240 C.3   274  TRP274      0.0576
    137  CG        27.3920  -10.5460   40.8670 C.ar  274  TRP274      0.0006
    138  CD1       27.6730  -10.7140   42.1910 C.ar  274  TRP274      0.0946
    139  CD2       27.1910   -9.1410   40.6740 C.ar  274  TRP274      0.0152
    140  NE1       27.6650   -9.5010   42.8350 N.ar  274  TRP274     -0.2442
    141  CE2       27.3710   -8.5180   41.9260 C.ar  274  TRP274      0.0810
    142  CE3       26.8790   -8.3480   39.5640 C.ar  274  TRP274      0.0012
    143  CZ2       27.2490   -7.1410   42.0990 C.ar  274  TRP274      0.0191
    144  CZ3       26.7590   -6.9790   39.7380 C.ar  274  TRP274      0.0001
    145  CH2       26.9430   -6.3900   40.9970 C.ar  274  TRP274      0.0015
    146  N         31.6110  -10.7950   36.8850 N.3   276  GLY276     -0.1225
    147  CA        32.2980  -11.4790   35.8040 C.3   276  GLY276      0.1811
    148  C         33.8000  -11.2680   35.8100 C.2   276  GLY276      0.2280
    149  O         34.4290  -11.2080   34.7550 O.2   276  GLY276     -0.2866
    150  N         19.7960  -17.3480   34.4930 N.3   319  GLY319     -0.1210
    151  CA        20.3180  -16.1410   35.1080 C.3   319  GLY319      0.1956
    152  C         21.8240  -16.0570   34.9490 C.2   319  GLY319      0.2612
    153  O         22.4090  -16.7590   34.1250 O.2   319  GLY319     -0.2717
    154  N         22.4560  -15.1990   35.7430 N.am  320  GLY320     -0.1942
    155  CA        23.8980  -15.0380   35.6860 C.3   320  GLY320      0.2014
    156  C         24.3000  -13.6650   35.1870 C.2   320  GLY320      0.2639
    157  O         25.4030  -13.1930   35.4590 O.2   320  GLY320     -0.2714
    158  N         23.4040  -13.0290   34.4390 N.am  321  ASN321     -0.1958
    159  CA        23.5980  -11.6460   34.0250 C.3   321  ASN321      0.1819
    160  C         22.7430  -10.7400   34.8930 C.2   321  ASN321      0.2621
    161  O         21.5640  -10.5240   34.6140 O.2   321  ASN321     -0.2715
    162  CB        23.2490  -11.4580   32.5470 C.3   321  ASN321      0.1195
    163  CG        23.3850  -10.0150   32.0950 C.2   321  ASN321      0.2630
    164  OD1       23.8180   -9.1490   32.8590 O.2   321  ASN321     -0.2716
    165  ND2       23.0220   -9.7490   30.8450 N.am  321  ASN321     -0.0877
    166  N         23.3480  -10.2160   35.9520 N.am  322  ILE322     -0.1977
    167  CA        22.6210   -9.4520   36.9560 C.3   322  ILE322      0.1596
    168  C         21.9160   -8.2260   36.3780 C.2   322  ILE322      0.2287
    169  O         21.0250   -7.6600   37.0140 O.2   322  ILE322     -0.2864
    170  CB        23.5460   -9.0390   38.1180 C.3   322  ILE322      0.0276
    171  CG1       24.2630  -10.2700   38.6690 C.3   322  ILE322      0.0022
    172  CG2       22.7560   -8.3490   39.2140 C.3   322  ILE322      0.0022
    173  CD1       23.3230  -11.4120   39.0150 C.3   322  ILE322      0.0001
@<TRIPOS>BOND
     1   165   163   am
     2   163   162    1
     3   163   164    2
     4   162   159    1
     5   159   158    1
     6   159   160    1
     7   153   152    2
     8   158   156   am
     9   150   151    1
    10   161   160    2
    11   149   148    2
    12   160   166   am
    13    58    56    1
    14   152   151    1
    15   152   154   am
    16   156   157    2
    17   156   155    1
    18    35    36    1
    19    42    40   ar
    20   155   154    1
    21    41    40   ar
    22    57    56    1
    23    57    59    1
    24   147   148    1
    25   147   146    1
    26    56    53    1
    27   166   167    1
    28    40    39    1
    29   168   167    1
    30   168   169    2
    31    36    39    1
    32    36    37    1
    33   167   170    1
    34   135   134    2
    35    53    54    1
    36    53    52    1
    37    55    54    2
    38    38    37    2
    39   170   171    1
    40   170   172    1
    41    52    45   am
    42   134   133    1
    43   127   126    2
    44   171   173    1
    45   122   121    2
    46   133   136    1
    47   133   132    1
    48   121   120    1
    49   121   123   am
    50    45    46    2
    51    45    44    1
    52   120   117    1
    53    34    32    1
    54   142   144   ar
    55   142   139   ar
    56    32    29    1
    57    32    33    1
    58   126   132   am
    59   126   125    1
    60   144   145   ar
    61    50    49   ar
    62   136   137    1
    63    47    44    1
    64    47    48    1
    65    29    30    1
    66    29    28    1
    67    30    31    2
    68    43    44    1
    69    25    24    2
    70   124   118   am
    71   124   125    1
    72   117   118    1
    73   117   116    1
    74   139   137   ar
    75   139   141   ar
    76   118   119    2
    77   125   128    1
    78   128   129    1
    79    49    48    1
    80    49    51   ar
    81   137   138   ar
    82   145   143   ar
    83    28    24   am
    84    24    23    1
    85   129   130    1
    86   130   131    1
    87   116   110   am
    88   141   143   ar
    89   141   140   ar
    90   138   140   ar
    91    65    64    1
    92    27    26    1
    93    22    23    1
    94    22    17   am
    95    23    26    1
    96    20    19    1
    97   111   110    2
    98   110   109    1
    99    21    19    1
   100    60    61    1
   101    64    61    1
   102    16    19    1
   103    16    17    1
   104    16    15    1
   105    17    18    2
   106    63    62    2
   107   105   103   ar
   108   105   106   ar
   109   114   112    1
   110    61    62    1
   111   109   112    1
   112   109   108    1
   113   103   101   ar
   114   107   106    1
   115    62    66   am
   116   106   104   ar
   117   112   113    1
   118     5     6    1
   119     5     2    1
   120   101   100    1
   121   101   102   ar
   122     6     7   ar
   123     6     8   ar
   124    66    67    1
   125     7     9   ar
   126    11     8   ar
   127    11    13   ar
   128     8    10   ar
   129   104   102   ar
   130   100    97    1
   131     1     2    1
   132   113   115    1
   133    13    14   ar
   134     9    10   ar
   135    10    12   ar
   136    14    12   ar
   137    67    70    1
   138    67    68    1
   139     2     3    1
   140     3     4    2
   141    97    98    1
   142    97    96    1
   143    70    71    1
   144    98    99    2
   145    94    92   ar
   146    94    95   ar
   147    72    71   ar
   148    72    74   ar
   149    92    90   ar
   150    68    69    2
   151    68    77   am
   152    71    73   ar
   153    95    93   ar
   154    74    76   ar
   155    77    78    1
   156    90    89    1
   157    90    91   ar
   158    89    86    1
   159    93    91   ar
   160    73    75   ar
   161    81    78    1
   162    81    82    1
   163    78    79    1
   164    76    75   ar
   165    86    87    1
   166    86    85    1
   167    87    88    2
   168    84    82   am
   169    82    83    2
   170    80    79    2
