@<TRIPOS>MOLECULE
tmp/4dvxA11.pdb
 196 193 0 0 0
SMALL
GASTEIGER

@<TRIPOS>ATOM
      1  N         23.5910   -1.7160   37.4360 N.3    62  GLN62      -0.1245
      2  CA        24.5840   -2.7800   37.4490 C.3    62  GLN62       0.1566
      3  C         25.9120   -2.2430   37.9650 C.2    62  GLN62       0.2260
      4  O         26.6230   -2.9180   38.7090 O.2    62  GLN62      -0.2867
      5  CB        24.7710   -3.3470   36.0410 C.3    62  GLN62       0.0367
      6  CG        25.8230   -4.4400   35.9380 C.3    62  GLN62       0.0905
      7  CD        25.3850   -5.7350   36.5910 C.2    62  GLN62       0.2608
      8  OE1       24.3720   -5.7800   37.2910 O.2    62  GLN62      -0.2717
      9  NE2       26.1430   -6.8000   36.3590 N.am   62  GLN62      -0.0878
     10  N         29.3390   -4.0220   45.9920 N.3    69  TRP69      -0.1241
     11  CA        29.9060   -5.3210   46.3380 C.3    69  TRP69       0.1605
     12  C         31.4290   -5.2810   46.4530 C.2    69  TRP69       0.2264
     13  O         32.0170   -6.0140   47.2470 O.2    69  TRP69      -0.2867
     14  CB        29.4720   -6.3820   45.3220 C.3    69  TRP69       0.0550
     15  CG        28.1270   -6.9690   45.6180 C.ar   69  TRP69       0.0003
     16  CD1       26.9620   -6.2880   45.8250 C.ar   69  TRP69       0.0946
     17  CD2       27.8040   -8.3600   45.7330 C.ar   69  TRP69       0.0152
     18  NE1       25.9350   -7.1690   46.0680 N.ar   69  TRP69      -0.2442
     19  CE2       26.4250   -8.4470   46.0160 C.ar   69  TRP69       0.0810
     20  CE3       28.5470   -9.5400   45.6260 C.ar   69  TRP69       0.0012
     21  CZ2       25.7750   -9.6670   46.1920 C.ar   69  TRP69       0.0191
     22  CZ3       27.8980  -10.7510   45.8030 C.ar   69  TRP69       0.0001
     23  CH2       26.5270  -10.8050   46.0830 C.ar   69  TRP69       0.0015
     24  N         20.7190   -9.9350   44.3760 N.3   139  VAL139     -0.1231
     25  CA        21.4370  -10.7590   43.4100 C.3   139  VAL139      0.1692
     26  C         21.1040  -12.2350   43.5980 C.2   139  VAL139      0.2593
     27  O         21.2650  -12.7820   44.6880 O.2   139  VAL139     -0.2718
     28  CB        22.9600  -10.5670   43.5300 C.3   139  VAL139      0.0266
     29  CG1       23.6900  -11.5170   42.5950 C.3   139  VAL139      0.0020
     30  CG2       23.3370   -9.1210   43.2370 C.3   139  VAL139      0.0020
     31  N         20.6400  -12.8750   42.5300 N.am  140  SER140     -0.1938
     32  CA        20.2750  -14.2850   42.5860 C.3   140  SER140      0.2055
     33  C         20.1280  -14.8770   41.1900 C.2   140  SER140      0.2643
     34  O         20.1550  -14.1570   40.1910 O.2   140  SER140     -0.2714
     35  CB        18.9700  -14.4680   43.3610 C.3   140  SER140      0.2130
     36  OG        17.8830  -13.8850   42.6640 O.3   140  SER140     -0.2179
     37  N         19.9700  -16.1950   41.1310 N.am  141  THR141     -0.1950
     38  CA        19.7690  -16.8890   39.8660 C.3   141  THR141      0.1897
     39  C         18.5250  -17.7670   39.9280 C.2   141  THR141      0.2313
     40  O         18.0470  -18.1070   41.0100 O.2   141  THR141     -0.2863
     41  CB        20.9840  -17.7630   39.5020 C.3   141  THR141      0.1794
     42  OG1       21.1730  -18.7670   40.5080 O.3   141  THR141     -0.2208
     43  CG2       22.2400  -16.9120   39.3970 C.3   141  THR141      0.0378
     44  N         27.6770  -24.1070   35.3200 N.3   229  ASP229     -0.1239
     45  CA        28.2380  -23.8820   36.6470 C.3   229  ASP229      0.1674
     46  C         27.1650  -23.9700   37.7270 C.2   229  ASP229      0.2266
     47  O         25.9720  -23.8590   37.4410 O.2   229  ASP229     -0.2867
     48  CB        28.9470  -22.5280   36.7100 C.3   229  ASP229      0.1410
     49  CG        30.1340  -22.4480   35.7700 C.2   229  ASP229      0.3668
     50  OD1       30.7300  -23.5040   35.4700 O.co2 229  ASP229     -0.2456
     51  OD2       30.4730  -21.3290   35.3320 O.co2 229  ASP229     -0.2456
     52  N         26.3140  -21.9300   39.9810 N.3   231  GLU231     -0.1231
     53  CA        25.5560  -20.6930   40.1380 C.3   231  GLU231      0.1699
     54  C         24.3320  -20.6720   39.2270 C.2   231  GLU231      0.2592
     55  O         23.3800  -19.9290   39.4700 O.2   231  GLU231     -0.2718
     56  CB        26.4360  -19.4720   39.8550 C.3   231  GLU231      0.0402
     57  CG        27.5890  -19.2820   40.8310 C.3   231  GLU231      0.1161
     58  CD        28.6960  -20.3000   40.6370 C.2   231  GLU231      0.3649
     59  OE1       28.5660  -21.1590   39.7390 O.co2 231  GLU231     -0.2457
     60  OE2       29.6970  -20.2380   41.3810 O.co2 231  GLU231     -0.2457
     61  N         24.3610  -21.4900   38.1800 N.am  232  ILE232     -0.1980
     62  CA        23.2760  -21.5270   37.2070 C.3   232  ILE232      0.1595
     63  C         22.4030  -22.7680   37.3740 C.2   232  ILE232      0.2287
     64  O         21.1750  -22.6810   37.3480 O.2   232  ILE232     -0.2864
     65  CB        23.8130  -21.4850   35.7630 C.3   232  ILE232      0.0276
     66  CG1       24.7820  -20.3140   35.5880 C.3   232  ILE232      0.0022
     67  CG2       22.6640  -21.3950   34.7690 C.3   232  ILE232      0.0022
     68  CD1       24.1640  -18.9630   35.8700 C.3   232  ILE232      0.0001
     69  N         21.1750  -19.8170   43.2100 N.3   236  SER236     -0.1202
     70  CA        22.1960  -19.1660   44.0210 C.3   236  SER236      0.2020
     71  C         21.7400  -17.7830   44.4690 C.2   236  SER236      0.2619
     72  O         21.1950  -17.0110   43.6800 O.2   236  SER236     -0.2717
     73  CB        23.5140  -19.0650   43.2500 C.3   236  SER236      0.2103
     74  OG        23.3640  -18.2720   42.0870 O.3   236  SER236     -0.2182
     75  N         21.9640  -17.4810   45.7430 N.am  237  PHE237     -0.1961
     76  CA        21.5920  -16.1900   46.3050 C.3   237  PHE237      0.1771
     77  C         22.4100  -15.9080   47.5600 C.2   237  PHE237      0.2619
     78  O         23.0550  -16.8050   48.1030 O.2   237  PHE237     -0.2715
     79  CB        20.0970  -16.1560   46.6290 C.3   237  PHE237      0.0574
     80  CG        19.6760  -17.1730   47.6510 C.ar  237  PHE237     -0.0200
     81  CD1       19.3730  -18.4700   47.2720 C.ar  237  PHE237     -0.0042
     82  CD2       19.5820  -16.8320   48.9890 C.ar  237  PHE237     -0.0042
     83  CE1       18.9840  -19.4080   48.2090 C.ar  237  PHE237     -0.0003
     84  CE2       19.1940  -17.7650   49.9320 C.ar  237  PHE237     -0.0003
     85  CZ        18.8950  -19.0550   49.5410 C.ar  237  PHE237     -0.0000
     86  N         22.3850  -14.6610   48.0160 N.am  238  ASN238     -0.1972
     87  CA        23.1320  -14.2760   49.2070 C.3   238  ASN238      0.1688
     88  C         22.2140  -13.9870   50.3890 C.2   238  ASN238      0.2292
     89  O         21.3020  -13.1660   50.2950 O.2   238  ASN238     -0.2864
     90  CB        24.0260  -13.0690   48.9170 C.3   238  ASN238      0.1181
     91  CG        24.9900  -12.7700   50.0510 C.2   238  ASN238      0.2629
     92  OD1       24.6290  -12.8420   51.2250 O.2   238  ASN238     -0.2716
     93  ND2       26.2280  -12.4380   49.7020 N.am  238  ASN238     -0.0877
     94  N         26.6790  -17.1280   50.9350 N.3   243  PHE243     -0.1241
     95  CA        26.2620  -17.5360   49.5980 C.3   243  PHE243      0.1605
     96  C         25.5780  -18.8980   49.6160 C.2   243  PHE243      0.2264
     97  O         26.1920  -19.9090   49.9570 O.2   243  PHE243     -0.2867
     98  CB        27.4590  -17.5570   48.6440 C.3   243  PHE243      0.0534
     99  CG        28.0240  -16.1960   48.3520 C.ar  243  PHE243     -0.0203
    100  CD1       27.5340  -15.4400   47.3000 C.ar  243  PHE243     -0.0042
    101  CD2       29.0430  -15.6720   49.1290 C.ar  243  PHE243     -0.0042
    102  CE1       28.0500  -14.1870   47.0270 C.ar  243  PHE243     -0.0003
    103  CE2       29.5640  -14.4200   48.8620 C.ar  243  PHE243     -0.0003
    104  CZ        29.0660  -13.6760   47.8090 C.ar  243  PHE243     -0.0000
    105  N         23.5690  -22.0260   47.7410 N.3   245  TYR245     -0.1241
    106  CA        23.3130  -22.7550   46.5050 C.3   245  TYR245      0.1605
    107  C         22.2720  -23.8350   46.7690 C.2   245  TYR245      0.2264
    108  O         22.5440  -24.8090   47.4700 O.2   245  TYR245     -0.2867
    109  CB        24.6020  -23.3860   45.9780 C.3   245  TYR245      0.0534
    110  CG        25.6240  -22.3850   45.4880 C.ar  245  TYR245     -0.0201
    111  CD1       26.2920  -21.5520   46.3770 C.ar  245  TYR245     -0.0009
    112  CD2       25.9270  -22.2790   44.1370 C.ar  245  TYR245     -0.0009
    113  CE1       27.2280  -20.6370   45.9330 C.ar  245  TYR245      0.0417
    114  CE2       26.8620  -21.3680   43.6840 C.ar  245  TYR245      0.0417
    115  CZ        27.5090  -20.5500   44.5850 C.ar  245  TYR245      0.1957
    116  OH        28.4410  -19.6410   44.1380 O.3   245  TYR245     -0.2866
    117  N         33.0670  -18.9590   45.1580 N.3   271  ILE271     -0.1231
    118  CA        31.9970  -18.6100   44.2330 C.3   271  ILE271      0.1692
    119  C         32.5290  -18.0950   42.9010 C.2   271  ILE271      0.2592
    120  O         33.6040  -17.4990   42.8380 O.2   271  ILE271     -0.2718
    121  CB        31.0650  -17.5340   44.8310 C.3   271  ILE271      0.0266
    122  CG1       30.3680  -18.0590   46.0880 C.3   271  ILE271      0.0019
    123  CG2       30.0400  -17.0860   43.8030 C.3   271  ILE271      0.0020
    124  CD1       31.2910  -18.2400   47.2730 C.3   271  ILE271      0.0001
    125  N         31.7690  -18.3390   41.8390 N.am  272  ASN272     -0.1960
    126  CA        32.0460  -17.7320   40.5440 C.3   272  ASN272      0.1819
    127  C         31.4020  -16.3530   40.4840 C.2   272  ASN272      0.2621
    128  O         30.1950  -16.2320   40.2840 O.2   272  ASN272     -0.2715
    129  CB        31.5180  -18.6110   39.4100 C.3   272  ASN272      0.1195
    130  CG        32.2530  -19.9320   39.3050 C.2   272  ASN272      0.2630
    131  OD1       33.4700  -19.9950   39.4840 O.2   272  ASN272     -0.2716
    132  ND2       31.5160  -20.9980   39.0150 N.am  272  ASN272     -0.0877
    133  N         32.2140  -15.3170   40.6690 N.am  273  MET273     -0.1963
    134  CA        31.7130  -13.9490   40.7430 C.3   273  MET273      0.1736
    135  C         30.7530  -13.6150   39.6050 C.2   273  MET273      0.2616
    136  O         31.0330  -13.8930   38.4400 O.2   273  MET273     -0.2715
    137  CB        32.8770  -12.9560   40.7640 C.3   273  MET273      0.0427
    138  CG        33.8450  -13.1680   41.9170 C.3   273  MET273      0.0599
    139  SD        35.1460  -11.9230   41.9780 S.3   273  MET273     -0.1393
    140  CE        34.1840  -10.4410   42.2690 C.3   273  MET273      0.0692
    141  N         29.6170  -13.0190   39.9550 N.am  274  TRP274     -0.1960
    142  CA        28.6210  -12.6240   38.9650 C.3   274  TRP274      0.1771
    143  C         29.0940  -11.4190   38.1600 C.2   274  TRP274      0.2620
    144  O         28.5940  -11.1570   37.0670 O.2   274  TRP274     -0.2715
    145  CB        27.2770  -12.3270   39.6350 C.3   274  TRP274      0.0590
    146  CG        27.3490  -11.2830   40.7060 C.ar  274  TRP274      0.0006
    147  CD1       27.6450  -11.4800   42.0230 C.ar  274  TRP274      0.0946
    148  CD2       27.1160   -9.8780   40.5540 C.ar  274  TRP274      0.0152
    149  NE1       27.6130  -10.2850   42.7000 N.ar  274  TRP274     -0.2442
    150  CE2       27.2900   -9.2850   41.8200 C.ar  274  TRP274      0.0810
    151  CE3       26.7770   -9.0620   39.4690 C.ar  274  TRP274      0.0012
    152  CZ2       27.1380   -7.9160   42.0320 C.ar  274  TRP274      0.0191
    153  CZ3       26.6260   -7.7030   39.6810 C.ar  274  TRP274      0.0001
    154  CH2       26.8060   -7.1440   40.9530 C.ar  274  TRP274      0.0015
    155  N         30.0600  -10.6870   38.7070 N.am  275  GLN275     -0.1963
    156  CA        30.6480   -9.5560   38.0010 C.3   275  GLN275      0.1733
    157  C         31.4160  -10.0420   36.7770 C.2   275  GLN275      0.2616
    158  O         31.8050   -9.2480   35.9200 O.2   275  GLN275     -0.2715
    159  CB        31.5830   -8.7630   38.9180 C.3   275  GLN275      0.0408
    160  CG        30.9220   -8.1900   40.1630 C.3   275  GLN275      0.0908
    161  CD        30.7580   -9.2170   41.2670 C.2   275  GLN275      0.2608
    162  OE1       30.6530  -10.4160   41.0080 O.2   275  GLN275     -0.2717
    163  NE2       30.7440   -8.7500   42.5100 N.am  275  GLN275     -0.0878
    164  N         31.6340  -11.3510   36.7060 N.am  276  GLY276     -0.1955
    165  CA        32.3460  -11.9500   35.5920 C.3   276  GLY276      0.1869
    166  C         33.8440  -11.7330   35.6660 C.2   276  GLY276      0.2309
    167  O         34.5400  -11.7950   34.6520 O.2   276  GLY276     -0.2863
    168  N         22.5580  -15.9430   35.5490 N.3   320  GLY320     -0.1210
    169  CA        23.9620  -15.6350   35.3500 C.3   320  GLY320      0.1956
    170  C         24.1870  -14.1670   35.0490 C.2   320  GLY320      0.2612
    171  O         25.0990  -13.5440   35.5930 O.2   320  GLY320     -0.2717
    172  N         23.3530  -13.6140   34.1750 N.am  321  ASN321     -0.1960
    173  CA        23.4290  -12.1990   33.8400 C.3   321  ASN321      0.1819
    174  C         22.5390  -11.3740   34.7610 C.2   321  ASN321      0.2621
    175  O         21.3440  -11.2170   34.5090 O.2   321  ASN321     -0.2715
    176  CB        23.0430  -11.9680   32.3780 C.3   321  ASN321      0.1195
    177  CG        23.2140  -10.5230   31.9520 C.2   321  ASN321      0.2630
    178  OD1       23.8090   -9.7190   32.6710 O.2   321  ASN321     -0.2716
    179  ND2       22.6980  -10.1870   30.7760 N.am  321  ASN321     -0.0877
    180  N         23.1320  -10.8530   35.8290 N.am  322  ILE322     -0.1963
    181  CA        22.3880  -10.1120   36.8410 C.3   322  ILE322      0.1727
    182  C         21.6470   -8.9120   36.2560 C.2   322  ILE322      0.2616
    183  O         20.7220   -8.3850   36.8730 O.2   322  ILE322     -0.2715
    184  CB        23.3090   -9.6410   37.9830 C.3   322  ILE322      0.0290
    185  CG1       24.1260  -10.8160   38.5220 C.3   322  ILE322      0.0022
    186  CG2       22.4950   -8.9940   39.0930 C.3   322  ILE322      0.0023
    187  CD1       23.2790  -11.9780   38.9990 C.3   322  ILE322      0.0001
    188  N         22.0540   -8.4830   35.0650 N.am  323  LYS323     -0.1977
    189  CA        21.3800   -7.3750   34.3940 C.3   323  LYS323      0.1596
    190  C         19.9060   -7.6920   34.1610 C.2   323  LYS323      0.2287
    191  O         19.0510   -6.8120   34.2560 O.2   323  LYS323     -0.2864
    192  CB        22.0720   -7.0280   33.0740 C.3   323  LYS323      0.0298
    193  CG        23.4160   -6.3390   33.2480 C.3   323  LYS323      0.0038
    194  CD        23.9570   -5.8310   31.9220 C.3   323  LYS323      0.0206
    195  CE        25.2560   -5.0670   32.1170 C.3   323  LYS323      0.1093
    196  NZ        25.7860   -4.5260   30.8360 N.3   323  LYS323     -0.1314
@<TRIPOS>BOND
     1   179   177   am
     2   196   195    1
     3   194   195    1
     4   194   193    1
     5   177   176    1
     6   177   178    2
     7   176   173    1
     8   192   193    1
     9   192   189    1
    10   173   172    1
    11   173   174    1
    12   190   191    2
    13   190   189    1
    14   172   170   am
    15   189   188    1
    16   175   174    2
    17   167   166    2
    18   174   180   am
    19    67    65    1
    20   170   169    1
    21   170   171    2
    22   188   182   am
    23    44    45    1
    24    51    49   ar
    25   169   168    1
    26    50    49   ar
    27    66    65    1
    28    66    68    1
    29   165   166    1
    30   165   164    1
    31    65    62    1
    32    49    48    1
    33   180   181    1
    34   158   157    2
    35     6     5    1
    36     6     7    1
    37     5     2    1
    38   182   181    1
    39   182   183    2
    40     9     7   am
    41     7     8    2
    42    45    48    1
    43    45    46    1
    44   164   157   am
    45   157   156    1
    46   181   184    1
    47   144   143    2
    48    62    63    1
    49    62    61    1
    50    64    63    2
    51     1     2    1
    52    47    46    2
    53     2     3    1
    54     3     4    2
    55   184   185    1
    56   184   186    1
    57   156   155    1
    58   156   159    1
    59   143   155   am
    60   143   142    1
    61    61    54   am
    62   136   135    2
    63   185   187    1
    64   159   160    1
    65   142   145    1
    66   142   141    1
    67   132   130   am
    68    54    55    2
    69    54    53    1
    70   130   129    1
    71   130   131    2
    72    43    41    1
    73   129   126    1
    74   151   153   ar
    75   151   148   ar
    76    41    38    1
    77    41    42    1
    78   135   141   am
    79   135   134    1
    80   145   146    1
    81   153   154   ar
    82    59    58   ar
    83    56    53    1
    84    56    57    1
    85    38    39    1
    86    38    37    1
    87    39    40    2
    88    52    53    1
    89   160   161    1
    90    34    33    2
    91   128   127    2
    92   127   126    1
    93   127   133   am
    94   126   125    1
    95   148   146   ar
    96   148   150   ar
    97    58    57    1
    98    58    60   ar
    99   133   134    1
   100   146   147   ar
   101   134   137    1
   102   137   138    1
   103   154   152   ar
   104   162   161    2
   105    37    33   am
   106    33    32    1
   107   161   163   am
   108   150   152   ar
   109   150   149   ar
   110   125   119   am
   111   138   139    1
   112   139   140    1
   113   147   149   ar
   114    74    73    1
   115    31    32    1
   116    31    26   am
   117    32    35    1
   118    29    28    1
   119    36    35    1
   120   120   119    2
   121   119   118    1
   122    69    70    1
   123    30    28    1
   124    73    70    1
   125    25    28    1
   126    25    26    1
   127    25    24    1
   128    26    27    2
   129    72    71    2
   130   114   112   ar
   131   114   115   ar
   132   123   121    1
   133    70    71    1
   134   112   110   ar
   135   116   115    1
   136   118   121    1
   137   118   117    1
   138    71    75   am
   139   115   113   ar
   140   121   122    1
   141    14    15    1
   142    14    11    1
   143   110   109    1
   144   110   111   ar
   145    15    17   ar
   146    15    16   ar
   147    20    17   ar
   148    20    22   ar
   149    17    19   ar
   150    75    76    1
   151    22    23   ar
   152    16    18   ar
   153   113   111   ar
   154   109   106    1
   155    10    11    1
   156    19    18   ar
   157    19    21   ar
   158    23    21   ar
   159   122   124    1
   160    76    79    1
   161    76    77    1
   162    11    12    1
   163    12    13    2
   164   106   107    1
   165   106   105    1
   166    79    80    1
   167   107   108    2
   168   102   100   ar
   169   102   104   ar
   170    81    80   ar
   171    81    83   ar
   172   100    99   ar
   173    77    86   am
   174    77    78    2
   175    80    82   ar
   176   104   103   ar
   177    86    87    1
   178    83    85   ar
   179    99    98    1
   180    99   101   ar
   181    98    95    1
   182   103   101   ar
   183    90    87    1
   184    90    91    1
   185    82    84   ar
   186    87    88    1
   187    85    84   ar
   188    95    96    1
   189    95    94    1
   190    96    97    2
   191    93    91   am
   192    91    92    2
   193    89    88    2
