@<TRIPOS>MOLECULE
tmp/4dw1A00.pdb
 89 88 0 0 0
SMALL
GASTEIGER

@<TRIPOS>ATOM
      1  N         16.2570  -25.3830   65.3420 N.3   176  ASN176     -0.1225
      2  CA        16.1560  -26.7330   64.7840 C.3   176  ASN176      0.1785
      3  C         15.6260  -26.7870   63.3380 C.2   176  ASN176      0.2597
      4  O         15.6260  -27.8450   62.6970 O.2   176  ASN176     -0.2718
      5  CB        15.2860  -27.6120   65.6810 C.3   176  ASN176      0.1169
      6  CG        14.0370  -26.9020   66.1510 C.2   176  ASN176      0.2627
      7  OD1       14.1020  -25.7660   66.6170 O.2   176  ASN176     -0.2716
      8  ND2       12.8890  -27.5700   66.0370 N.am  176  ASN176     -0.0877
      9  N         15.1320  -25.6540   62.8500 N.am  177  ILE177     -0.1966
     10  CA        14.6990  -25.5190   61.4630 C.3   177  ILE177      0.1727
     11  C         15.9100  -25.3220   60.5540 C.2   177  ILE177      0.2616
     12  O         16.9840  -24.9660   61.0270 O.2   177  ILE177     -0.2715
     13  CB        13.6510  -24.3750   61.3350 C.3   177  ILE177      0.0290
     14  CG1       12.4160  -24.7650   62.1370 C.3   177  ILE177      0.0022
     15  CG2       13.2470  -24.0920   59.8810 C.3   177  ILE177      0.0023
     16  CD1       12.1510  -26.2650   62.1110 C.3   177  ILE177      0.0001
     17  N         15.7400  -25.6130   59.2690 N.am  178  ASN178     -0.1972
     18  CA        16.7440  -25.3370   58.2470 C.3   178  ASN178      0.1688
     19  C         16.0850  -25.0100   56.9040 C.2   178  ASN178      0.2292
     20  O         14.8590  -25.1050   56.7560 O.2   178  ASN178     -0.2864
     21  CB        17.6720  -26.5460   58.0670 C.3   178  ASN178      0.1181
     22  CG        16.9500  -27.8810   58.2490 C.2   178  ASN178      0.2629
     23  OD1       16.3180  -28.4020   57.3260 O.2   178  ASN178     -0.2716
     24  ND2       17.0770  -28.4370   59.4540 N.am  178  ASN178     -0.0877
     25  N         16.0070  -26.7270   53.9690 N.3   180  SER180     -0.1202
     26  CA        15.2520  -27.8140   53.3350 C.3   180  SER180      0.2020
     27  C         13.8380  -27.8510   53.8640 C.2   180  SER180      0.2618
     28  O         12.8230  -27.8920   53.1020 O.2   180  SER180     -0.2717
     29  CB        15.9190  -29.1600   53.6190 C.3   180  SER180      0.2103
     30  OG        17.2430  -29.1660   53.1150 O.3   180  SER180     -0.2182
     31  N         13.7750  -27.8380   55.1900 N.am  181  TYR181     -0.1975
     32  CA        12.4960  -27.9810   55.8420 C.3   181  TYR181      0.1639
     33  C         11.5070  -26.9630   55.2300 C.2   181  TYR181      0.2290
     34  O         10.3480  -27.2830   54.9400 O.2   181  TYR181     -0.2864
     35  CB        12.6570  -27.8260   57.3580 C.3   181  TYR181      0.0560
     36  CG        11.4010  -28.1690   58.1030 C.ar  181  TYR181     -0.0198
     37  CD1       10.8490  -27.2770   59.0020 C.ar  181  TYR181     -0.0009
     38  CD2       10.7300  -29.3680   57.8640 C.ar  181  TYR181     -0.0009
     39  CE1        9.6750  -27.5740   59.6750 C.ar  181  TYR181      0.0417
     40  CE2        9.5570  -29.6780   58.5320 C.ar  181  TYR181      0.0417
     41  CZ         9.0320  -28.7720   59.4390 C.ar  181  TYR181      0.1957
     42  OH         7.8720  -29.0450   60.1270 O.3   181  TYR181     -0.2866
     43  N          9.8260  -27.5820   51.9850 N.3   184  HIS184     -0.1226
     44  CA         8.6640  -28.4990   51.9230 C.3   184  HIS184      0.1752
     45  C          7.5410  -28.2940   52.9500 C.2   184  HIS184      0.2596
     46  O          6.3960  -28.5690   52.6580 O.2   184  HIS184     -0.2718
     47  CB         9.0640  -29.9740   51.7840 C.3   184  HIS184      0.0759
     48  CG         9.4420  -30.6110   53.0770 C.ar  184  HIS184      0.0818
     49  ND1       10.7380  -30.6250   53.5460 N.ar  184  HIS184     -0.2268
     50  CD2        8.6810  -31.2020   54.0280 C.ar  184  HIS184      0.1154
     51  CE1       10.7600  -31.2140   54.7270 C.ar  184  HIS184      0.1986
     52  NE2        9.5220  -31.5690   55.0420 N.ar  184  HIS184     -0.2212
     53  N          7.9040  -28.0610   54.2070 N.am  185  CYS185     -0.1970
     54  CA         6.9550  -28.0310   55.3180 C.3   185  CYS185      0.1712
     55  C          5.7560  -27.0830   55.1580 C.2   185  CYS185      0.2296
     56  O          5.8410  -26.0300   54.5160 O.2   185  CYS185     -0.2864
     57  CB         7.6900  -27.6870   56.6230 C.3   185  CYS185      0.0983
     58  SG         8.0800  -25.8990   56.9010 S.3   185  CYS185     -0.0798
     59  N          0.1510  -31.4030   64.5210 N.3   190  LYS190     -0.1231
     60  CA         0.6580  -32.7590   64.7390 C.3   190  LYS190      0.1693
     61  C          2.0670  -33.0060   64.1780 C.2   190  LYS190      0.2593
     62  O          3.0070  -33.2190   64.9380 O.2   190  LYS190     -0.2718
     63  CB        -0.3110  -33.7820   64.1490 C.3   190  LYS190      0.0285
     64  CG        -1.6310  -33.8410   64.8350 C.3   190  LYS190      0.0035
     65  CD        -1.5780  -34.5130   66.1720 C.3   190  LYS190      0.0206
     66  CE        -2.9750  -34.5700   66.8380 C.3   190  LYS190      0.1093
     67  NZ        -3.4060  -33.3040   67.4490 N.3   190  LYS190     -0.1314
     68  N          2.2060  -33.0260   62.8550 N.am  191  THR191     -0.1939
     69  CA         3.5050  -33.2960   62.2300 C.3   191  THR191      0.2028
     70  C          4.4980  -32.1380   61.9740 C.2   191  THR191      0.2642
     71  O          5.6960  -32.3840   61.8370 O.2   191  THR191     -0.2714
     72  CB         3.3190  -34.0760   60.9240 C.3   191  THR191      0.1808
     73  OG1        2.9240  -33.1720   59.8920 O.3   191  THR191     -0.2208
     74  CG2        2.2380  -35.1150   61.0940 C.3   191  THR191      0.0379
     75  N          4.0320  -30.8920   61.8810 N.am  192  ASP192     -0.1957
     76  CA         4.9450  -29.7740   61.5410 C.3   192  ASP192      0.1825
     77  C          4.7440  -28.5140   62.3780 C.2   192  ASP192      0.2464
     78  O          4.4800  -27.4400   61.8330 O.2   192  ASP192     -0.2730
     79  CB         4.7970  -29.3810   60.0740 C.3   192  ASP192      0.1450
     80  CG         5.2480  -30.4580   59.1370 C.2   192  ASP192      0.3671
     81  OD1        6.4480  -30.5040   58.8260 O.co2 192  ASP192     -0.2456
     82  OD2        4.3970  -31.2500   58.6920 O.co2 192  ASP192     -0.2456
     83  N          4.8970  -28.6280   63.7000 N.am  193  PRO193     -0.2727
     84  CA         4.5310  -27.5210   64.5820 C.3   193  PRO193      0.1402
     85  C          5.4810  -26.3240   64.4890 C.2   193  PRO193      0.2269
     86  O          5.0770  -25.2160   64.8450 O.2   193  PRO193     -0.2865
     87  CB         4.6010  -28.1640   65.9660 C.3   193  PRO193      0.0296
     88  CG         5.6340  -29.2070   65.8280 C.3   193  PRO193      0.0237
     89  CD         5.4990  -29.7490   64.4400 C.3   193  PRO193      0.0939
@<TRIPOS>BOND
     1    47    44    1
     2    47    48    1
     3    44    43    1
     4    44    45    1
     5    46    45    2
     6    45    53   am
     7    48    49   ar
     8    48    50   ar
     9    28    27    2
    10    30    29    1
    11    26    29    1
    12    26    27    1
    13    26    25    1
    14    49    51   ar
    15    27    31   am
    16    50    52   ar
    17    53    54    1
    18    56    55    2
    19    51    52   ar
    20    34    33    2
    21    55    54    1
    22    31    32    1
    23    33    32    1
    24    54    57    1
    25    32    35    1
    26    57    58    1
    27    20    19    2
    28    19    18    1
    29    23    22    2
    30    35    36    1
    31    38    36   ar
    32    38    40   ar
    33    21    18    1
    34    21    22    1
    35    36    37   ar
    36    18    17    1
    37    22    24   am
    38    40    41   ar
    39    82    80   ar
    40    81    80   ar
    41    37    39   ar
    42    80    79    1
    43    17    11   am
    44    41    39   ar
    45    41    42    1
    46    15    13    1
    47    73    72    1
    48    79    76    1
    49    11    12    2
    50    11    10    1
    51    72    74    1
    52    72    69    1
    53    13    10    1
    54    13    14    1
    55    10     9    1
    56    76    75    1
    57    76    77    1
    58    78    77    2
    59    71    70    2
    60    75    70   am
    61    70    69    1
    62    16    14    1
    63    69    68    1
    64    77    83   am
    65     4     3    2
    66     9     3   am
    67    68    61   am
    68     3     2    1
    69    83    89    1
    70    83    84    1
    71    63    60    1
    72    63    64    1
    73    61    60    1
    74    61    62    2
    75    89    88    1
    76    85    84    1
    77    85    86    2
    78    59    60    1
    79    84    87    1
    80     2     1    1
    81     2     5    1
    82    64    65    1
    83     5     6    1
    84    88    87    1
    85     8     6   am
    86     6     7    2
    87    65    66    1
    88    66    67    1
