@<TRIPOS>MOLECULE
tmp/4dw4B00.pdb
 89 88 0 0 0
SMALL
GASTEIGER

@<TRIPOS>ATOM
      1  N        -24.5200  -48.6300   21.2710 N.3     4  ASN4       -0.1240
      2  CA       -23.4100  -49.2990   20.6010 C.3     4  ASN4        0.1653
      3  C        -23.7470  -49.4790   19.1450 C.2     4  ASN4        0.2266
      4  O        -24.8890  -49.7390   18.8110 O.2     4  ASN4       -0.2867
      5  CB       -23.0760  -50.6440   21.2930 C.3     4  ASN4        0.1155
      6  CG       -22.9680  -50.5180   22.8080 C.2     4  ASN4        0.2627
      7  OD1      -22.7210  -49.4160   23.3300 O.2     4  ASN4       -0.2716
      8  ND2      -23.1960  -51.6300   23.5380 N.am    4  ASN4       -0.0877
      9  N        -18.6410  -54.2780   17.6600 N.3    34  ILE34      -0.1245
     10  CA       -19.6970  -53.6930   18.4670 C.3    34  ILE34       0.1561
     11  C        -19.0050  -52.5270   19.1800 C.2    34  ILE34       0.2260
     12  O        -18.1290  -52.7280   20.0340 O.2    34  ILE34      -0.2867
     13  CB       -20.3770  -54.6860   19.4510 C.3    34  ILE34       0.0252
     14  CG1      -20.9520  -55.9070   18.7020 C.3    34  ILE34       0.0019
     15  CG2      -21.4580  -53.9380   20.2800 C.3    34  ILE34       0.0019
     16  CD1      -21.3220  -57.0370   19.5470 C.3    34  ILE34       0.0001
     17  N        -19.0670  -49.1640   21.4850 N.3    36  PRO36      -0.2116
     18  CA       -19.5650  -48.1050   22.3750 C.3    36  PRO36       0.1372
     19  C        -18.8620  -46.7680   22.0060 C.2    36  PRO36       0.2244
     20  O        -17.9690  -46.7650   21.1650 O.2    36  PRO36      -0.2868
     21  CB       -19.1110  -48.5880   23.7540 C.3    36  PRO36       0.0268
     22  CG       -18.8780  -50.0430   23.5850 C.3    36  PRO36       0.0207
     23  CD       -18.2980  -50.1630   22.2350 C.3    36  PRO36       0.0892
     24  N        -14.4820  -51.3080   28.1340 N.3    85  ASN85      -0.1225
     25  CA       -15.9350  -51.2090   28.1160 C.3    85  ASN85       0.1785
     26  C        -16.6450  -52.4120   28.7270 C.2    85  ASN85       0.2597
     27  O        -17.6430  -52.2220   29.4200 O.2    85  ASN85      -0.2718
     28  CB       -16.4060  -50.9210   26.6900 C.3    85  ASN85       0.1169
     29  CG       -15.9550  -49.5840   26.1510 C.2    85  ASN85       0.2627
     30  OD1      -16.0990  -48.5470   26.8000 O.2    85  ASN85      -0.2716
     31  ND2      -15.4250  -49.5640   24.9330 N.am   85  ASN85      -0.0877
     32  N        -16.1570  -53.6500   28.4690 N.am   86  TRP86      -0.1962
     33  CA       -16.7930  -54.8360   29.0460 C.3    86  TRP86       0.1771
     34  C        -16.1230  -55.3220   30.3250 C.2    86  TRP86       0.2620
     35  O        -16.7050  -56.1300   31.0570 O.2    86  TRP86      -0.2715
     36  CB       -16.9330  -55.9620   28.0080 C.3    86  TRP86       0.0590
     37  CG       -18.1690  -55.8240   27.1510 C.ar   86  TRP86       0.0006
     38  CD1      -19.3580  -56.4650   27.3190 C.ar   86  TRP86       0.0946
     39  CD2      -18.3280  -54.9790   26.0040 C.ar   86  TRP86       0.0152
     40  NE1      -20.2610  -56.0540   26.3650 N.ar   86  TRP86      -0.2442
     41  CE2      -19.6510  -55.1470   25.5390 C.ar   86  TRP86       0.0810
     42  CE3      -17.4820  -54.1090   25.3180 C.ar   86  TRP86       0.0012
     43  CZ2      -20.1270  -54.5090   24.3980 C.ar   86  TRP86       0.0191
     44  CZ3      -17.9700  -53.4540   24.2040 C.ar   86  TRP86       0.0001
     45  CH2      -19.2870  -53.6290   23.7780 C.ar   86  TRP86       0.0015
     46  N        -14.8700  -54.8630   30.5660 N.am   87  TYR87      -0.1960
     47  CA       -14.0390  -55.1850   31.7300 C.3    87  TYR87       0.1771
     48  C        -13.5470  -56.6220   31.7890 C.2    87  TYR87       0.2619
     49  O        -12.4770  -56.8660   32.3530 O.2    87  TYR87      -0.2715
     50  CB       -14.6960  -54.7470   33.0500 C.3    87  TYR87       0.0574
     51  CG       -15.2580  -53.3410   32.9990 C.ar   87  TYR87      -0.0198
     52  CD1      -14.4160  -52.2330   32.9010 C.ar   87  TYR87      -0.0009
     53  CD2      -16.6200  -53.1160   33.1120 C.ar   87  TYR87      -0.0009
     54  CE1      -14.9260  -50.9360   32.8730 C.ar   87  TYR87       0.0417
     55  CE2      -17.1450  -51.8290   33.0670 C.ar   87  TYR87       0.0417
     56  CZ       -16.2940  -50.7400   32.9520 C.ar   87  TYR87       0.1957
     57  OH       -16.8220  -49.4700   32.9200 O.3    87  TYR87      -0.2866
     58  N        -14.3620  -57.5780   31.3050 N.am   88  ASN88      -0.1972
     59  CA       -14.0320  -59.0250   31.2960 C.3    88  ASN88       0.1688
     60  C        -14.3470  -59.5990   29.9530 C.2    88  ASN88       0.2292
     61  O        -15.3680  -59.2480   29.3830 O.2    88  ASN88      -0.2864
     62  CB       -14.8070  -59.7620   32.3750 C.3    88  ASN88       0.1181
     63  CG       -14.4170  -59.2970   33.7520 C.2    88  ASN88       0.2629
     64  OD1      -13.2950  -59.5530   34.2230 O.2    88  ASN88      -0.2716
     65  ND2      -15.3190  -58.5770   34.4020 N.am   88  ASN88      -0.0877
     66  N        -15.1560  -62.7350   28.9240 N.3    90  GLU90      -0.1231
     67  CA       -16.2690  -63.6970   28.8530 C.3    90  GLU90       0.1684
     68  C        -17.5750  -63.0420   28.4080 C.2    90  GLU90       0.2434
     69  O        -18.0960  -63.4580   27.3600 O.2    90  GLU90      -0.2733
     70  CB       -16.4290  -64.4970   30.1590 C.3    90  GLU90       0.0402
     71  CG       -17.6450  -65.4060   30.0280 C.3    90  GLU90       0.1161
     72  CD       -18.0770  -66.2820   31.1710 C.2    90  GLU90       0.3649
     73  OE1      -18.6350  -67.3530   30.8460 O.co2  90  GLU90      -0.2457
     74  OE2      -17.9370  -65.8970   32.3530 O.co2  90  GLU90      -0.2457
     75  N        -18.1040  -61.9970   29.1060 N.am   91  PRO91      -0.2729
     76  CA       -19.3480  -61.3650   28.6110 C.3    91  PRO91       0.1401
     77  C        -19.2020  -60.7610   27.2050 C.2    91  PRO91       0.2269
     78  O        -20.1920  -60.7240   26.4640 O.2    91  PRO91      -0.2865
     79  CB       -19.6600  -60.2970   29.6760 C.3    91  PRO91       0.0296
     80  CG       -18.3930  -60.0450   30.3900 C.3    91  PRO91       0.0237
     81  CD       -17.6300  -61.3450   30.3460 C.3    91  PRO91       0.0939
     82  N        -21.4410  -61.8480   23.8130 N.3    95  LEU95      -0.1245
     83  CA       -22.1650  -60.8430   23.0140 C.3    95  LEU95       0.1561
     84  C        -21.7300  -60.9100   21.5570 C.2    95  LEU95       0.2260
     85  O        -22.5750  -60.8470   20.6570 O.2    95  LEU95      -0.2867
     86  CB       -21.9550  -59.4100   23.5840 C.3    95  LEU95       0.0270
     87  CG       -22.7040  -58.2600   22.8360 C.3    95  LEU95       0.0019
     88  CD1      -24.2480  -58.4980   22.8230 C.3    95  LEU95       0.0001
     89  CD2      -22.4300  -56.9390   23.4840 C.3    95  LEU95       0.0001
@<TRIPOS>BOND
     1     9    10    1
     2    10    11    1
     3    10    13    1
     4    14    13    1
     5    14    16    1
     6     4     3    2
     7     3     2    1
     8    11    12    2
     9    13    15    1
    10     2     1    1
    11     2     5    1
    12    85    84    2
    13    20    19    2
    14     5     6    1
    15    17    23    1
    16    17    18    1
    17    84    83    1
    18    19    18    1
    19    23    22    1
    20    18    21    1
    21     6     7    2
    22     6     8   am
    23    88    87    1
    24    87    89    1
    25    87    86    1
    26    83    86    1
    27    83    82    1
    28    22    21    1
    29    45    44   ar
    30    45    43   ar
    31    44    42   ar
    32    43    41   ar
    33    31    29   am
    34    42    39   ar
    35    41    39   ar
    36    41    40   ar
    37    39    37   ar
    38    29    28    1
    39    29    30    2
    40    40    38   ar
    41    78    77    2
    42    28    25    1
    43    37    38   ar
    44    37    36    1
    45    77    76    1
    46    69    68    2
    47    36    33    1
    48    25    24    1
    49    25    26    1
    50    68    67    1
    51    68    75   am
    52    32    26   am
    53    32    33    1
    54    76    75    1
    55    76    79    1
    56    26    27    2
    57    67    66    1
    58    67    70    1
    59    33    34    1
    60    75    81    1
    61    61    60    2
    62    79    80    1
    63    60    59    1
    64    71    70    1
    65    71    72    1
    66    34    46   am
    67    34    35    2
    68    81    80    1
    69    46    47    1
    70    73    72   ar
    71    72    74   ar
    72    59    58    1
    73    59    62    1
    74    58    48   am
    75    47    48    1
    76    47    50    1
    77    48    49    2
    78    62    63    1
    79    54    52   ar
    80    54    56   ar
    81    52    51   ar
    82    57    56    1
    83    56    55   ar
    84    51    50    1
    85    51    53   ar
    86    55    53   ar
    87    63    64    2
    88    63    65   am
