@<TRIPOS>MOLECULE
tmp/4dw4B01.pdb
 76 72 0 0 0
SMALL
GASTEIGER

@<TRIPOS>ATOM
      1  N        -20.7630  -60.1680    1.8770 N.3    11  GLN11      -0.1245
      2  CA       -20.0730  -60.8130    0.7780 C.3    11  GLN11       0.1566
      3  C        -20.1640  -59.9850   -0.4850 C.2    11  GLN11       0.2260
      4  O        -21.1950  -59.3470   -0.7460 O.2    11  GLN11      -0.2867
      5  CB       -20.6730  -62.1930    0.5220 C.3    11  GLN11       0.0367
      6  CG       -22.1470  -62.1690    0.1020 C.3    11  GLN11       0.0905
      7  CD       -22.4650  -63.2440   -0.9030 C.2    11  GLN11       0.2608
      8  OE1      -22.1830  -64.4400   -0.6770 O.2    11  GLN11      -0.2717
      9  NE2      -23.1260  -62.8450   -1.9950 N.am   11  GLN11      -0.0878
     10  N        -19.4340  -69.1090    1.1750 N.3    26  GLY26      -0.1210
     11  CA       -20.8800  -68.9700    1.3120 C.3    26  GLY26       0.1956
     12  C        -21.3270  -68.2430    2.5730 C.2    26  GLY26       0.2612
     13  O        -22.3570  -68.5840    3.1490 O.2    26  GLY26      -0.2717
     14  N        -20.5600  -67.2400    3.0040 N.am   27  VAL27      -0.1965
     15  CA       -20.9030  -66.4480    4.1780 C.3    27  VAL27       0.1727
     16  C        -21.5060  -65.1290    3.7050 C.2    27  VAL27       0.2616
     17  O        -20.8900  -64.4270    2.9150 O.2    27  VAL27      -0.2715
     18  CB       -19.6850  -66.2360    5.1310 C.3    27  VAL27       0.0290
     19  CG1      -20.0700  -65.3570    6.2970 C.3    27  VAL27       0.0023
     20  CG2      -19.1170  -67.5600    5.6390 C.3    27  VAL27       0.0023
     21  N        -22.6950  -64.8010    4.1720 N.am   28  ASN28      -0.1958
     22  CA       -23.3800  -63.5660    3.8450 C.3    28  ASN28       0.1819
     23  C        -22.9770  -62.3620    4.6900 C.2    28  ASN28       0.2621
     24  O        -22.7900  -61.2860    4.1410 O.2    28  ASN28      -0.2715
     25  CB       -24.8930  -63.7630    3.8580 C.3    28  ASN28       0.1195
     26  CG       -25.4210  -64.4150    2.6070 C.2    28  ASN28       0.2630
     27  OD1      -24.8320  -64.3140    1.5420 O.2    28  ASN28      -0.2716
     28  ND2      -26.5510  -65.0940    2.6860 N.am   28  ASN28      -0.0877
     29  N        -22.8960  -62.5330    6.0260 N.am   29  ARG29      -0.1977
     30  CA       -22.6070  -61.4660    6.9590 C.3    29  ARG29       0.1597
     31  C        -21.6060  -61.9660    7.9920 C.2    29  ARG29       0.2287
     32  O        -21.8010  -63.0290    8.5750 O.2    29  ARG29      -0.2864
     33  CB       -23.9020  -61.0090    7.6550 C.3    29  ARG29       0.0334
     34  CG       -24.8630  -60.2810    6.7300 C.3    29  ARG29       0.0492
     35  CD       -26.2640  -60.0260    7.2930 C.3    29  ARG29       0.2205
     36  NE       -27.0660  -59.3280    6.2780 N.pl3  29  ARG29      -0.0865
     37  CZ       -27.6210  -59.9020    5.2160 C.cat  29  ARG29       0.5346
     38  NH1      -27.5860  -61.2190    5.0690 N.pl3  29  ARG29       0.1354
     39  NH2      -28.2580  -59.1690    4.3170 N.pl3  29  ARG29       0.1354
     40  N        -25.8820  -64.4220   11.0710 N.3   104  THR104     -0.1203
     41  CA       -25.8800  -65.6460   10.2370 C.3   104  THR104      0.1994
     42  C        -27.3090  -66.0610    9.7990 C.2   104  THR104      0.2618
     43  O        -27.4620  -66.6690    8.7410 O.2   104  THR104     -0.2717
     44  CB       -25.0540  -66.7570   10.9130 C.3   104  THR104      0.1784
     45  OG1      -23.7010  -66.3070   11.0600 O.3   104  THR104     -0.2211
     46  CG2      -25.0520  -68.0480   10.1320 C.3   104  THR104      0.0376
     47  N        -28.3510  -65.6850   10.5770 N.am  105  GLU105     -0.1965
     48  CA       -29.7560  -65.9900   10.2410 C.3   105  GLU105      0.1733
     49  C        -30.2660  -65.3010    8.9540 C.2   105  GLU105      0.2616
     50  O        -31.2420  -65.7300    8.3590 O.2   105  GLU105     -0.2715
     51  CB       -30.6770  -65.6140   11.4070 C.3   105  GLU105      0.0429
     52  CG       -30.5050  -66.4880   12.6320 C.3   105  GLU105      0.1163
     53  CD       -31.6130  -66.2610   13.6390 C.2   105  GLU105      0.3649
     54  OE1      -31.3350  -66.2690   14.8610 O.co2 105  GLU105     -0.2457
     55  OE2      -32.7640  -66.0470   13.1970 O.co2 105  GLU105     -0.2457
     56  N        -29.6200  -64.2250    8.5560 N.am  106  GLY106     -0.1955
     57  CA       -29.9960  -63.4720    7.3720 C.3   106  GLY106      0.1869
     58  C        -30.0920  -61.9960    7.6710 C.2   106  GLY106      0.2309
     59  O        -29.5080  -61.4990    8.6440 O.2   106  GLY106     -0.2863
     60  N        -25.7410  -58.3920    0.3220 N.3   149  ALA149     -0.1231
     61  CA       -25.5180  -59.8400    0.1820 C.3   149  ALA149      0.1694
     62  C        -26.7140  -60.4970   -0.5860 C.2   149  ALA149      0.2593
     63  O        -27.3650  -61.4280   -0.1010 O.2   149  ALA149     -0.2718
     64  CB       -25.2830  -60.4910    1.5440 C.3   149  ALA149      0.0304
     65  N        -27.0210  -59.9200   -1.7450 N.am  150  GLY150     -0.1942
     66  CA       -28.0910  -60.3910   -2.6190 C.3   150  GLY150      0.2014
     67  C        -29.4700  -59.7680   -2.4540 C.2   150  GLY150      0.2638
     68  O        -30.3070  -59.9240   -3.3400 O.2   150  GLY150     -0.2714
     69  N        -29.7470  -59.1120   -1.3160 N.am  151  ILE151     -0.1977
     70  CA       -31.0440  -58.4880   -1.0540 C.3   151  ILE151      0.1596
     71  C        -31.0520  -57.0840   -1.6160 C.2   151  ILE151      0.2287
     72  O        -30.2160  -56.2510   -1.2420 O.2   151  ILE151     -0.2864
     73  CB       -31.4280  -58.5340    0.4460 C.3   151  ILE151      0.0276
     74  CG1      -31.4960  -59.9880    0.9290 C.3   151  ILE151      0.0022
     75  CG2      -32.7530  -57.7970    0.7040 C.3   151  ILE151      0.0022
     76  CD1      -31.4520  -60.1260    2.3670 C.3   151  ILE151      0.0001
@<TRIPOS>BOND
     1    68    67    2
     2    66    67    1
     3    66    65    1
     4    67    69   am
     5     9     7   am
     6    65    62   am
     7    71    72    2
     8    71    70    1
     9    69    70    1
    10    70    73    1
    11     7     8    2
    12     7     6    1
    13     4     3    2
    14    62    63    2
    15    62    61    1
    16     3     2    1
    17     6     5    1
    18    61    60    1
    19    61    64    1
    20    73    75    1
    21    73    74    1
    22     5     2    1
    23     2     1    1
    24    74    76    1
    25    10    11    1
    26    11    12    1
    27    27    26    2
    28    12    14   am
    29    12    13    2
    30    26    28   am
    31    26    25    1
    32    17    16    2
    33    14    15    1
    34    16    21   am
    35    16    15    1
    36    22    25    1
    37    22    21    1
    38    22    23    1
    39    24    23    2
    40    15    18    1
    41    39    37    1
    42    23    29   am
    43    38    37    1
    44    18    20    1
    45    18    19    1
    46    37    36    2
    47    29    30    1
    48    36    35    1
    49    34    35    1
    50    34    33    1
    51    30    33    1
    52    30    31    1
    53    57    58    1
    54    57    56    1
    55    58    59    2
    56    31    32    2
    57    50    49    2
    58    56    49   am
    59    43    42    2
    60    49    48    1
    61    42    41    1
    62    42    47   am
    63    46    44    1
    64    41    44    1
    65    41    40    1
    66    48    47    1
    67    48    51    1
    68    44    45    1
    69    51    52    1
    70    52    53    1
    71    55    53   ar
    72    53    54   ar
