@<TRIPOS>MOLECULE
tmp/4dw4B05.pdb
 113 108 0 0 0
SMALL
GASTEIGER

@<TRIPOS>ATOM
      1  N        -21.4690  -53.2290   13.4940 N.3     7  GLN7       -0.1245
      2  CA       -21.1460  -53.1650   12.0660 C.3     7  GLN7        0.1566
      3  C        -20.6530  -54.5260   11.5860 C.2     7  GLN7        0.2260
      4  O        -20.0000  -55.2530   12.3370 O.2     7  GLN7       -0.2867
      5  CB       -20.0810  -52.0760   11.7910 C.3     7  GLN7        0.0367
      6  CG       -19.7290  -51.8530   10.2780 C.3     7  GLN7        0.0905
      7  CD       -19.1950  -50.4720   10.0200 C.2     7  GLN7        0.2608
      8  OE1      -19.6980  -49.4830   10.5590 O.2     7  GLN7       -0.2717
      9  NE2      -18.1180  -50.3870    9.2480 N.am    7  GLN7       -0.0878
     10  N        -17.9580  -57.2700   12.2680 N.3    32  HIS32      -0.1241
     11  CA       -16.7490  -56.4400   12.2680 C.3    32  HIS32       0.1621
     12  C        -16.4870  -55.9870   13.7010 C.2    32  HIS32       0.2264
     13  O        -15.4050  -56.2340   14.2240 O.2    32  HIS32      -0.2867
     14  CB       -16.8610  -55.2520   11.2970 C.3    32  HIS32       0.0745
     15  CG       -15.6020  -54.4350   11.1330 C.ar   32  HIS32       0.0817
     16  ND1      -15.4710  -53.5290   10.1060 N.ar   32  HIS32      -0.2268
     17  CD2      -14.4830  -54.3890   11.8870 C.ar   32  HIS32       0.1154
     18  CE1      -14.2770  -52.9700   10.2590 C.ar   32  HIS32       0.1986
     19  NE2      -13.6620  -53.4260   11.3350 N.ar   32  HIS32      -0.2212
     20  N        -19.3610  -51.3210   18.7950 N.3    35  TRP35      -0.1241
     21  CA       -18.6750  -50.1300   19.2540 C.3    35  TRP35       0.1605
     22  C        -19.3700  -49.1410   20.1690 C.2    35  TRP35       0.2264
     23  O        -20.0620  -48.2560   19.6860 O.2    35  TRP35      -0.2867
     24  CB       -18.0860  -49.3810   18.0450 C.3    35  TRP35       0.0550
     25  CG       -17.3180  -50.2290   17.0560 C.ar   35  TRP35       0.0003
     26  CD1      -16.4080  -51.2050   17.3330 C.ar   35  TRP35       0.0946
     27  CD2      -17.3320  -50.0910   15.6350 C.ar   35  TRP35       0.0152
     28  NE1      -15.8990  -51.7230   16.1580 N.ar   35  TRP35      -0.2442
     29  CE2      -16.4460  -51.0540   15.1060 C.ar   35  TRP35       0.0810
     30  CE3      -18.0640  -49.2950   14.7510 C.ar   35  TRP35       0.0012
     31  CZ2      -16.2210  -51.1970   13.7420 C.ar   35  TRP35       0.0191
     32  CZ3      -17.8000  -49.4020   13.3840 C.ar   35  TRP35       0.0001
     33  CH2      -16.8990  -50.3600   12.8980 C.ar   35  TRP35       0.0015
     34  N        -13.4760  -45.4550   23.0510 N.3    39  ILE39      -0.1245
     35  CA       -12.4280  -46.2350   22.3960 C.3    39  ILE39       0.1561
     36  C        -11.3330  -46.4460   23.4730 C.2    39  ILE39       0.2260
     37  O        -10.9830  -45.4920   24.2130 O.2    39  ILE39      -0.2867
     38  CB       -11.9000  -45.5970   21.0860 C.3    39  ILE39       0.0252
     39  CG1      -12.8840  -45.8520   19.9380 C.3    39  ILE39       0.0019
     40  CG2      -10.4730  -46.0830   20.7320 C.3    39  ILE39       0.0019
     41  CD1      -12.5510  -45.1990   18.5480 C.3    39  ILE39       0.0001
     42  N         -7.9150  -57.1980   17.6290 N.3    76  HIS76      -0.1226
     43  CA        -7.9460  -55.7510   17.3840 C.3    76  HIS76       0.1752
     44  C         -9.2380  -55.1620   18.0060 C.2    76  HIS76       0.2595
     45  O         -9.1770  -54.2090   18.7640 O.2    76  HIS76      -0.2718
     46  CB        -7.8550  -55.4840   15.8610 C.3    76  HIS76       0.0759
     47  CG        -8.1560  -54.0650   15.4970 C.ar   76  HIS76       0.0818
     48  ND1       -7.2660  -53.0500   15.7720 N.ar   76  HIS76      -0.2268
     49  CD2       -9.2770  -53.5250   14.9620 C.ar   76  HIS76       0.1154
     50  CE1       -7.8480  -51.9290   15.3730 C.ar   76  HIS76       0.1986
     51  NE2       -9.0570  -52.1630   14.8770 N.ar   76  HIS76      -0.2212
     52  N        -10.3790  -55.8310   17.8100 N.am   77  GLU77      -0.1979
     53  CA       -11.6620  -55.4210   18.3950 C.3    77  GLU77       0.1602
     54  C        -11.6760  -55.4270   19.9120 C.2    77  GLU77       0.2287
     55  O        -12.1740  -54.4810   20.5340 O.2    77  GLU77      -0.2864
     56  CB       -12.8110  -56.2550   17.8150 C.3    77  GLU77       0.0415
     57  CG       -13.0170  -55.9780   16.3440 C.3    77  GLU77       0.1163
     58  CD       -13.2500  -54.5240   15.9980 C.2    77  GLU77       0.3649
     59  OE1      -14.0310  -53.8410   16.7080 O.co2  77  GLU77      -0.2457
     60  OE2      -12.6750  -54.0820   14.9790 O.co2  77  GLU77      -0.2457
     61  N         -9.1220  -52.3760   21.0230 N.3    80  LYS80      -0.1231
     62  CA        -9.5860  -51.0400   20.7290 C.3    80  LYS80       0.1693
     63  C        -10.9790  -50.7600   21.2940 C.2    80  LYS80       0.2592
     64  O        -11.2690  -49.5940   21.6040 O.2    80  LYS80      -0.2718
     65  CB        -9.5790  -50.8450   19.1850 C.3    80  LYS80       0.0285
     66  CG        -9.6670  -49.3900   18.7690 C.3    80  LYS80       0.0035
     67  CD        -9.7640  -49.2630   17.2820 C.3    80  LYS80       0.0206
     68  CE       -10.0990  -47.8580   16.8830 C.3    80  LYS80       0.1093
     69  NZ       -10.0070  -47.6710   15.4130 N.3    80  LYS80      -0.1314
     70  N        -11.8870  -51.7920   21.3360 N.am   81  HIS81      -0.1976
     71  CA       -13.2540  -51.5140   21.7750 C.3    81  HIS81       0.1656
     72  C        -13.8060  -52.3230   22.9100 C.2    81  HIS81       0.2291
     73  O        -14.9120  -52.0200   23.3720 O.2    81  HIS81      -0.2864
     74  CB       -14.2070  -51.6590   20.5960 C.3    81  HIS81       0.0771
     75  CG       -13.8530  -50.8370   19.4020 C.ar   81  HIS81       0.0820
     76  ND1      -14.1600  -49.4890   19.3390 N.ar   81  HIS81      -0.2267
     77  CD2      -13.2000  -51.1940   18.2730 C.ar   81  HIS81       0.1154
     78  CE1      -13.7010  -49.0740   18.1650 C.ar   81  HIS81       0.1986
     79  NE2      -13.1400  -50.0660   17.4780 N.ar   81  HIS81      -0.2212
     80  N        -22.8480  -48.8150    4.8250 N.3   114  VAL114     -0.1245
     81  CA       -21.7110  -48.0160    5.3020 C.3   114  VAL114      0.1561
     82  C        -20.7830  -47.7860    4.1100 C.2   114  VAL114      0.2260
     83  O        -20.4760  -46.6510    3.7730 O.2   114  VAL114     -0.2867
     84  CB       -20.9630  -48.6710    6.4800 C.3   114  VAL114      0.0252
     85  CG1      -19.7970  -47.7810    6.9310 C.3   114  VAL114      0.0019
     86  CG2      -21.9130  -48.9050    7.6500 C.3   114  VAL114      0.0019
     87  N        -19.9900  -53.2660    3.6790 N.3   129  GLN129     -0.1245
     88  CA       -20.1050  -53.1380    5.1400 C.3   129  GLN129      0.1566
     89  C        -21.4140  -52.4440    5.4860 C.2   129  GLN129      0.2260
     90  O        -21.8230  -51.5220    4.7790 O.2   129  GLN129     -0.2867
     91  CB       -18.9300  -52.4200    5.8370 C.3   129  GLN129      0.0367
     92  CG       -17.6650  -53.2660    5.9040 C.3   129  GLN129      0.0905
     93  CD       -16.7200  -52.7660    6.9620 C.2   129  GLN129      0.2608
     94  OE1      -16.9820  -52.8160    8.1770 O.2   129  GLN129     -0.2717
     95  NE2      -15.6190  -52.2360    6.5200 N.am  129  GLN129     -0.0878
     96  N        -24.2870  -51.4750    9.1050 N.3   131  ARG131     -0.1245
     97  CA       -24.4500  -51.3050   10.5450 C.3   131  ARG131      0.1563
     98  C        -25.9160  -51.1430   10.9000 C.2   131  ARG131      0.2260
     99  O        -26.7780  -51.1120   10.0220 O.2   131  ARG131     -0.2867
    100  CB       -23.6190  -50.1150   11.0840 C.3   131  ARG131      0.0307
    101  CG       -23.9770  -48.7820   10.4460 C.3   131  ARG131      0.0489
    102  CD       -23.4050  -47.6400   11.2020 C.3   131  ARG131      0.2205
    103  NE       -21.9480  -47.6550   11.1400 N.pl3 131  ARG131     -0.0865
    104  CZ       -21.1920  -46.6810   11.6090 C.cat 131  ARG131      0.5346
    105  NH1      -21.7490  -45.5800   12.1090 N.pl3 131  ARG131      0.1354
    106  NH2      -19.8780  -46.7870   11.5740 N.pl3 131  ARG131      0.1354
    107  N        -19.8150  -44.3240    1.8130 N.3   138  THR138     -0.1218
    108  CA       -18.5030  -44.3640    1.1500 C.3   138  THR138      0.1862
    109  C        -18.5890  -45.3470   -0.0060 C.2   138  THR138      0.2287
    110  O        -18.9600  -46.5020    0.1840 O.2   138  THR138     -0.2866
    111  CB       -17.3990  -44.7610    2.1430 C.3   138  THR138      0.1770
    112  OG1      -17.5150  -43.9770    3.3230 O.3   138  THR138     -0.2211
    113  CG2      -15.9920  -44.6000    1.5740 C.3   138  THR138      0.0375
@<TRIPOS>BOND
     1   109   110    2
     2   109   108    1
     3   108   107    1
     4   108   111    1
     5   113   111    1
     6   111   112    1
     7    87    88    1
     8    83    82    2
     9    82    81    1
    10    90    89    2
    11    80    81    1
    12    88    89    1
    13    88    91    1
    14    81    84    1
    15    91    92    1
    16    92    93    1
    17    84    85    1
    18    84    86    1
    19    95    93   am
    20    93    94    2
    21    96    97    1
    22     9     7   am
    23     7     6    1
    24     7     8    2
    25    99    98    2
    26    16    18   ar
    27    16    15   ar
    28    18    19   ar
    29     6     5    1
    30   101   100    1
    31   101   102    1
    32    97    98    1
    33    97   100    1
    34    15    14    1
    35    15    17   ar
    36   103   102    1
    37   103   104    2
    38    14    11    1
    39    19    17   ar
    40   106   104    1
    41     3     2    1
    42     3     4    2
    43   104   105    1
    44     5     2    1
    45     2     1    1
    46    10    11    1
    47    11    12    1
    48    33    32   ar
    49    33    31   ar
    50    32    30   ar
    51    12    13    2
    52    31    29   ar
    53    30    27   ar
    54    51    49   ar
    55    51    50   ar
    56    49    47   ar
    57    60    58   ar
    58    29    27   ar
    59    29    28   ar
    60    50    48   ar
    61    69    68    1
    62    47    48   ar
    63    47    46    1
    64    27    25   ar
    65    46    43    1
    66    58    57    1
    67    58    59   ar
    68    28    26   ar
    69    57    56    1
    70    68    67    1
    71    25    26   ar
    72    25    24    1
    73    67    66    1
    74    43    42    1
    75    43    44    1
    76    79    78   ar
    77    79    77   ar
    78    52    44   am
    79    52    53    1
    80    56    53    1
    81    44    45    2
    82    24    21    1
    83    78    76   ar
    84    77    75   ar
    85    53    54    1
    86    41    39    1
    87    66    65    1
    88    20    21    1
    89    65    62    1
    90    21    22    1
    91    76    75   ar
    92    75    74    1
    93    23    22    2
    94    54    55    2
    95    39    38    1
    96    74    71    1
    97    62    61    1
    98    62    63    1
    99    40    38    1
   100    38    35    1
   101    63    70   am
   102    63    64    2
   103    70    71    1
   104    71    72    1
   105    35    34    1
   106    35    36    1
   107    72    73    2
   108    36    37    2
