@<TRIPOS>MOLECULE
tmp/4dw4A01.pdb
 76 72 0 0 0
SMALL
GASTEIGER

@<TRIPOS>ATOM
      1  N        -13.4220  -24.7720   13.0450 N.3     9  GLN9       -0.1245
      2  CA       -13.7390  -24.0160   11.8510 C.3     9  GLN9        0.1566
      3  C        -13.5990  -24.8300   10.6080 C.2     9  GLN9        0.2260
      4  O        -12.6670  -25.6500   10.5010 O.2     9  GLN9       -0.2867
      5  CB       -12.8420  -22.7720   11.7470 C.3     9  GLN9        0.0367
      6  CG       -11.3580  -23.0790   11.6070 C.3     9  GLN9        0.0905
      7  CD       -10.6640  -22.0920   10.7240 C.2     9  GLN9        0.2608
      8  OE1      -10.7370  -20.8700   10.9360 O.2     9  GLN9       -0.2717
      9  NE2       -9.9070  -22.6070    9.7630 N.am    9  GLN9       -0.0878
     10  N        -12.7190  -15.7830   12.4130 N.3    24  GLY24      -0.1210
     11  CA       -11.3740  -16.2130   12.8010 C.3    24  GLY24       0.1956
     12  C        -11.3200  -17.0180   14.0990 C.2    24  GLY24       0.2612
     13  O        -10.3680  -16.8890   14.8890 O.2    24  GLY24      -0.2717
     14  N        -12.3580  -17.8270   14.3670 N.am   25  VAL25      -0.1965
     15  CA       -12.4050  -18.6780   15.5640 C.3    25  VAL25       0.1727
     16  C        -12.0130  -20.0940   15.1830 C.2    25  VAL25       0.2616
     17  O        -12.5840  -20.6480   14.2630 O.2    25  VAL25      -0.2715
     18  CB       -13.7560  -18.6220   16.2970 C.3    25  VAL25       0.0290
     19  CG1      -13.7940  -19.5920   17.4970 C.3    25  VAL25       0.0023
     20  CG2      -14.0630  -17.1900   16.7300 C.3    25  VAL25       0.0023
     21  N        -11.0140  -20.6580   15.8630 N.am   26  ASN26      -0.1958
     22  CA       -10.5420  -22.0120   15.5880 C.3    26  ASN26       0.1819
     23  C        -11.3270  -23.1280   16.2920 C.2    26  ASN26       0.2621
     24  O        -11.6490  -24.1310   15.6660 O.2    26  ASN26      -0.2715
     25  CB        -9.0480  -22.1300   15.8730 C.3    26  ASN26       0.1195
     26  CG        -8.1770  -21.5750   14.7630 C.2    26  ASN26       0.2630
     27  OD1       -8.5640  -21.5020   13.5980 O.2    26  ASN26      -0.2716
     28  ND2       -6.9680  -21.1850   15.0950 N.am   26  ASN26      -0.0877
     29  N        -11.5930  -22.9700   17.5840 N.am   27  ARG27      -0.1977
     30  CA       -12.2550  -23.9540   18.4230 C.3    27  ARG27       0.1597
     31  C        -13.2870  -23.2870   19.2830 C.2    27  ARG27       0.2287
     32  O        -12.9650  -22.3060   19.9530 O.2    27  ARG27      -0.2864
     33  CB       -11.2230  -24.6710   19.3280 C.3    27  ARG27       0.0334
     34  CG       -10.3170  -25.5830   18.5530 C.3    27  ARG27       0.0492
     35  CD        -9.1120  -26.1100   19.3350 C.3    27  ARG27       0.2205
     36  NE        -8.3180  -26.9440   18.4410 N.pl3  27  ARG27      -0.0865
     37  CZ        -7.4760  -26.4800   17.5240 C.cat  27  ARG27       0.5346
     38  NH1       -7.2100  -25.1770   17.4560 N.pl3  27  ARG27       0.1354
     39  NH2       -6.8610  -27.3170   16.6960 N.pl3  27  ARG27       0.1354
     40  N         -9.2510  -21.8750   23.2810 N.3   102  THR102     -0.1203
     41  CA        -8.8520  -20.6540   22.5640 C.3   102  THR102      0.1994
     42  C         -7.3290  -20.5320   22.4020 C.2   102  THR102      0.2618
     43  O         -6.8740  -19.9540   21.4150 O.2   102  THR102     -0.2717
     44  CB        -9.5540  -19.4400   23.1700 C.3   102  THR102      0.1784
     45  OG1      -10.9600  -19.5960   22.9220 O.3   102  THR102     -0.2211
     46  CG2       -9.0750  -18.1120   22.5900 C.3   102  THR102      0.0376
     47  N         -6.5450  -21.1200   23.3340 N.am  103  GLU103     -0.1965
     48  CA        -5.0640  -21.0850   23.2920 C.3   103  GLU103      0.1733
     49  C         -4.4520  -21.8230   22.1010 C.2   103  GLU103      0.2616
     50  O         -3.3260  -21.5500   21.7300 O.2   103  GLU103     -0.2715
     51  CB        -4.4810  -21.6150   24.5930 C.3   103  GLU103      0.0429
     52  CG        -4.7620  -20.7380   25.8040 C.3   103  GLU103      0.1163
     53  CD        -3.9580  -21.1680   27.0110 C.2   103  GLU103      0.3649
     54  OE1       -4.4970  -21.1100   28.1400 O.co2 103  GLU103     -0.2457
     55  OE2       -2.8000  -21.6070   26.8230 O.co2 103  GLU103     -0.2457
     56  N         -5.2010  -22.7250   21.5050 N.am  104  GLY104     -0.1955
     57  CA        -4.7790  -23.4830   20.3260 C.3   104  GLY104      0.1869
     58  C         -5.0790  -24.9520   20.4840 C.2   104  GLY104      0.2309
     59  O         -5.9490  -25.3400   21.2830 O.2   104  GLY104     -0.2863
     60  N         -8.6710  -27.5170   12.2730 N.3   147  ALA147     -0.1231
     61  CA        -8.6000  -26.0480   12.1880 C.3   147  ALA147      0.1694
     62  C         -7.1920  -25.6280   11.7020 C.2   147  ALA147      0.2593
     63  O         -6.4700  -24.8740   12.3800 O.2   147  ALA147     -0.2718
     64  CB        -8.9550  -25.3980   13.5240 C.3   147  ALA147      0.0304
     65  N         -6.7920  -26.2230   10.5800 N.am  148  GLY148     -0.1942
     66  CA        -5.5140  -25.9590    9.9300 C.3   148  GLY148      0.2014
     67  C         -4.3390  -26.8380   10.2870 C.2   148  GLY148      0.2638
     68  O         -3.3610  -26.8540    9.5420 O.2   148  GLY148     -0.2714
     69  N         -4.3980  -27.5510   11.4270 N.am  149  ILE149     -0.1977
     70  CA        -3.3100  -28.4190   11.8710 C.3   149  ILE149      0.1596
     71  C         -3.4600  -29.8000   11.2640 C.2   149  ILE149      0.2287
     72  O         -4.4950  -30.4560   11.4360 O.2   149  ILE149     -0.2864
     73  CB        -3.1830  -28.4540   13.3950 C.3   149  ILE149      0.0276
     74  CG1       -2.9200  -27.0590   13.9390 C.3   149  ILE149      0.0022
     75  CG2       -2.0690  -29.4310   13.8360 C.3   149  ILE149      0.0022
     76  CD1       -3.2140  -26.9340   15.3730 C.3   149  ILE149      0.0001
@<TRIPOS>BOND
     1    68    67    2
     2     9     7   am
     3    66    67    1
     4    66    65    1
     5    67    69   am
     6     4     3    2
     7    65    62   am
     8     3     2    1
     9     7     8    2
    10     7     6    1
    11    71    72    2
    12    71    70    1
    13    69    70    1
    14     6     5    1
    15    62    61    1
    16    62    63    2
    17     5     2    1
    18     2     1    1
    19    70    73    1
    20    61    60    1
    21    61    64    1
    22    10    11    1
    23    11    12    1
    24    73    75    1
    25    73    74    1
    26    27    26    2
    27    74    76    1
    28    12    14   am
    29    12    13    2
    30    17    16    2
    31    14    15    1
    32    26    28   am
    33    26    25    1
    34    16    15    1
    35    16    21   am
    36    15    18    1
    37    22    21    1
    38    22    25    1
    39    22    23    1
    40    24    23    2
    41    23    29   am
    42    18    20    1
    43    18    19    1
    44    39    37    1
    45    38    37    1
    46    37    36    2
    47    29    30    1
    48    30    31    1
    49    30    33    1
    50    36    35    1
    51    34    33    1
    52    34    35    1
    53    31    32    2
    54    57    58    1
    55    57    56    1
    56    58    59    2
    57    43    42    2
    58    56    49   am
    59    50    49    2
    60    49    48    1
    61    42    41    1
    62    42    47   am
    63    41    44    1
    64    41    40    1
    65    46    44    1
    66    45    44    1
    67    48    47    1
    68    48    51    1
    69    51    52    1
    70    52    53    1
    71    55    53   ar
    72    53    54   ar
