@<TRIPOS>MOLECULE
tmp/4dw5B00.pdb
 95 93 0 0 0
SMALL
GASTEIGER

@<TRIPOS>ATOM
      1  N        -61.4740   40.1680   -3.6150 N.3     1  SER1       -0.1217
      2  CA       -61.5450   39.6540   -4.9780 C.3     1  SER1        0.1889
      3  C        -62.9590   39.1170   -5.3300 C.2     1  SER1        0.2288
      4  O        -63.9770   39.7620   -5.0350 O.2     1  SER1       -0.2866
      5  CB       -60.4740   38.5820   -5.1760 C.3     1  SER1        0.2089
      6  OG       -59.7030   38.8220   -6.3440 O.3     1  SER1       -0.2183
      7  N        -65.8180   36.0170   -4.9460 N.3     3  ASN3       -0.1240
      8  CA       -66.3610   35.3460   -3.7960 C.3     3  ASN3        0.1653
      9  C        -66.5420   33.8860   -4.0880 C.2     3  ASN3        0.2266
     10  O        -66.9680   33.5380   -5.1950 O.2     3  ASN3       -0.2867
     11  CB       -67.6880   36.0090   -3.4150 C.3     3  ASN3        0.1155
     12  CG       -67.6040   37.5200   -3.2830 C.2     3  ASN3        0.2627
     13  OD1      -66.5590   38.0790   -2.9820 O.2     3  ASN3       -0.2716
     14  ND2      -68.6960   38.2200   -3.5180 N.am    3  ASN3       -0.0877
     15  N        -71.5780   32.4150    0.8680 N.3    33  ILE33      -0.1245
     16  CA       -70.9170   33.2290   -0.1480 C.3    33  ILE33       0.1561
     17  C        -69.7550   33.8550    0.5870 C.2    33  ILE33       0.2260
     18  O        -69.9330   34.5960    1.5490 O.2    33  ILE33      -0.2867
     19  CB       -71.8310   34.2560   -0.8650 C.3    33  ILE33       0.0252
     20  CG1      -73.0380   33.5550   -1.4990 C.3    33  ILE33       0.0019
     21  CG2      -71.0330   35.0820   -1.8880 C.3    33  ILE33       0.0019
     22  CD1      -74.1540   34.4990   -1.8750 C.3    33  ILE33       0.0001
     23  N        -66.4010   36.0860    0.5980 N.3    35  PRO35      -0.2116
     24  CA       -65.3440   36.9840    0.1130 C.3    35  PRO35       0.1372
     25  C        -64.0220   36.5860    0.7970 C.2    35  PRO35       0.2244
     26  O        -64.0280   35.7060    1.6580 O.2    35  PRO35      -0.2868
     27  CB       -65.8170   38.3740    0.5980 C.3    35  PRO35       0.0268
     28  CG       -67.2470   38.1920    0.9000 C.3    35  PRO35       0.0207
     29  CD       -67.3180   36.8230    1.4740 C.3    35  PRO35       0.0892
     30  N        -68.4560   42.6180    5.0440 N.3    84  ASN84      -0.1225
     31  CA       -68.3280   42.7080    3.5890 C.3    84  ASN84       0.1785
     32  C        -69.4760   43.3830    2.8480 C.2    84  ASN84       0.2597
     33  O        -69.2260   44.0330    1.8460 O.2    84  ASN84      -0.2718
     34  CB       -68.0330   41.3420    3.0310 C.3    84  ASN84       0.1169
     35  CG       -66.7460   40.7630    3.5790 C.2    84  ASN84       0.2627
     36  OD1      -65.6790   41.3730    3.5020 O.2    84  ASN84      -0.2716
     37  ND2      -66.8340   39.6120    4.2130 N.am   84  ASN84      -0.0877
     38  N        -70.7200   43.2070    3.3250 N.am   85  TRP85      -0.1962
     39  CA       -71.9520   43.7410    2.7320 C.3    85  TRP85       0.1771
     40  C        -72.4640   44.9340    3.5250 C.2    85  TRP85       0.2620
     41  O        -73.2710   45.6910    2.9980 O.2    85  TRP85      -0.2715
     42  CB       -73.0510   42.6570    2.6560 C.3    85  TRP85       0.0590
     43  CG       -72.9420   41.7870    1.4390 C.ar   85  TRP85       0.0006
     44  CD1      -73.6020   41.9350    0.2520 C.ar   85  TRP85       0.0946
     45  CD2      -72.1260   40.6220    1.3050 C.ar   85  TRP85       0.0152
     46  NE1      -73.2060   40.9530   -0.6300 N.ar   85  TRP85      -0.2442
     47  CE2      -72.2870   40.1460   -0.0150 C.ar   85  TRP85       0.0810
     48  CE3      -71.2450   39.9410    2.1720 C.ar   85  TRP85       0.0012
     49  CZ2      -71.6060   39.0130   -0.4870 C.ar   85  TRP85       0.0191
     50  CZ3      -70.6040   38.8060    1.7170 C.ar   85  TRP85       0.0001
     51  CH2      -70.7840   38.3530    0.4020 C.ar   85  TRP85       0.0015
     52  N        -72.0220   45.0930    4.8010 N.am   86  TYR86      -0.1960
     53  CA       -72.3370   46.2350    5.6930 C.3    86  TYR86       0.1771
     54  C        -73.7540   46.3270    6.1860 C.2    86  TYR86       0.2619
     55  O        -73.9640   46.7820    7.2970 O.2    86  TYR86      -0.2715
     56  CB       -71.8670   47.5860    5.1040 C.3    86  TYR86       0.0574
     57  CG       -70.4460   47.5190    4.5950 C.ar   86  TYR86      -0.0198
     58  CD1      -69.3790   47.4100    5.4750 C.ar   86  TYR86      -0.0009
     59  CD2      -70.1720   47.5170    3.2330 C.ar   86  TYR86      -0.0009
     60  CE1      -68.0720   47.3140    5.0160 C.ar   86  TYR86       0.0417
     61  CE2      -68.8650   47.3950    2.7600 C.ar   86  TYR86       0.0417
     62  CZ       -67.8160   47.3220    3.6580 C.ar   86  TYR86       0.1957
     63  OH       -66.5180   47.2180    3.2310 O.3    86  TYR86      -0.2866
     64  N        -74.7220   45.9500    5.3690 N.am   87  ASN87      -0.1972
     65  CA       -76.1400   45.9950    5.7330 C.3    87  ASN87       0.1688
     66  C        -76.6970   44.6630    5.4270 C.2    87  ASN87       0.2292
     67  O        -76.2570   44.0660    4.4500 O.2    87  ASN87      -0.2864
     68  CB       -76.8630   47.1140    4.9520 C.3    87  ASN87       0.1181
     69  CG       -76.3350   48.4500    5.4050 C.2    87  ASN87       0.2629
     70  OD1      -76.5990   48.8960    6.5220 O.2    87  ASN87      -0.2716
     71  ND2      -75.4330   49.0120    4.6410 N.am   87  ASN87      -0.0877
     72  N        -79.7650   43.6730    4.5060 N.3    89  GLU89      -0.1231
     73  CA       -80.6800   43.6470    3.3710 C.3    89  GLU89       0.1684
     74  C        -80.0160   43.1780    2.0460 C.2    89  GLU89       0.2434
     75  O        -80.4630   42.1330    1.5360 O.2    89  GLU89      -0.2733
     76  CB       -81.4060   44.9720    3.2150 C.3    89  GLU89       0.0402
     77  CG       -82.3110   45.0350    1.9960 C.3    89  GLU89       0.1161
     78  CD       -82.7860   46.4300    1.6860 C.2    89  GLU89       0.3649
     79  OE1      -83.1020   46.6820    0.5040 O.co2  89  GLU89      -0.2457
     80  OE2      -82.8090   47.2790    2.6080 O.co2  89  GLU89      -0.2457
     81  N        -78.9290   43.8250    1.5230 N.am   90  PRO90      -0.2729
     82  CA       -78.3120   43.3220    0.2750 C.3    90  PRO90       0.1401
     83  C        -77.7230   41.9260    0.4020 C.2    90  PRO90       0.2269
     84  O        -77.6960   41.1940   -0.5890 O.2    90  PRO90      -0.2865
     85  CB       -77.2070   44.3480   -0.0410 C.3    90  PRO90       0.0296
     86  CG       -76.9030   44.9900    1.2610 C.3    90  PRO90       0.0237
     87  CD       -78.2380   45.0430    1.9940 C.3    90  PRO90       0.0939
     88  N        -78.8140   38.7860   -1.9590 N.3    94  LEU94      -0.1245
     89  CA       -77.8320   37.9950   -2.7030 C.3    94  LEU94       0.1561
     90  C        -77.9220   36.4810   -2.3230 C.2    94  LEU94       0.2260
     91  O        -77.9610   35.6390   -3.2210 O.2    94  LEU94      -0.2867
     92  CB       -76.4100   38.5020   -2.4620 C.3    94  LEU94       0.0270
     93  CG       -75.3090   37.7320   -3.2430 C.3    94  LEU94       0.0019
     94  CD1      -75.5760   37.7600   -4.7450 C.3    94  LEU94       0.0001
     95  CD2      -73.9810   38.3200   -3.0260 C.3    94  LEU94       0.0001
@<TRIPOS>BOND
     1     6     5    1
     2     3     4    2
     3     3     2    1
     4    10     9    2
     5     5     2    1
     6     2     1    1
     7     7     8    1
     8    94    93    1
     9     9     8    1
    10     8    11    1
    11    14    12   am
    12    11    12    1
    13    12    13    2
    14    93    95    1
    15    93    92    1
    16    91    90    2
    17    89    92    1
    18    89    90    1
    19    89    88    1
    20    21    19    1
    21    22    20    1
    22    20    19    1
    23    19    16    1
    24    46    47   ar
    25    46    44   ar
    26    84    83    2
    27    49    47   ar
    28    49    51   ar
    29    16    17    1
    30    16    15    1
    31    85    82    1
    32    85    86    1
    33    47    45   ar
    34    24    23    1
    35    24    27    1
    36    24    25    1
    37    44    43   ar
    38    82    83    1
    39    82    81    1
    40    51    50   ar
    41    79    78   ar
    42    17    18    2
    43    23    29    1
    44    27    28    1
    45    25    26    2
    46    28    29    1
    47    86    87    1
    48    45    43   ar
    49    45    48   ar
    50    43    42    1
    51    81    87    1
    52    81    74   am
    53    75    74    2
    54    78    77    1
    55    78    80   ar
    56    50    48   ar
    57    33    32    2
    58    77    76    1
    59    74    73    1
    60    42    39    1
    61    39    38    1
    62    39    40    1
    63    61    59   ar
    64    61    62   ar
    65    32    38   am
    66    32    31    1
    67    41    40    2
    68    34    35    1
    69    34    31    1
    70    76    73    1
    71    63    62    1
    72    59    57   ar
    73    73    72    1
    74    36    35    2
    75    40    52   am
    76    35    37   am
    77    31    30    1
    78    62    60   ar
    79    67    66    2
    80    57    56    1
    81    57    58   ar
    82    71    69   am
    83    52    53    1
    84    68    69    1
    85    68    65    1
    86    60    58   ar
    87    56    53    1
    88    64    65    1
    89    64    54   am
    90    69    70    2
    91    66    65    1
    92    53    54    1
    93    54    55    2
