@<TRIPOS>MOLECULE
tmp/4dw5A04.pdb
 109 103 0 0 0
SMALL
GASTEIGER

@<TRIPOS>ATOM
      1  N        -46.0190   31.3850    0.3400 N.3     7  ASN7       -0.1240
      2  CA       -45.9080   29.9640    0.1040 C.3     7  ASN7        0.1653
      3  C        -45.1960   29.3650    1.2920 C.2     7  ASN7        0.2266
      4  O        -44.3800   30.0530    1.9540 O.2     7  ASN7       -0.2867
      5  CB       -45.0540   29.7120   -1.1570 C.3     7  ASN7        0.1155
      6  CG       -45.6850   30.2410   -2.4080 C.2     7  ASN7        0.2627
      7  OD1      -45.1760   31.1630   -3.0650 O.2     7  ASN7       -0.2716
      8  ND2      -46.8620   29.7720   -2.6870 N.am    7  ASN7       -0.0877
      9  N        -42.9840   25.3420   -6.4780 N.3    16  ILE16      -0.1231
     10  CA       -42.2570   26.1300   -5.4840 C.3    16  ILE16       0.1692
     11  C        -42.2250   25.4560   -4.1080 C.2    16  ILE16       0.2591
     12  O        -41.1690   25.4460   -3.4820 O.2    16  ILE16      -0.2718
     13  CB       -42.7490   27.5960   -5.4120 C.3    16  ILE16       0.0266
     14  CG1      -41.7600   28.4800   -4.6180 C.3    16  ILE16       0.0019
     15  CG2      -44.2460   27.7390   -4.9710 C.3    16  ILE16       0.0020
     16  CD1      -42.0730   29.9160   -4.6470 C.3    16  ILE16       0.0001
     17  N        -43.3430   24.8470   -3.6820 N.am   17  GLN17      -0.1979
     18  CA       -43.4170   24.1810   -2.3630 C.3    17  GLN17       0.1601
     19  C        -42.4260   23.0460   -2.1960 C.2    17  GLN17       0.2287
     20  O        -41.8610   22.9100   -1.1150 O.2    17  GLN17      -0.2864
     21  CB       -44.8570   23.7640   -2.0170 C.3    17  GLN17       0.0394
     22  CG       -45.7370   24.9650   -1.6700 C.3    17  GLN17       0.0908
     23  CD       -46.4200   25.5520   -2.8660 C.2    17  GLN17       0.2608
     24  OE1      -46.2500   25.0870   -4.0020 O.2    17  GLN17      -0.2717
     25  NE2      -47.2420   26.5780   -2.6370 N.am   17  GLN17      -0.0878
     26  N        -45.4810   35.4840   -1.5630 N.3    30  HIS30      -0.1241
     27  CA       -46.1540   35.3780   -2.8250 C.3    30  HIS30       0.1621
     28  C        -46.5310   36.7930   -3.2370 C.2    30  HIS30       0.2264
     29  O        -46.2120   37.2080   -4.3390 O.2    30  HIS30      -0.2867
     30  CB       -47.3800   34.4520   -2.7260 C.3    30  HIS30       0.0745
     31  CG       -48.1450   34.2820   -4.0040 C.ar   30  HIS30       0.0817
     32  ND1      -49.1610   33.3440   -4.1070 N.ar   30  HIS30      -0.2268
     33  CD2      -48.0170   34.9190   -5.1980 C.ar   30  HIS30       0.1154
     34  CE1      -49.6380   33.4740   -5.3320 C.ar   30  HIS30       0.1986
     35  NE2      -48.9570   34.3970   -6.0280 N.ar   30  HIS30      -0.2212
     36  N        -41.9410   31.4460   -8.2340 N.3    60  ALA60      -0.1231
     37  CA       -42.7950   30.2710   -8.3530 C.3    60  ALA60       0.1694
     38  C        -42.4940   29.5640   -9.6890 C.2    60  ALA60       0.2593
     39  O        -42.9530   28.4400   -9.8980 O.2    60  ALA60      -0.2718
     40  CB       -44.2660   30.6780   -8.2890 C.3    60  ALA60       0.0304
     41  N        -41.7590   30.2170  -10.6120 N.am   61  SER61      -0.1938
     42  CA       -41.5070   29.5490  -11.9100 C.3    61  SER61       0.2055
     43  C        -40.2790   28.6030  -11.9010 C.2    61  SER61       0.2643
     44  O        -39.2150   29.0000  -11.4530 O.2    61  SER61      -0.2714
     45  CB       -41.3540   30.5950  -13.0080 C.3    61  SER61       0.2130
     46  OG       -41.0020   29.9830  -14.2330 O.3    61  SER61      -0.2179
     47  N        -40.3930   27.4240  -12.4860 N.am   62  GLU62      -0.1963
     48  CA       -39.2450   26.4950  -12.6050 C.3    62  GLU62       0.1733
     49  C        -38.2460   26.9780  -13.6940 C.2    62  GLU62       0.2616
     50  O        -37.0660   26.5930  -13.6840 O.2    62  GLU62      -0.2715
     51  CB       -39.7100   25.0690  -12.9690 C.3    62  GLU62       0.0429
     52  CG       -40.0840   24.9080  -14.4290 C.3    62  GLU62       0.1163
     53  CD       -40.5630   23.5360  -14.8710 C.2    62  GLU62       0.3649
     54  OE1      -40.4540   22.5740  -14.0730 O.co2  62  GLU62      -0.2457
     55  OE2      -41.0100   23.4220  -16.0390 O.co2  62  GLU62      -0.2457
     56  N        -38.7200   27.8690  -14.5780 N.am   63  LYS63      -0.1977
     57  CA       -37.9380   28.4490  -15.6640 C.3    63  LYS63       0.1596
     58  C        -36.8410   29.2970  -15.1790 C.2    63  LYS63       0.2287
     59  O        -36.0020   29.6910  -15.9770 O.2    63  LYS63      -0.2864
     60  CB       -38.8290   29.1520  -16.7060 C.3    63  LYS63       0.0298
     61  CG       -39.8920   28.2370  -17.2830 C.3    63  LYS63       0.0038
     62  CD       -39.3580   26.9800  -18.0100 C.3    63  LYS63       0.0206
     63  CE       -40.4600   26.2370  -18.7260 C.3    63  LYS63       0.1093
     64  NZ       -41.4660   25.6640  -17.7820 N.3    63  LYS63      -0.1314
     65  N        -39.5920   35.9310  -12.4640 N.3    70  ARG70      -0.1231
     66  CA       -40.9290   35.8020  -13.0550 C.3    70  ARG70       0.1694
     67  C        -42.0930   36.1650  -12.0910 C.2    70  ARG70       0.2591
     68  O        -42.8530   37.0910  -12.3990 O.2    70  ARG70      -0.2718
     69  CB       -41.1460   34.4180  -13.7000 C.3    70  ARG70       0.0321
     70  CG       -42.5430   34.2900  -14.3870 C.3    70  ARG70       0.0489
     71  CD       -42.5720   34.8560  -15.7950 C.3    70  ARG70       0.2205
     72  NE       -42.5780   36.3450  -15.8770 N.pl3  70  ARG70      -0.0865
     73  CZ       -43.6650   37.1030  -15.7470 C.cat  70  ARG70       0.5346
     74  NH1      -44.8230   36.5650  -15.3900 N.pl3  70  ARG70       0.1354
     75  NH2      -43.5950   38.4030  -15.9460 N.pl3  70  ARG70       0.1354
     76  N        -42.2240   35.4370  -10.9360 N.am   71  LEU71      -0.1980
     77  CA       -43.2580   35.7410   -9.9360 C.3    71  LEU71       0.1596
     78  C        -43.0900   37.1800   -9.4170 C.2    71  LEU71       0.2287
     79  O        -44.0490   37.9210   -9.3570 O.2    71  LEU71      -0.2864
     80  CB       -43.2870   34.7230   -8.7740 C.3    71  LEU71       0.0297
     81  CG       -44.3490   34.9730   -7.6990 C.3    71  LEU71       0.0022
     82  CD1      -45.7890   34.8500   -8.2530 C.3    71  LEU71       0.0001
     83  CD2      -44.1380   34.0960   -6.4690 C.3    71  LEU71       0.0001
     84  N        -44.3960   39.5110  -12.1030 N.3    74  HIS74      -0.1241
     85  CA       -45.8400   39.3560  -12.1690 C.3    74  HIS74       0.1621
     86  C        -46.4990   40.1160  -11.0100 C.2    74  HIS74       0.2264
     87  O        -47.5190   40.7880  -11.2150 O.2    74  HIS74      -0.2867
     88  CB       -46.1910   37.8490  -12.1210 C.3    74  HIS74       0.0745
     89  CG       -47.6540   37.5910  -11.9080 C.ar   74  HIS74       0.0817
     90  ND1      -48.5950   37.9020  -12.8900 N.ar   74  HIS74      -0.2268
     91  CD2      -48.2980   37.1320  -10.8020 C.ar   74  HIS74       0.1154
     92  CE1      -49.7750   37.6150  -12.3560 C.ar   74  HIS74       0.1986
     93  NE2      -49.6470   37.1380  -11.1000 N.ar   74  HIS74      -0.2212
     94  N        -54.5250   27.6430    1.4270 N.3   112  THR112     -0.1218
     95  CA       -54.6700   26.4170    0.6750 C.3   112  THR112      0.1862
     96  C        -53.9180   25.3220    1.3690 C.2   112  THR112      0.2287
     97  O        -52.8540   25.5590    1.9400 O.2   112  THR112     -0.2866
     98  CB       -54.1290   26.5670   -0.8010 C.3   112  THR112      0.1770
     99  OG1      -52.7120   26.7100   -0.7720 O.3   112  THR112     -0.2211
    100  CG2      -54.6920   27.7700   -1.5360 C.3   112  THR112      0.0375
    101  N        -49.9930   27.4890    1.1970 N.3   126  GLN126     -0.1245
    102  CA       -50.0170   28.9560    1.1550 C.3   126  GLN126      0.1566
    103  C        -50.7450   29.4710    2.4090 C.2   126  GLN126      0.2260
    104  O        -51.7730   28.9170    2.7750 O.2   126  GLN126     -0.2867
    105  CB       -50.6860   29.5050   -0.1030 C.3   126  GLN126      0.0367
    106  CG       -49.8720   29.3230   -1.4020 C.3   126  GLN126      0.0905
    107  CD       -50.3470   30.2820   -2.4520 C.2   126  GLN126      0.2608
    108  OE1      -50.0860   31.4750   -2.3850 O.2   126  GLN126     -0.2717
    109  NE2      -51.0590   29.7960   -3.4400 N.am  126  GLN126     -0.0878
@<TRIPOS>BOND
     1    63    62    1
     2    63    64    1
     3    62    61    1
     4    61    60    1
     5    60    57    1
     6    55    53   ar
     7    59    58    2
     8    75    73    1
     9    72    71    1
    10    72    73    2
    11    71    70    1
    12    73    74    1
    13    57    58    1
    14    57    56    1
    15    53    52    1
    16    53    54   ar
    17    56    49   am
    18    52    51    1
    19    70    69    1
    20    46    45    1
    21    69    66    1
    22    49    50    2
    23    49    48    1
    24    66    65    1
    25    66    67    1
    26    45    42    1
    27    51    48    1
    28    90    92   ar
    29    90    89   ar
    30    48    47    1
    31    47    43   am
    32    68    67    2
    33    92    93   ar
    34    85    88    1
    35    85    84    1
    36    85    86    1
    37    88    89    1
    38    67    76   am
    39    42    43    1
    40    42    41    1
    41    89    91   ar
    42    43    44    2
    43    87    86    2
    44    93    91   ar
    45    76    77    1
    46    41    38   am
    47    77    78    1
    48    77    80    1
    49    39    38    2
    50    38    37    1
    51    78    79    2
    52    80    81    1
    53    37    40    1
    54    37    36    1
    55    82    81    1
    56    81    83    1
    57     9    10    1
    58    35    34   ar
    59    35    33   ar
    60    10    13    1
    61    10    11    1
    62    13    15    1
    63    13    14    1
    64    34    32   ar
    65    33    31   ar
    66    16    14    1
    67    29    28    2
    68    11    17   am
    69    11    12    2
    70    32    31   ar
    71    31    30    1
    72    24    23    2
    73    17    18    1
    74   109   107   am
    75    28    27    1
    76     7     6    2
    77    23    25   am
    78    23    22    1
    79    27    30    1
    80    27    26    1
    81     8     6   am
    82   107   108    2
    83   107   106    1
    84     6     5    1
    85    18    19    1
    86    18    21    1
    87    19    20    2
    88    21    22    1
    89   100    98    1
    90   106   105    1
    91     5     2    1
    92    98    99    1
    93    98    95    1
    94   105   102    1
    95     2     1    1
    96     2     3    1
    97    95    96    1
    98    95    94    1
    99   102   101    1
   100   102   103    1
   101     3     4    2
   102    96    97    2
   103   103   104    2
