@<TRIPOS>MOLECULE
tmp/4dw6A00.pdb
 222 218 0 0 0
SMALL
GASTEIGER

@<TRIPOS>ATOM
      1  N         35.4810   -6.9220   -4.9580 N.3    64  LEU64      -0.1245
      2  CA        34.1450   -6.6430   -4.3750 C.3    64  LEU64       0.1561
      3  C         34.2930   -5.6250   -3.1780 C.2    64  LEU64       0.2260
      4  O         33.4920   -4.7000   -3.0280 O.2    64  LEU64      -0.2867
      5  CB        33.4570   -7.9390   -3.8830 C.3    64  LEU64       0.0270
      6  CG        32.1010   -7.7050   -3.1960 C.3    64  LEU64       0.0019
      7  CD1       31.0820   -7.2420   -4.2250 C.3    64  LEU64       0.0001
      8  CD2       31.7330   -9.1240   -2.7790 C.3    64  LEU64       0.0001
      9  N         34.3880   -2.0770   -4.5700 N.3    67  LEU67      -0.1231
     10  CA        33.0610   -1.6490   -4.9560 C.3    67  LEU67       0.1693
     11  C         32.2450   -1.1990   -3.7480 C.2    67  LEU67       0.2591
     12  O         31.5670   -0.1390   -3.7750 O.2    67  LEU67      -0.2718
     13  CB        32.4010   -2.8600   -5.6610 C.3    67  LEU67       0.0284
     14  CG        31.3100   -2.5560   -6.6450 C.3    67  LEU67       0.0019
     15  CD1       31.7630   -1.4460   -7.5920 C.3    67  LEU67       0.0001
     16  CD2       30.9600   -3.8470   -7.3990 C.3    67  LEU67       0.0001
     17  N         32.3410   -2.0110   -2.6840 N.am   68  ALA68      -0.1980
     18  CA        31.5960   -1.8560   -1.4390 C.3    68  ALA68       0.1597
     19  C         31.8750   -0.5110   -0.7580 C.2    68  ALA68       0.2287
     20  O         30.9510    0.1000   -0.2160 O.2    68  ALA68      -0.2864
     21  CB        31.9290   -3.0020   -0.4800 C.3    68  ALA68       0.0319
     22  N         23.5770   -1.3520   -9.5560 N.3    76  MET76      -0.1230
     23  CA        24.4040   -1.6940   -8.4360 C.3    76  MET76       0.1702
     24  C         24.6640   -3.2060   -8.3580 C.2    76  MET76       0.2592
     25  O         25.8140   -3.6120   -8.1360 O.2    76  MET76      -0.2718
     26  CB        23.7610   -1.2140   -7.1010 C.3    76  MET76       0.0401
     27  CG        24.5500   -1.5960   -5.8590 C.3    76  MET76       0.0596
     28  SD        23.7460   -1.2810   -4.2600 S.3    76  MET76      -0.1393
     29  CE        22.5760   -2.6180   -4.0180 C.3    76  MET76       0.0692
     30  N         23.6110   -4.0350   -8.4640 N.am   77  TRP77      -0.1976
     31  CA        23.8300   -5.5000   -8.3310 C.3    77  TRP77       0.1640
     32  C         24.6000   -5.9970   -9.5320 C.2    77  TRP77       0.2290
     33  O         25.4750   -6.8460   -9.4170 O.2    77  TRP77      -0.2864
     34  CB        22.4930   -6.2390   -8.1750 C.3    77  TRP77       0.0576
     35  CG        21.8950   -5.9840   -6.7930 C.ar   77  TRP77       0.0006
     36  CD1       20.7980   -5.1950   -6.4550 C.ar   77  TRP77       0.0946
     37  CD2       22.4070   -6.4940   -5.5100 C.ar   77  TRP77       0.0152
     38  NE1       20.5800   -5.2110   -5.0760 N.ar   77  TRP77      -0.2442
     39  CE2       21.5100   -5.9470   -4.4570 C.ar   77  TRP77       0.0810
     40  CE3       23.5010   -7.2680   -5.1450 C.ar   77  TRP77       0.0012
     41  CZ2       21.6660   -6.2580   -3.1130 C.ar   77  TRP77       0.0191
     42  CZ3       23.6640   -7.5590   -3.7750 C.ar   77  TRP77       0.0001
     43  CH2       22.7700   -7.0650   -2.7930 C.ar   77  TRP77       0.0015
     44  N         26.9020   -4.4610  -11.2510 N.3    79  THR79      -0.1203
     45  CA        28.3460   -4.1840  -11.1440 C.3    79  THR79       0.1994
     46  C         29.0080   -5.1380  -10.1430 C.2    79  THR79       0.2618
     47  O         30.1780   -5.5540  -10.3270 O.2    79  THR79      -0.2717
     48  CB        28.6170   -2.6910  -10.6590 C.3    79  THR79       0.1784
     49  OG1       27.9630   -1.8490  -11.5770 O.3    79  THR79      -0.2211
     50  CG2       30.1880   -2.4140  -10.7150 C.3    79  THR79       0.0376
     51  N         28.2890   -5.4990   -9.0660 N.am   80  GLY80      -0.1942
     52  CA        28.8630   -6.4750   -8.1360 C.3    80  GLY80       0.2014
     53  C         28.8950   -7.9140   -8.6910 C.2    80  GLY80       0.2638
     54  O         29.9240   -8.6490   -8.5970 O.2    80  GLY80      -0.2714
     55  N         27.7940   -8.3800   -9.2630 N.am   81  ILE81      -0.1977
     56  CA        27.8960   -9.7440   -9.8840 C.3    81  ILE81       0.1596
     57  C         28.9670   -9.7660  -10.9690 C.2    81  ILE81       0.2287
     58  O         29.6600  -10.7760  -11.1820 O.2    81  ILE81      -0.2864
     59  CB        26.5280  -10.0980  -10.5010 C.3    81  ILE81       0.0276
     60  CG1       25.5340  -10.2980   -9.3250 C.3    81  ILE81       0.0022
     61  CG2       26.6190  -11.3740  -11.3200 C.3    81  ILE81       0.0022
     62  CD1       24.0960  -10.3080   -9.8640 C.3    81  ILE81       0.0001
     63  N         32.4470  -11.0260  -10.2740 N.3    84  PHE84      -0.1241
     64  CA        32.6490  -12.5050  -10.2950 C.3    84  PHE84       0.1605
     65  C         32.7280  -13.0280  -11.6930 C.2    84  PHE84       0.2264
     66  O         33.6010  -13.8580  -12.0700 O.2    84  PHE84      -0.2867
     67  CB        31.5200  -13.2020   -9.4500 C.3    84  PHE84       0.0534
     68  CG        31.6310  -12.8320   -7.9800 C.ar   84  PHE84      -0.0203
     69  CD1       32.5180  -13.5020   -7.1690 C.ar   84  PHE84      -0.0042
     70  CD2       30.9530  -11.7340   -7.4630 C.ar   84  PHE84      -0.0042
     71  CE1       32.6970  -13.1330   -5.8420 C.ar   84  PHE84      -0.0003
     72  CE2       31.1370  -11.3260   -6.1330 C.ar   84  PHE84      -0.0003
     73  CZ        32.0050  -12.0540   -5.3200 C.ar   84  PHE84      -0.0000
     74  N         36.3150  -14.5750  -12.5240 N.3    88  PHE88      -0.1241
     75  CA        36.4240  -16.0310  -12.7840 C.3    88  PHE88       0.1605
     76  C         36.4630  -16.2520  -14.2930 C.2    88  PHE88       0.2264
     77  O         37.0930  -17.2290  -14.8180 O.2    88  PHE88      -0.2867
     78  CB        35.2650  -16.8340  -12.1210 C.3    88  PHE88       0.0534
     79  CG        35.3710  -16.8860  -10.5950 C.ar   88  PHE88      -0.0203
     80  CD1       36.3210  -17.7340   -9.9730 C.ar   88  PHE88      -0.0042
     81  CD2       34.4980  -16.1850   -9.8000 C.ar   88  PHE88      -0.0042
     82  CE1       36.4360  -17.7810   -8.5400 C.ar   88  PHE88      -0.0003
     83  CE2       34.5780  -16.2390   -8.3730 C.ar   88  PHE88      -0.0003
     84  CZ        35.5980  -16.9740   -7.7520 C.ar   88  PHE88      -0.0000
     85  N         39.3240  -21.7670  -12.5670 N.3    95  THR95      -0.1218
     86  CA        37.9510  -21.8650  -12.0570 C.3    95  THR95       0.1862
     87  C         37.4360  -23.2950  -12.2010 C.2    95  THR95       0.2287
     88  O         37.0840  -23.8770  -11.1940 O.2    95  THR95      -0.2866
     89  CB        37.0380  -20.8930  -12.8540 C.3    95  THR95       0.1770
     90  OG1       37.4890  -19.5670  -12.6330 O.3    95  THR95      -0.2211
     91  CG2       35.5990  -20.9850  -12.4250 C.3    95  THR95       0.0375
     92  N         37.1380  -22.4530   -0.7610 N.3   112  TRP112     -0.1241
     93  CA        35.8740  -22.1350   -1.4550 C.3   112  TRP112      0.1605
     94  C         34.7740  -21.8090   -0.4650 C.2   112  TRP112      0.2264
     95  O         34.1310  -20.7440   -0.4570 O.2   112  TRP112     -0.2867
     96  CB        35.5290  -23.2950   -2.3830 C.3   112  TRP112      0.0550
     97  CG        34.6130  -22.8020   -3.3730 C.ar  112  TRP112      0.0003
     98  CD1       33.2160  -22.8990   -3.3670 C.ar  112  TRP112      0.0946
     99  CD2       34.9470  -21.9780   -4.5480 C.ar  112  TRP112      0.0152
    100  NE1       32.6750  -22.2660   -4.4760 N.ar  112  TRP112     -0.2442
    101  CE2       33.6770  -21.6670   -5.2070 C.ar  112  TRP112      0.0810
    102  CE3       36.1170  -21.5150   -5.1040 C.ar  112  TRP112      0.0012
    103  CZ2       33.6300  -20.9130   -6.3880 C.ar  112  TRP112      0.0191
    104  CZ3       36.0560  -20.7640   -6.2880 C.ar  112  TRP112      0.0001
    105  CH2       34.8490  -20.4700   -6.9070 C.ar  112  TRP112      0.0015
    106  N         32.8110  -18.2420   -0.0070 N.3   116  MET116     -0.1245
    107  CA        31.3320  -18.2040   -0.2580 C.3   116  MET116      0.1570
    108  C         30.6050  -17.6810    1.0110 C.2   116  MET116      0.2261
    109  O         29.6720  -16.8680    0.9410 O.2   116  MET116     -0.2867
    110  CB        30.8130  -19.6050   -0.6670 C.3   116  MET116      0.0387
    111  CG        31.2840  -20.1120   -2.0320 C.3   116  MET116      0.0595
    112  SD        30.5330  -19.0130   -3.3250 S.3   116  MET116     -0.1393
    113  CE        28.8410  -19.6120   -3.3470 C.3   116  MET116      0.0692
    114  N         31.0250  -13.9850    0.9900 N.3   119  TRP119     -0.1241
    115  CA        30.2260  -13.2160   -0.0100 C.3   119  TRP119      0.1605
    116  C         28.7410  -13.2410    0.2720 C.2   119  TRP119      0.2264
    117  O         28.0230  -12.2840    0.0030 O.2   119  TRP119     -0.2867
    118  CB        30.4860  -13.7930   -1.3770 C.3   119  TRP119      0.0550
    119  CG        32.0010  -13.6500   -1.7020 C.ar  119  TRP119      0.0003
    120  CD1       32.8880  -12.6270   -1.2580 C.ar  119  TRP119      0.0946
    121  CD2       32.8130  -14.5180   -2.5550 C.ar  119  TRP119      0.0152
    122  NE1       34.1540  -12.8160   -1.8350 N.ar  119  TRP119     -0.2442
    123  CE2       34.1750  -13.9440   -2.5760 C.ar  119  TRP119      0.0810
    124  CE3       32.5740  -15.6800   -3.2680 C.ar  119  TRP119      0.0012
    125  CZ2       35.2080  -14.5220   -3.3260 C.ar  119  TRP119      0.0191
    126  CZ3       33.6310  -16.2640   -3.9740 C.ar  119  TRP119      0.0001
    127  CH2       34.9060  -15.6880   -4.0140 C.ar  119  TRP119      0.0015
    128  N         28.2030  -10.7640    3.1250 N.3   122  TYR122     -0.1227
    129  CA        28.0880   -9.4190    2.5020 C.3   122  TYR122      0.1736
    130  C         26.8030   -9.1380    1.6550 C.2   122  TYR122      0.2596
    131  O         26.1340   -8.0840    1.8140 O.2   122  TYR122     -0.2718
    132  CB        29.3850   -9.0450    1.7370 C.3   122  TYR122      0.0548
    133  CG        29.3770   -7.6140    1.3760 C.ar  122  TYR122     -0.0200
    134  CD1       29.2670   -6.6070    2.3670 C.ar  122  TYR122     -0.0009
    135  CD2       29.4240   -7.2200    0.0490 C.ar  122  TYR122     -0.0009
    136  CE1       29.2510   -5.2540    2.0240 C.ar  122  TYR122      0.0417
    137  CE2       29.4050   -5.8660   -0.2940 C.ar  122  TYR122      0.0417
    138  CZ        29.3140   -4.8920    0.6930 C.ar  122  TYR122      0.1957
    139  OH        29.2660   -3.5530    0.2900 O.3   122  TYR122     -0.2866
    140  N         26.3890  -10.0840    0.8000 N.am  123  THR123     -0.1953
    141  CA        25.0940   -9.8980    0.1370 C.3   123  THR123      0.1897
    142  C         23.9590   -9.7210    1.1870 C.2   123  THR123      0.2313
    143  O         23.1310   -8.9050    1.0010 O.2   123  THR123     -0.2863
    144  CB        24.7550  -11.1870   -0.7080 C.3   123  THR123      0.1794
    145  OG1       25.8820  -11.5100   -1.5870 O.3   123  THR123     -0.2208
    146  CG2       23.4240  -11.0590   -1.4560 C.3   123  THR123      0.0378
    147  N         23.8520   -6.1750    2.6290 N.3   126  VAL126     -0.1245
    148  CA        23.3430   -5.1460    1.6850 C.3   126  VAL126      0.1561
    149  C         21.8490   -5.3010    1.5640 C.2   126  VAL126      0.2260
    150  O         21.1210   -4.3160    1.5580 O.2   126  VAL126     -0.2867
    151  CB        24.0600   -5.2810    0.2810 C.3   126  VAL126      0.0252
    152  CG1       23.4760   -4.3330   -0.7520 C.3   126  VAL126      0.0019
    153  CG2       25.5710   -5.0780    0.4560 C.3   126  VAL126      0.0019
    154  N         23.7330  -16.6820   -4.1830 N.3   150  ASN150     -0.1240
    155  CA        25.1370  -16.9310   -4.3910 C.3   150  ASN150      0.1653
    156  C         25.4340  -18.3150   -4.9360 C.2   150  ASN150      0.2266
    157  O         26.3720  -18.4900   -5.7770 O.2   150  ASN150     -0.2867
    158  CB        25.9340  -16.6950   -3.0400 C.3   150  ASN150      0.1155
    159  CG        26.3230  -15.2090   -2.8630 C.2   150  ASN150      0.2627
    160  OD1       27.4070  -14.8430   -3.2810 O.2   150  ASN150     -0.2716
    161  ND2       25.4360  -14.3580   -2.3710 N.am  150  ASN150     -0.0877
    162  N         24.6650  -18.3910   -8.5710 N.3   153  ASN153     -0.1225
    163  CA        25.7130  -17.8170   -9.4260 C.3   153  ASN153      0.1785
    164  C         26.8940  -18.7230   -9.6330 C.2   153  ASN153      0.2597
    165  O         27.4370  -18.8370  -10.7740 O.2   153  ASN153     -0.2718
    166  CB        26.2210  -16.4160   -8.8480 C.3   153  ASN153      0.1169
    167  CG        25.2210  -15.3230   -9.0800 C.2   153  ASN153      0.2627
    168  OD1       24.0080  -15.5840   -9.3920 O.2   153  ASN153     -0.2716
    169  ND2       25.6740  -14.0470   -8.9150 N.am  153  ASN153     -0.0877
    170  N         27.3450  -19.3540   -8.5400 N.am  154  GLU154     -0.1979
    171  CA        28.4390  -20.2880   -8.5960 C.3   154  GLU154      0.1602
    172  C         28.1390  -21.3420   -9.6720 C.2   154  GLU154      0.2287
    173  O         28.9880  -21.5620  -10.5910 O.2   154  GLU154     -0.2864
    174  CB        28.6570  -20.9490   -7.2080 C.3   154  GLU154      0.0415
    175  CG        29.6120  -22.1390   -7.2760 C.3   154  GLU154      0.1163
    176  CD        29.5940  -23.0100   -6.0000 C.2   154  GLU154      0.3649
    177  OE1       29.7890  -22.5430   -4.8850 O.co2 154  GLU154     -0.2457
    178  OE2       29.4180  -24.1930   -6.0810 O.co2 154  GLU154     -0.2457
    179  N         27.4580  -19.8190  -13.3940 N.3   157  LEU157     -0.1231
    180  CA        28.7220  -19.3710  -14.0380 C.3   157  LEU157      0.1693
    181  C         29.6510  -20.4930  -14.3520 C.2   157  LEU157      0.2592
    182  O         30.2770  -20.4920  -15.4540 O.2   157  LEU157     -0.2718
    183  CB        29.4650  -18.3350  -13.2140 C.3   157  LEU157      0.0284
    184  CG        28.7140  -16.9630  -13.2390 C.3   157  LEU157      0.0019
    185  CD1       29.6240  -15.9350  -12.6360 C.3   157  LEU157      0.0001
    186  CD2       28.2910  -16.4980  -14.6610 C.3   157  LEU157      0.0001
    187  N         29.7910  -21.4640  -13.4230 N.am  158  PHE158     -0.1976
    188  CA        30.5980  -22.6300  -13.7460 C.3   158  PHE158      0.1639
    189  C         30.0730  -23.3400  -14.9840 C.2   158  PHE158      0.2290
    190  O         30.8700  -23.7130  -15.8690 O.2   158  PHE158     -0.2864
    191  CB        30.6470  -23.6780  -12.6080 C.3   158  PHE158      0.0560
    192  CG        31.6010  -23.3430  -11.5100 C.ar  158  PHE158     -0.0200
    193  CD1       32.8790  -22.7390  -11.7900 C.ar  158  PHE158     -0.0042
    194  CD2       31.3050  -23.7170  -10.1530 C.ar  158  PHE158     -0.0042
    195  CE1       33.7890  -22.4650  -10.7220 C.ar  158  PHE158     -0.0003
    196  CE2       32.2380  -23.4540   -9.1110 C.ar  158  PHE158     -0.0003
    197  CZ        33.4670  -22.8220   -9.3960 C.ar  158  PHE158     -0.0000
    198  N         30.8260  -21.2120  -18.1160 N.3   161  PHE161     -0.1241
    199  CA        32.2100  -21.0930  -18.4400 C.3   161  PHE161      0.1605
    200  C         32.7300  -22.4200  -18.9630 C.2   161  PHE161      0.2264
    201  O         33.6660  -22.4120  -19.7460 O.2   161  PHE161     -0.2867
    202  CB        33.1160  -20.6900  -17.2610 C.3   161  PHE161      0.0534
    203  CG        32.8940  -19.2770  -16.7930 C.ar  161  PHE161     -0.0203
    204  CD1       32.4440  -18.3140  -17.6650 C.ar  161  PHE161     -0.0042
    205  CD2       33.1550  -18.9110  -15.4830 C.ar  161  PHE161     -0.0042
    206  CE1       32.2140  -17.0250  -17.2660 C.ar  161  PHE161     -0.0003
    207  CE2       32.9670  -17.5990  -15.0770 C.ar  161  PHE161     -0.0003
    208  CZ        32.4560  -16.6530  -15.9580 C.ar  161  PHE161     -0.0000
    209  N         18.4030  -11.8110   -9.3720 N.3   181  TRP181     -0.1241
    210  CA        18.7710  -11.1540   -8.1000 C.3   181  TRP181      0.1605
    211  C         17.8340  -10.0200   -7.8390 C.2   181  TRP181      0.2264
    212  O         17.2190   -9.9310   -6.7590 O.2   181  TRP181     -0.2867
    213  CB        20.1970  -10.6360   -8.1570 C.3   181  TRP181      0.0550
    214  CG        21.2060  -11.6870   -7.8500 C.ar  181  TRP181      0.0003
    215  CD1       21.4140  -12.9270   -8.5460 C.ar  181  TRP181      0.0946
    216  CD2       22.2750  -11.6060   -6.8500 C.ar  181  TRP181      0.0152
    217  NE1       22.4650  -13.5990   -7.9950 N.ar  181  TRP181     -0.2442
    218  CE2       23.0390  -12.8380   -6.9750 C.ar  181  TRP181      0.0810
    219  CE3       22.6180  -10.6700   -5.8400 C.ar  181  TRP181      0.0012
    220  CZ2       24.0720  -13.1540   -6.1150 C.ar  181  TRP181      0.0191
    221  CZ3       23.6850  -10.9590   -5.0060 C.ar  181  TRP181      0.0001
    222  CH2       24.3860  -12.2050   -5.0980 C.ar  181  TRP181      0.0015
@<TRIPOS>BOND
     1   201   200    2
     2   200   199    1
     3   199   198    1
     4   199   202    1
     5   204   206   ar
     6   204   203   ar
     7   206   208   ar
     8   202   203    1
     9   203   205   ar
    10   208   207   ar
    11   190   189    2
    12   205   207   ar
    13   182   181    2
    14   189   188    1
    15    77    76    2
    16   186   184    1
    17   181   180    1
    18   181   187   am
    19    76    75    1
    20   180   179    1
    21   180   183    1
    22   188   187    1
    23   188   191    1
    24   184   183    1
    25   184   185    1
    26    89    90    1
    27    89    91    1
    28    89    86    1
    29    75    74    1
    30    75    78    1
    31   191   192    1
    32    85    86    1
    33    87    86    1
    34    87    88    2
    35    78    79    1
    36    66    65    2
    37   193   192   ar
    38   193   195   ar
    39    65    64    1
    40    49    48    1
    41   192   194   ar
    42    61    59    1
    43    44    45    1
    44    58    57    2
    45    45    48    1
    46    45    46    1
    47    57    56    1
    48   165   164    2
    49   195   197   ar
    50    50    48    1
    51    79    80   ar
    52    79    81   ar
    53   173   172    2
    54    59    56    1
    55    59    60    1
    56    47    46    2
    57    64    63    1
    58    64    67    1
    59   194   196   ar
    60    46    51   am
    61    80    82   ar
    62    56    55    1
    63    62    60    1
    64    81    83   ar
    65   172   171    1
    66   164   163    1
    67   164   170   am
    68    22    23    1
    69    32    33    2
    70    32    31    1
    71    67    68    1
    72   163   166    1
    73   163   162    1
    74   197   196   ar
    75   168   167    2
    76   209   210    1
    77    55    53   am
    78   167   169   am
    79   167   166    1
    80    51    52    1
    81    53    54    2
    82    53    52    1
    83   171   170    1
    84   171   174    1
    85   215   217   ar
    86   215   214   ar
    87    82    84   ar
    88    30    24   am
    89    30    31    1
    90    23    24    1
    91    23    26    1
    92    83    84   ar
    93    24    25    2
    94    31    34    1
    95    34    35    1
    96   213   210    1
    97   213   214    1
    98   210   211    1
    99   217   218   ar
   100    68    70   ar
   101    68    69   ar
   102   214   216   ar
   103   211   212    2
   104    15    14    1
   105    70    72   ar
   106    16    14    1
   107   175   174    1
   108   175   176    1
   109    69    71   ar
   110    26    27    1
   111   218   216   ar
   112   218   220   ar
   113   105   103   ar
   114   105   104   ar
   115   216   219   ar
   116    35    36   ar
   117    35    37   ar
   118    14    13    1
   119    36    38   ar
   120   103   101   ar
   121   104   102   ar
   122    72    73   ar
   123   220   222   ar
   124   178   176   ar
   125   176   177   ar
   126    27    28    1
   127    71    73   ar
   128   219   221   ar
   129   157   156    2
   130    13    10    1
   131    37    40   ar
   132    37    39   ar
   133   101    99   ar
   134   101   100   ar
   135    40    42   ar
   136   102    99   ar
   137   222   221   ar
   138    38    39   ar
   139     1     2    1
   140    10     9    1
   141    10    11    1
   142   156   155    1
   143    99    97   ar
   144   100    98   ar
   145    39    41   ar
   146   155   154    1
   147   155   158    1
   148     2     5    1
   149     2     3    1
   150    28    29    1
   151     7     6    1
   152   127   126   ar
   153   127   125   ar
   154   126   124   ar
   155     5     6    1
   156    42    43   ar
   157    12    11    2
   158    11    17   am
   159    97    98   ar
   160    97    96    1
   161   113   112    1
   162   125   123   ar
   163   112   111    1
   164   160   159    2
   165   124   121   ar
   166     6     8    1
   167     3     4    2
   168    41    43   ar
   169   158   159    1
   170   159   161   am
   171    17    18    1
   172   123   121   ar
   173   123   122   ar
   174   121   119   ar
   175    96    93    1
   176   111   110    1
   177   122   120   ar
   178   119   118    1
   179   119   120   ar
   180   145   144    1
   181   146   144    1
   182    93    92    1
   183    93    94    1
   184    18    19    1
   185    18    21    1
   186   118   115    1
   187    19    20    2
   188   152   151    1
   189   144   141    1
   190   110   107    1
   191    94    95    2
   192   137   135   ar
   193   137   138   ar
   194   107   106    1
   195   107   108    1
   196   115   116    1
   197   115   114    1
   198   117   116    2
   199   135   133   ar
   200   141   140    1
   201   141   142    1
   202   151   153    1
   203   151   148    1
   204   139   138    1
   205   138   136   ar
   206   140   130   am
   207   109   108    2
   208   143   142    2
   209   133   132    1
   210   133   134   ar
   211   150   149    2
   212   149   148    1
   213   130   131    2
   214   130   129    1
   215   148   147    1
   216   132   129    1
   217   136   134   ar
   218   129   128    1
