@<TRIPOS>MOLECULE
tmp/4dw7B00.pdb
 104 103 0 0 0
SMALL
GASTEIGER

@<TRIPOS>ATOM
      1  N        -64.8360   35.3640   -7.9630 N.3     2  GLU2       -0.1182
      2  CA       -64.3870   36.4440   -7.0550 C.3     2  GLU2        0.1915
      3  C        -64.4630   35.9310   -5.5700 C.2     2  GLU2        0.2634
      4  O        -63.4690   35.9350   -4.8260 O.2     2  GLU2       -0.2714
      5  CB       -65.2970   37.6950   -7.2020 C.2     2  GLU2        0.0085
      6  CG       -65.0620   38.5710   -8.4260 C.2     2  GLU2        0.0835
      7  CD       -65.7560   39.9290   -8.4590 C.2     2  GLU2        0.3877
      8  OE1      -66.2620   40.3830   -7.4040 O.co2   2  GLU2       -0.2406
      9  OE2      -65.7580   40.5600   -9.5430 O.co2   2  GLU2       -0.2406
     10  N        -65.6920   35.5030   -5.1910 N.am    3  ASN3       -0.1972
     11  CA       -66.2470   34.9970   -3.9530 C.3     3  ASN3        0.1688
     12  C        -66.6780   33.5360   -4.1630 C.2     3  ASN3        0.2292
     13  O        -67.4330   33.2350   -5.1080 O.2     3  ASN3       -0.2864
     14  CB       -67.5150   35.8270   -3.6440 C.3     3  ASN3        0.1181
     15  CG       -67.2900   37.2920   -3.4290 C.2     3  ASN3        0.2629
     16  OD1      -66.1840   37.7070   -3.0120 O.2     3  ASN3       -0.2716
     17  ND2      -68.3610   38.0870   -3.6880 N.am    3  ASN3       -0.0877
     18  N        -71.7580   32.2870    0.8930 N.3    33  ILE33      -0.1245
     19  CA       -71.0130   33.0340   -0.1300 C.3    33  ILE33       0.1561
     20  C        -69.8230   33.6020    0.5890 C.2    33  ILE33       0.2260
     21  O        -70.0000   34.3640    1.5470 O.2    33  ILE33      -0.2867
     22  CB       -71.7930   34.1090   -0.9370 C.3    33  ILE33       0.0252
     23  CG1      -72.9600   33.4890   -1.6960 C.3    33  ILE33       0.0019
     24  CG2      -70.8430   34.8530   -1.9060 C.3    33  ILE33       0.0019
     25  CD1      -74.0230   34.4280   -1.9720 C.3    33  ILE33       0.0001
     26  N        -66.2840   35.6810    0.6420 N.3    35  PRO35      -0.2116
     27  CA       -65.2840   36.5720    0.0680 C.3    35  PRO35       0.1372
     28  C        -63.9060   36.1680    0.6230 C.2    35  PRO35       0.2244
     29  O        -63.7810   35.0470    1.0930 O.2    35  PRO35      -0.2868
     30  CB       -65.7740   37.9650    0.5200 C.3    35  PRO35       0.0268
     31  CG       -67.1370   37.7480    1.1380 C.3    35  PRO35       0.0207
     32  CD       -67.0380   36.3720    1.6950 C.3    35  PRO35       0.0892
     33  N        -68.6460   42.1740    7.8470 N.3    83  CYS83      -0.1221
     34  CA       -67.4050   42.8340    7.4770 C.3    83  CYS83       0.1808
     35  C        -67.1870   42.9680    5.9410 C.2    83  CYS83       0.2601
     36  O        -66.1410   43.4660    5.5190 O.2    83  CYS83      -0.2717
     37  CB       -66.2540   42.0920    8.1510 C.3    83  CYS83       0.0970
     38  SG       -65.9360   40.4350    7.4720 S.3    83  CYS83      -0.0800
     39  N        -68.1340   42.5190    5.1110 N.am   84  ASN84      -0.1960
     40  CA       -67.9290   42.5410    3.6630 C.3    84  ASN84       0.1819
     41  C        -69.0480   43.1660    2.8680 C.2    84  ASN84       0.2621
     42  O        -68.8280   43.6240    1.7490 O.2    84  ASN84      -0.2715
     43  CB       -67.7350   41.1270    3.1690 C.3    84  ASN84       0.1195
     44  CG       -66.4940   40.4900    3.6860 C.2    84  ASN84       0.2630
     45  OD1      -65.3840   40.9770    3.4780 O.2    84  ASN84      -0.2716
     46  ND2      -66.6580   39.3720    4.3500 N.am   84  ASN84      -0.0877
     47  N        -70.2590   43.0990    3.4040 N.am   85  TRP85      -0.1960
     48  CA       -71.4740   43.6140    2.7750 C.3    85  TRP85       0.1771
     49  C        -71.9790   44.8250    3.5230 C.2    85  TRP85       0.2620
     50  O        -72.9010   45.4920    3.0590 O.2    85  TRP85      -0.2715
     51  CB       -72.5630   42.5190    2.7280 C.3    85  TRP85       0.0590
     52  CG       -72.5580   41.7220    1.4640 C.ar   85  TRP85       0.0006
     53  CD1      -73.2200   42.0160    0.3100 C.ar   85  TRP85       0.0946
     54  CD2      -71.8170   40.5210    1.2120 C.ar   85  TRP85       0.0152
     55  NE1      -72.9240   41.0790   -0.6570 N.ar   85  TRP85      -0.2442
     56  CE2      -72.0620   40.1500   -0.1290 C.ar   85  TRP85       0.0810
     57  CE3      -70.9960   39.7020    2.0000 C.ar   85  TRP85       0.0012
     58  CZ2      -71.5210   38.9960   -0.6970 C.ar   85  TRP85       0.0191
     59  CZ3      -70.4840   38.5480    1.4360 C.ar   85  TRP85       0.0001
     60  CH2      -70.7520   38.2040    0.1030 C.ar   85  TRP85       0.0015
     61  N        -71.4030   45.0770    4.7200 N.am   86  TYR86      -0.1960
     62  CA       -71.6540   46.2080    5.6130 C.3    86  TYR86       0.1771
     63  C        -73.0670   46.3440    6.1060 C.2    86  TYR86       0.2619
     64  O        -73.2370   46.8310    7.2170 O.2    86  TYR86      -0.2715
     65  CB       -71.0960   47.5130    5.0340 C.3    86  TYR86       0.0574
     66  CG       -69.6890   47.3470    4.5040 C.ar   86  TYR86      -0.0198
     67  CD1      -68.6180   47.1610    5.3670 C.ar   86  TYR86      -0.0009
     68  CD2      -69.4440   47.2740    3.1350 C.ar   86  TYR86      -0.0009
     69  CE1      -67.3300   46.9440    4.8860 C.ar   86  TYR86       0.0417
     70  CE2      -68.1550   47.0760    2.6380 C.ar   86  TYR86       0.0417
     71  CZ       -67.0970   46.9160    3.5170 C.ar   86  TYR86       0.1957
     72  OH       -65.8220   46.6920    3.0300 O.3    86  TYR86      -0.2866
     73  N        -74.0780   45.8910    5.3260 N.am   87  ASN87      -0.1972
     74  CA       -75.4960   45.9410    5.7150 C.3    87  ASN87       0.1688
     75  C        -76.2260   44.6530    5.4010 C.2    87  ASN87       0.2292
     76  O        -75.9610   44.0440    4.3570 O.2    87  ASN87      -0.2864
     77  CB       -76.2080   47.0960    5.0530 C.3    87  ASN87       0.1181
     78  CG       -75.7110   48.4120    5.5160 C.2    87  ASN87       0.2629
     79  OD1      -76.1410   48.9060    6.5610 O.2    87  ASN87      -0.2716
     80  ND2      -74.7730   48.9730    4.7630 N.am   87  ASN87      -0.0877
     81  N        -79.5290   43.8950    4.4370 N.3    89  GLU89      -0.1231
     82  CA       -80.3200   43.8230    3.1920 C.3    89  GLU89       0.1684
     83  C        -79.5620   43.3880    1.9080 C.2    89  GLU89       0.2434
     84  O        -79.9590   42.3700    1.3430 O.2    89  GLU89      -0.2733
     85  CB       -81.2480   45.0270    3.0000 C.3    89  GLU89       0.0402
     86  CG       -81.8990   45.1110    1.6370 C.3    89  GLU89       0.1161
     87  CD       -82.2490   46.5330    1.2670 C.2    89  GLU89       0.3649
     88  OE1      -81.3320   47.3880    1.2870 O.co2  89  GLU89      -0.2457
     89  OE2      -83.4420   46.7990    0.9790 O.co2  89  GLU89      -0.2457
     90  N        -78.4360   44.0050    1.4810 N.am   90  PRO90      -0.2729
     91  CA       -77.7470   43.4950    0.2710 C.3    90  PRO90       0.1401
     92  C        -77.3260   42.0220    0.3460 C.2    90  PRO90       0.2269
     93  O        -77.4820   41.2930   -0.6500 O.2    90  PRO90      -0.2865
     94  CB       -76.5420   44.4230    0.0940 C.3    90  PRO90       0.0296
     95  CG       -76.4640   45.2170    1.3510 C.3    90  PRO90       0.0237
     96  CD       -77.7960   45.2260    1.9930 C.3    90  PRO90       0.0939
     97  N        -78.6590   38.9260   -1.9680 N.3    94  LEU94      -0.1245
     98  CA       -77.7460   38.0440   -2.6990 C.3    94  LEU94       0.1561
     99  C        -77.8910   36.5610   -2.3390 C.2    94  LEU94       0.2260
    100  O        -77.9070   35.7180   -3.2560 O.2    94  LEU94      -0.2867
    101  CB       -76.2940   38.4980   -2.5730 C.3    94  LEU94       0.0270
    102  CG       -75.2460   37.6140   -3.2530 C.3    94  LEU94       0.0019
    103  CD1      -75.5020   37.4850   -4.7520 C.3    94  LEU94       0.0001
    104  CD2      -73.8610   38.1170   -3.0140 C.3    94  LEU94       0.0001
@<TRIPOS>BOND
     1     9     7   ar
     2     7     6    1
     3     7     8   ar
     4     6     5    2
     5     1     2    1
     6     5     2    1
     7     2     3    1
     8     3    10   am
     9     3     4    2
    10    10    11    1
    11    13    12    2
    12   103   102    1
    13    12    11    1
    14    11    14    1
    15    17    15   am
    16    14    15    1
    17    15    16    2
    18   100    99    2
    19   102   104    1
    20   102   101    1
    21    98   101    1
    22    98    99    1
    23    98    97    1
    24    25    23    1
    25    24    22    1
    26    23    22    1
    27    22    19    1
    28    58    56   ar
    29    58    60   ar
    30    55    56   ar
    31    55    53   ar
    32    93    92    2
    33    19    20    1
    34    19    18    1
    35    56    54   ar
    36    27    30    1
    37    27    28    1
    38    27    26    1
    39    94    91    1
    40    94    95    1
    41    60    59   ar
    42    91    92    1
    43    91    90    1
    44    53    52   ar
    45    30    31    1
    46    20    21    2
    47    28    29    2
    48    26    32    1
    49    89    87   ar
    50    31    32    1
    51    54    52   ar
    52    54    57   ar
    53    87    88   ar
    54    87    86    1
    55    84    83    2
    56    95    96    1
    57    59    57   ar
    58    52    51    1
    59    90    83   am
    60    90    96    1
    61    86    85    1
    62    42    41    2
    63    83    82    1
    64    70    68   ar
    65    70    71   ar
    66    51    48    1
    67    48    47    1
    68    48    49    1
    69    41    47   am
    70    41    40    1
    71    85    82    1
    72    72    71    1
    73    50    49    2
    74    68    66   ar
    75    43    40    1
    76    43    44    1
    77    82    81    1
    78    45    44    2
    79    71    69   ar
    80    49    61   am
    81    40    39    1
    82    44    46   am
    83    76    75    2
    84    66    65    1
    85    66    67   ar
    86    61    62    1
    87    80    78   am
    88    69    67   ar
    89    65    62    1
    90    77    78    1
    91    77    74    1
    92    39    35   am
    93    73    74    1
    94    73    63   am
    95    75    74    1
    96    78    79    2
    97    36    35    2
    98    62    63    1
    99    35    34    1
   100    63    64    2
   101    38    37    1
   102    34    33    1
   103    34    37    1
