@<TRIPOS>MOLECULE
tmp/4dwaB00.pdb
 98 97 0 0 0
SMALL
GASTEIGER

@<TRIPOS>ATOM
      1  N        -64.5810   36.7670   -7.3540 N.3     1  GLU1       -0.1182
      2  CA       -63.7350   36.8460   -6.1380 C.3     1  GLU1        0.1915
      3  C        -64.3510   36.1540   -4.8680 C.2     1  GLU1        0.2634
      4  O        -63.6120   35.8680   -3.9130 O.2     1  GLU1       -0.2714
      5  CB       -63.3320   38.3150   -5.8250 C.2     1  GLU1        0.0085
      6  CG       -61.9050   38.5250   -5.3010 C.2     1  GLU1        0.0835
      7  CD       -61.5140   39.9690   -4.9870 C.2     1  GLU1        0.3877
      8  OE1      -61.8180   40.8640   -5.8110 O.co2   1  GLU1       -0.2406
      9  OE2      -60.8930   40.2050   -3.9220 O.co2   1  GLU1       -0.2406
     10  N        -65.6850   35.8820   -4.8680 N.am    2  ASN2       -0.1972
     11  CA       -66.3730   35.2410   -3.7550 C.3     2  ASN2        0.1688
     12  C        -66.5960   33.7580   -4.0180 C.2     2  ASN2        0.2292
     13  O        -67.2020   33.4160   -5.0420 O.2     2  ASN2       -0.2864
     14  CB       -67.6980   35.9750   -3.4490 C.3     2  ASN2        0.1181
     15  CG       -67.5580   37.4730   -3.3030 C.2     2  ASN2        0.2629
     16  OD1      -66.4690   37.9830   -2.9810 O.2     2  ASN2       -0.2716
     17  ND2      -68.6620   38.2200   -3.5240 N.am    2  ASN2       -0.0877
     18  N        -71.4940   32.3220    0.8830 N.3    32  ILE32      -0.1245
     19  CA       -70.9120   33.1490   -0.1940 C.3    32  ILE32       0.1561
     20  C        -69.7090   33.7850    0.4720 C.2    32  ILE32       0.2260
     21  O        -69.8650   34.6140    1.3710 O.2    32  ILE32      -0.2867
     22  CB       -71.8770   34.1850   -0.8300 C.3    32  ILE32       0.0252
     23  CG1      -73.1780   33.5170   -1.2940 C.3    32  ILE32       0.0019
     24  CG2      -71.1810   34.9240   -1.9840 C.3    32  ILE32       0.0019
     25  CD1      -74.2750   34.4450   -1.8070 C.3    32  ILE32       0.0001
     26  N        -66.3150   35.9260    0.5280 N.3    34  PRO34      -0.2116
     27  CA       -65.2660   36.8370    0.0560 C.3    34  PRO34       0.1372
     28  C        -63.9280   36.4450    0.7210 C.2    34  PRO34       0.2244
     29  O        -63.8780   35.5080    1.5290 O.2    34  PRO34      -0.2868
     30  CB       -65.7800   38.2240    0.4820 C.3    34  PRO34       0.0268
     31  CG       -67.1630   38.0200    0.9850 C.3    34  PRO34       0.0207
     32  CD       -67.2110   36.6120    1.4700 C.3    34  PRO34       0.0892
     33  N        -68.2020   42.5360    4.9510 N.3    83  ASN83      -0.1225
     34  CA       -68.0390   42.5870    3.5060 C.3    83  ASN83       0.1785
     35  C        -69.2200   43.2430    2.7930 C.2    83  ASN83       0.2597
     36  O        -68.9940   43.9670    1.8250 O.2    83  ASN83      -0.2718
     37  CB       -67.8280   41.1830    3.0070 C.3    83  ASN83       0.1169
     38  CG       -66.6190   40.5170    3.6090 C.2    83  ASN83       0.2627
     39  OD1      -65.5020   41.0450    3.5410 O.2    83  ASN83      -0.2716
     40  ND2      -66.8140   39.3420    4.2020 N.am   83  ASN83      -0.0877
     41  N        -70.4700   42.9970    3.2560 N.am   84  TRP84      -0.1962
     42  CA       -71.7000   43.5880    2.6940 C.3    84  TRP84       0.1771
     43  C        -72.1750   44.8460    3.4310 C.2    84  TRP84       0.2620
     44  O        -72.9280   45.6350    2.8560 O.2    84  TRP84      -0.2715
     45  CB       -72.8350   42.5600    2.6340 C.3    84  TRP84       0.0590
     46  CG       -72.7750   41.7190    1.4080 C.ar   84  TRP84       0.0006
     47  CD1      -73.3800   41.9720    0.2140 C.ar   84  TRP84       0.0946
     48  CD2      -71.9790   40.5420    1.2200 C.ar   84  TRP84       0.0152
     49  NE1      -73.0320   41.0080   -0.7030 N.ar   84  TRP84      -0.2442
     50  CE2      -72.1730   40.1100   -0.1090 C.ar   84  TRP84       0.0810
     51  CE3      -71.1360   39.7900    2.0560 C.ar   84  TRP84       0.0012
     52  CZ2      -71.5520   38.9530   -0.6230 C.ar   84  TRP84       0.0191
     53  CZ3      -70.5470   38.6330    1.5510 C.ar   84  TRP84       0.0001
     54  CH2      -70.7450   38.2340    0.2240 C.ar   84  TRP84       0.0015
     55  N        -71.7490   45.0220    4.7140 N.am   85  TYR85      -0.1960
     56  CA       -72.0470   46.1760    5.5840 C.3    85  TYR85       0.1771
     57  C        -73.4720   46.2650    6.1080 C.2    85  TYR85       0.2619
     58  O        -73.6850   46.7470    7.2250 O.2    85  TYR85      -0.2715
     59  CB       -71.5760   47.4940    4.9670 C.3    85  TYR85       0.0574
     60  CG       -70.1580   47.3990    4.4670 C.ar   85  TYR85      -0.0198
     61  CD1      -69.1070   47.1830    5.3450 C.ar   85  TYR85      -0.0009
     62  CD2      -69.8690   47.4700    3.1080 C.ar   85  TYR85      -0.0009
     63  CE1      -67.8000   47.0700    4.8910 C.ar   85  TYR85       0.0417
     64  CE2      -68.5610   47.3360    2.6370 C.ar   85  TYR85       0.0417
     65  CZ       -67.5280   47.1390    3.5380 C.ar   85  TYR85       0.1957
     66  OH       -66.2280   47.0110    3.1150 O.3    85  TYR85      -0.2866
     67  N        -74.4470   45.8080    5.3160 N.am   86  ASN86      -0.1972
     68  CA       -75.8570   45.8110    5.7040 C.3    86  ASN86       0.1688
     69  C        -76.4680   44.4770    5.3980 C.2    86  ASN86       0.2292
     70  O        -76.0780   43.8720    4.4030 O.2    86  ASN86      -0.2864
     71  CB       -76.5950   46.9270    4.9960 C.3    86  ASN86       0.1181
     72  CG       -76.1590   48.2690    5.4840 C.2    86  ASN86       0.2629
     73  OD1      -76.7250   48.8050    6.4440 O.2    86  ASN86      -0.2716
     74  ND2      -75.1020   48.7950    4.8760 N.am   86  ASN86      -0.0877
     75  N        -79.5510   43.6300    4.4230 N.3    88  GLU88      -0.1231
     76  CA       -80.4010   43.6170    3.2450 C.3    88  GLU88       0.1684
     77  C        -79.7170   43.0950    1.9590 C.2    88  GLU88       0.2434
     78  O        -80.1790   42.0690    1.4440 O.2    88  GLU88      -0.2733
     79  CB       -81.1240   44.9470    3.0510 C.3    88  GLU88       0.0402
     80  CG       -82.0740   44.9550    1.8720 C.3    88  GLU88       0.1161
     81  CD       -82.6740   46.3100    1.5710 C.2    88  GLU88       0.3649
     82  OE1      -83.5520   46.3640    0.6850 O.co2  88  GLU88      -0.2457
     83  OE2      -82.3480   47.2930    2.2710 O.co2  88  GLU88      -0.2457
     84  N        -78.6310   43.7140    1.4350 N.am   89  PRO89      -0.2729
     85  CA       -78.0000   43.1780    0.2080 C.3    89  PRO89       0.1401
     86  C        -77.6340   41.6950    0.3090 C.2    89  PRO89       0.2269
     87  O        -77.9440   40.9090   -0.6060 O.2    89  PRO89      -0.2865
     88  CB       -76.7260   44.0140    0.0550 C.3    89  PRO89       0.0296
     89  CG       -76.9710   45.2200    0.8020 C.3    89  PRO89       0.0237
     90  CD       -77.9430   44.9270    1.8990 C.3    89  PRO89       0.0939
     91  N        -78.8700   38.6020   -1.8900 N.3    93  LEU93      -0.1245
     92  CA       -77.9180   37.7890   -2.6600 C.3    93  LEU93       0.1561
     93  C        -77.9950   36.2900   -2.2790 C.2    93  LEU93       0.2260
     94  O        -78.0540   35.4180   -3.1670 O.2    93  LEU93      -0.2867
     95  CB       -76.4870   38.3100   -2.4840 C.3    93  LEU93       0.0270
     96  CG       -75.4280   37.5890   -3.3040 C.3    93  LEU93       0.0019
     97  CD1      -75.7110   37.7090   -4.7450 C.3    93  LEU93       0.0001
     98  CD2      -74.0370   38.0610   -2.9570 C.3    93  LEU93       0.0001
@<TRIPOS>BOND
     1     1     2    1
     2     2     5    1
     3     2     3    1
     4     5     6    2
     5     8     7   ar
     6     6     7    1
     7    13    12    2
     8     7     9   ar
     9     3    10   am
    10     3     4    2
    11    10    11    1
    12    97    96    1
    13    12    11    1
    14    11    14    1
    15    17    15   am
    16    14    15    1
    17    96    98    1
    18    96    95    1
    19    15    16    2
    20    94    93    2
    21    92    95    1
    22    92    93    1
    23    92    91    1
    24    24    22    1
    25    25    23    1
    26    23    22    1
    27    22    19    1
    28    49    50   ar
    29    49    47   ar
    30    52    50   ar
    31    52    54   ar
    32    87    86    2
    33    19    20    1
    34    19    18    1
    35    50    48   ar
    36    88    85    1
    37    88    89    1
    38    27    30    1
    39    27    26    1
    40    27    28    1
    41    85    86    1
    42    85    84    1
    43    47    46   ar
    44    54    53   ar
    45    20    21    2
    46    30    31    1
    47    26    32    1
    48    82    81   ar
    49    28    29    2
    50    89    90    1
    51    31    32    1
    52    48    46   ar
    53    48    51   ar
    54    46    45    1
    55    84    90    1
    56    84    77   am
    57    78    77    2
    58    53    51   ar
    59    81    80    1
    60    81    83   ar
    61    36    35    2
    62    80    79    1
    63    77    76    1
    64    45    42    1
    65    64    62   ar
    66    64    65   ar
    67    42    41    1
    68    42    43    1
    69    35    41   am
    70    35    34    1
    71    44    43    2
    72    37    34    1
    73    37    38    1
    74    79    76    1
    75    62    60   ar
    76    66    65    1
    77    76    75    1
    78    43    55   am
    79    34    33    1
    80    65    63   ar
    81    39    38    2
    82    38    40   am
    83    70    69    2
    84    60    59    1
    85    60    61   ar
    86    55    56    1
    87    74    72   am
    88    63    61   ar
    89    59    56    1
    90    71    72    1
    91    71    68    1
    92    67    68    1
    93    67    57   am
    94    69    68    1
    95    72    73    2
    96    56    57    1
    97    57    58    2
