@<TRIPOS>MOLECULE
tmp/4dwaA00.pdb
 98 97 0 0 0
SMALL
GASTEIGER

@<TRIPOS>ATOM
      1  N        -55.4340   46.2300    5.4480 N.3     1  GLU1       -0.1231
      2  CA       -56.1980   46.2520    4.1710 C.3     1  GLU1        0.1699
      3  C        -55.6410   45.4060    2.9940 C.2     1  GLU1        0.2592
      4  O        -56.4260   44.8870    2.1790 O.2     1  GLU1       -0.2718
      5  CB       -56.5120   47.6890    3.6790 C.3     1  GLU1        0.0402
      6  CG       -57.9460   48.1350    3.9900 C.3     1  GLU1        0.1161
      7  CD       -59.1040   47.3450    3.3820 C.2     1  GLU1        0.3649
      8  OE1      -59.2800   47.4160    2.1410 O.co2   1  GLU1       -0.2457
      9  OE2      -59.8610   46.7010    4.1530 O.co2   1  GLU1       -0.2457
     10  N        -54.2950   45.3260    2.8910 N.am    2  ASN2       -0.1974
     11  CA       -53.5700   44.5750    1.8890 C.3     2  ASN2        0.1688
     12  C        -53.3360   43.1500    2.3870 C.2     2  ASN2        0.2292
     13  O        -52.8090   42.9240    3.4950 O.2     2  ASN2       -0.2864
     14  CB       -52.2440   45.2520    1.5780 C.3     2  ASN2        0.1181
     15  CG       -52.3550   46.7110    1.2280 C.2     2  ASN2        0.2629
     16  OD1      -53.3960   47.1740    0.7340 O.2     2  ASN2       -0.2716
     17  ND2      -51.2770   47.4670    1.4600 N.am    2  ASN2       -0.0877
     18  N        -48.2330   40.9850   -1.9040 N.3    32  ILE32      -0.1245
     19  CA       -48.8720   41.9470   -0.9880 C.3    32  ILE32       0.1561
     20  C        -49.9830   42.5510   -1.8430 C.2    32  ILE32       0.2260
     21  O        -49.7190   43.2640   -2.8240 O.2    32  ILE32      -0.2867
     22  CB       -47.9190   43.0110   -0.3860 C.3    32  ILE32       0.0252
     23  CG1      -46.7230   42.3460    0.2630 C.3    32  ILE32       0.0019
     24  CG2      -48.6690   43.9120    0.6110 C.3    32  ILE32       0.0019
     25  CD1      -45.6650   43.2800    0.7680 C.3    32  ILE32       0.0001
     26  N        -53.3150   44.7530   -2.4720 N.3    34  PRO34      -0.2116
     27  CA       -54.3730   45.7390   -2.2260 C.3    34  PRO34       0.1372
     28  C        -55.6330   45.3310   -3.0140 C.2    34  PRO34       0.2244
     29  O        -55.6070   44.3190   -3.7310 O.2    34  PRO34      -0.2868
     30  CB       -53.7800   47.0450   -2.7850 C.3    34  PRO34       0.0268
     31  CG       -52.3590   46.7470   -3.1370 C.3    34  PRO34       0.0207
     32  CD       -52.3220   45.2870   -3.4290 C.3    34  PRO34       0.0892
     33  N        -50.7270   50.7140   -7.5230 N.3    83  ASN83      -0.1225
     34  CA       -51.0320   50.9330   -6.1050 C.3    83  ASN83       0.1785
     35  C        -49.9120   51.6480   -5.3440 C.2    83  ASN83       0.2597
     36  O        -50.2210   52.4950   -4.5030 O.2    83  ASN83      -0.2718
     37  CB       -51.3510   49.6090   -5.4520 C.3    83  ASN83       0.1169
     38  CG       -52.5070   48.9200   -6.0960 C.2    83  ASN83       0.2627
     39  OD1      -53.5880   49.4750   -6.2260 O.2    83  ASN83      -0.2716
     40  ND2      -52.3140   47.6890   -6.5090 N.am   83  ASN83      -0.0877
     41  N        -48.6190   51.3070   -5.6270 N.am   84  TRP84      -0.1962
     42  CA       -47.4420   51.9220   -4.9990 C.3    84  TRP84       0.1771
     43  C        -46.8420   53.0730   -5.8280 C.2    84  TRP84       0.2620
     44  O        -46.1200   53.9100   -5.2670 O.2    84  TRP84      -0.2715
     45  CB       -46.3690   50.8810   -4.6690 C.3    84  TRP84       0.0590
     46  CG       -46.6020   50.2070   -3.3690 C.ar   84  TRP84       0.0006
     47  CD1      -46.1140   50.5840   -2.1520 C.ar   84  TRP84       0.0946
     48  CD2      -47.4500   49.0930   -3.1370 C.ar   84  TRP84       0.0152
     49  NE1      -46.5880   49.7510   -1.1750 N.ar   84  TRP84      -0.2442
     50  CE2      -47.4130   48.8180   -1.7540 C.ar   84  TRP84       0.0810
     51  CE3      -48.2260   48.2740   -3.9650 C.ar   84  TRP84       0.0012
     52  CZ2      -48.1250   47.7550   -1.1820 C.ar   84  TRP84       0.0191
     53  CZ3      -48.9060   47.2020   -3.4000 C.ar   84  TRP84       0.0001
     54  CH2      -48.8630   46.9610   -2.0240 C.ar   84  TRP84       0.0015
     55  N        -47.1180   53.1070   -7.1550 N.am   85  TYR85      -0.1960
     56  CA       -46.6810   54.1370   -8.1070 C.3    85  TYR85       0.1771
     57  C        -45.2000   54.1330   -8.4700 C.2    85  TYR85       0.2619
     58  O        -44.8430   54.4540   -9.6160 O.2    85  TYR85      -0.2715
     59  CB       -47.1660   55.5250   -7.6920 C.3    85  TYR85       0.0574
     60  CG       -48.6370   55.5370   -7.3550 C.ar   85  TYR85      -0.0198
     61  CD1      -49.5910   55.2620   -8.3210 C.ar   85  TYR85      -0.0009
     62  CD2      -49.0730   55.7770   -6.0580 C.ar   85  TYR85      -0.0009
     63  CE1      -50.9460   55.2300   -8.0120 C.ar   85  TYR85       0.0417
     64  CE2      -50.4270   55.7340   -5.7320 C.ar   85  TYR85       0.0417
     65  CZ       -51.3640   55.4660   -6.7200 C.ar   85  TYR85       0.1957
     66  OH       -52.7140   55.4290   -6.4540 O.3    85  TYR85      -0.2866
     67  N        -44.3380   53.7660   -7.5010 N.am   86  ASN86      -0.1972
     68  CA       -42.8950   53.6750   -7.7050 C.3    86  ASN86       0.1688
     69  C        -42.3800   52.3670   -7.1560 C.2    86  ASN86       0.2292
     70  O        -42.9010   51.8960   -6.1490 O.2    86  ASN86      -0.2864
     71  CB       -42.1970   54.8350   -7.0700 C.3    86  ASN86       0.1181
     72  CG       -42.5250   56.1280   -7.7540 C.2    86  ASN86       0.2629
     73  OD1      -41.8210   56.5560   -8.6680 O.2    86  ASN86      -0.2716
     74  ND2      -43.6160   56.7520   -7.3580 N.am   86  ASN86      -0.0877
     75  N        -39.4730   51.5430   -5.7600 N.3    88  GLU88      -0.1231
     76  CA       -38.7570   51.6260   -4.4860 C.3    88  GLU88       0.1684
     77  C        -39.5990   51.2580   -3.2370 C.2    88  GLU88       0.2434
     78  O        -39.2330   50.2880   -2.5760 O.2    88  GLU88      -0.2733
     79  CB       -37.9870   52.9470   -4.3480 C.3    88  GLU88       0.0402
     80  CG       -37.2080   53.0740   -3.0500 C.3    88  GLU88       0.1161
     81  CD       -36.6590   54.4600   -2.8140 C.2    88  GLU88       0.3649
     82  OE1      -36.1660   54.7360   -1.6920 O.co2  88  GLU88      -0.2457
     83  OE2      -36.7840   55.2950   -3.7440 O.co2  88  GLU88      -0.2457
     84  N        -40.7170   51.9530   -2.9210 N.am   89  PRO89      -0.2729
     85  CA       -41.4880   51.5900   -1.7120 C.3    89  PRO89       0.1401
     86  C        -41.8890   50.1180   -1.6790 C.2    89  PRO89       0.2269
     87  O        -41.7060   49.4240   -0.6680 O.2    89  PRO89      -0.2865
     88  CB       -42.7450   52.4880   -1.8030 C.3    89  PRO89       0.0296
     89  CG       -42.3850   53.5950   -2.6670 C.3    89  PRO89       0.0237
     90  CD       -41.3050   53.1290   -3.5990 C.3    89  PRO89       0.0939
     91  N        -41.0210   47.2460    0.9670 N.3    93  LEU93      -0.1245
     92  CA       -42.0670   46.5520    1.7120 C.3    93  LEU93       0.1561
     93  C        -42.0000   45.0240    1.5150 C.2    93  LEU93       0.2260
     94  O        -42.0550   44.2600    2.4960 O.2    93  LEU93      -0.2867
     95  CB       -43.4420   47.0880    1.2960 C.3    93  LEU93       0.0270
     96  CG       -44.6350   46.4950    2.0370 C.3    93  LEU93       0.0019
     97  CD1      -44.5190   46.6740    3.5490 C.3    93  LEU93       0.0001
     98  CD2      -45.9420   47.0440    1.4930 C.3    93  LEU93       0.0001
@<TRIPOS>BOND
     1    58    57    2
     2    73    72    2
     3    57    56    1
     4    57    67   am
     5    61    63   ar
     6    61    60   ar
     7    56    59    1
     8    56    55    1
     9    63    65   ar
    10    72    74   am
    11    72    71    1
    12    68    67    1
    13    68    69    1
    14    68    71    1
    15    59    60    1
    16    33    34    1
    17    60    62   ar
    18    69    70    2
    19    55    43   am
    20    65    66    1
    21    65    64   ar
    22    40    38   am
    23    39    38    2
    24    34    37    1
    25    34    35    1
    26    38    37    1
    27    62    64   ar
    28    43    44    2
    29    43    42    1
    30    75    76    1
    31    41    35   am
    32    41    42    1
    33    35    36    2
    34    42    45    1
    35    45    46    1
    36    76    79    1
    37    76    77    1
    38    79    80    1
    39    51    53   ar
    40    51    48   ar
    41    83    81   ar
    42    29    28    2
    43    90    84    1
    44    90    89    1
    45    32    31    1
    46    32    26    1
    47    53    54   ar
    48    46    48   ar
    49    46    47   ar
    50    77    84   am
    51    77    78    2
    52    48    50   ar
    53    31    30    1
    54    80    81    1
    55    28    27    1
    56    84    85    1
    57    21    20    2
    58    81    82   ar
    59    30    27    1
    60    89    88    1
    61    26    27    1
    62    47    49   ar
    63    54    52   ar
    64    18    19    1
    65    20    19    1
    66    88    85    1
    67    50    52   ar
    68    50    49   ar
    69    85    86    1
    70    86    87    2
    71    19    22    1
    72    22    23    1
    73    22    24    1
    74    23    25    1
    75    16    15    2
    76    91    92    1
    77    15    17   am
    78    15    14    1
    79    95    92    1
    80    95    96    1
    81    98    96    1
    82    93    92    1
    83    93    94    2
    84    14    11    1
    85    11    12    1
    86    11    10    1
    87    96    97    1
    88     8     7   ar
    89     4     3    2
    90    12    13    2
    91    10     3   am
    92     3     2    1
    93     7     6    1
    94     7     9   ar
    95     5     6    1
    96     5     2    1
    97     2     1    1
