@<TRIPOS>MOLECULE
tmp/4dwbA01.pdb
 181 166 0 0 0
SMALL
GASTEIGER

@<TRIPOS>ATOM
      1  N          4.4920   19.7740  169.1730 N.3    91  GLN91      -0.1245
      2  CA         5.3520   18.8660  169.9260 C.3    91  GLN91       0.1566
      3  C          6.3130   18.1740  168.9600 C.2    91  GLN91       0.2260
      4  O          7.5030   18.1250  169.1860 O.2    91  GLN91      -0.2867
      5  CB         4.5330   17.7440  170.6320 C.3    91  GLN91       0.0367
      6  CG         5.5190   16.7690  171.2910 C.3    91  GLN91       0.0905
      7  CD         4.9010   15.7850  172.2040 C.2    91  GLN91       0.2608
      8  OE1        3.9460   15.0760  171.8280 O.2    91  GLN91      -0.2717
      9  NE2        5.4390   15.6980  173.4020 N.am   91  GLN91      -0.0878
     10  N          9.1780   20.4810  168.0750 N.3    94  TYR94      -0.1227
     11  CA        10.1640   20.6200  169.1540 C.3    94  TYR94       0.1736
     12  C         11.0070   19.3570  169.4570 C.2    94  TYR94       0.2595
     13  O         12.1550   19.4870  169.8360 O.2    94  TYR94      -0.2718
     14  CB         9.5400   21.2450  170.4490 C.3    94  TYR94       0.0548
     15  CG         9.5060   22.7530  170.3740 C.ar   94  TYR94      -0.0200
     16  CD1       10.6890   23.4890  170.3550 C.ar   94  TYR94      -0.0009
     17  CD2        8.3170   23.4340  170.3490 C.ar   94  TYR94      -0.0009
     18  CE1       10.6660   24.9060  170.2550 C.ar   94  TYR94       0.0417
     19  CE2        8.2660   24.8190  170.2560 C.ar   94  TYR94       0.0417
     20  CZ         9.4810   25.5590  170.2080 C.ar   94  TYR94       0.1957
     21  OH         9.5000   26.9530  170.1000 O.3    94  TYR94      -0.2866
     22  N         10.4580   18.1600  169.2170 N.am   95  LEU95      -0.1980
     23  CA        11.1430   16.9040  169.5220 C.3    95  LEU95       0.1596
     24  C         12.1980   16.5100  168.4790 C.2    95  LEU95       0.2287
     25  O         13.2460   15.9360  168.7940 O.2    95  LEU95      -0.2864
     26  CB        10.0720   15.7930  169.6340 C.3    95  LEU95       0.0297
     27  CG         9.0040   15.7610  170.8020 C.3    95  LEU95       0.0022
     28  CD1        8.4070   14.3100  170.9000 C.3    95  LEU95       0.0001
     29  CD2        9.5920   16.1670  172.1470 C.3    95  LEU95       0.0001
     30  N         14.8600   19.0540  169.2510 N.3    98  ASP98      -0.1225
     31  CA        15.3950   18.6630  170.5760 C.3    98  ASP98       0.1805
     32  C         16.3340   17.4600  170.4930 C.2    98  ASP98       0.2597
     33  O         17.3870   17.4670  171.1610 O.2    98  ASP98      -0.2718
     34  CB        14.2510   18.4240  171.6130 C.3    98  ASP98       0.1424
     35  CG        14.7540   17.9870  173.0230 C.2    98  ASP98       0.3668
     36  OD1       15.3070   18.8200  173.7710 O.co2  98  ASP98      -0.2456
     37  OD2       14.5640   16.8020  173.4110 O.co2  98  ASP98      -0.2456
     38  N         15.9350   16.4250  169.7430 N.am   99  ASP99      -0.1974
     39  CA        16.8120   15.2730  169.5260 C.3    99  ASP99       0.1709
     40  C         18.1140   15.5850  168.7520 C.2    99  ASP99       0.2293
     41  O         19.1400   14.9750  169.0100 O.2    99  ASP99      -0.2864
     42  CB        16.0690   14.1030  168.8880 C.3    99  ASP99       0.1436
     43  CG        14.9760   13.5430  169.7890 C.2    99  ASP99       0.3671
     44  OD1       15.0680   13.6660  171.0250 O.co2  99  ASP99      -0.2456
     45  OD2       13.9670   13.0150  169.2580 O.co2  99  ASP99      -0.2456
     46  N         19.9900   17.4310  171.7830 N.3   102  ASP102     -0.1239
     47  CA        20.2920   16.7640  173.0150 C.3   102  ASP102      0.1674
     48  C         21.2730   15.6360  172.7370 C.2   102  ASP102      0.2266
     49  O         21.6660   14.9160  173.6520 O.2   102  ASP102     -0.2867
     50  CB        18.9890   16.2850  173.7130 C.3   102  ASP102      0.1410
     51  CG        18.3130   17.4020  174.5300 C.2   102  ASP102      0.3668
     52  OD1       18.9720   18.4270  174.7410 O.co2 102  ASP102     -0.2456
     53  OD2       17.1460   17.2690  174.9990 O.co2 102  ASP102     -0.2456
     54  N         20.5160   12.9580  170.8990 N.3   104  SER104     -0.1217
     55  CA        19.7620   11.7440  171.2790 C.3   104  SER104      0.1889
     56  C         19.7760   10.5960  170.2390 C.2   104  SER104      0.2288
     57  O         19.9650   10.8460  169.0260 O.2   104  SER104     -0.2866
     58  CB        18.3340   12.1360  171.6710 C.3   104  SER104      0.2089
     59  OG        18.3220   13.0320  172.7920 O.3   104  SER104     -0.2183
     60  N         13.7520    7.4240  170.1010 N.3   107  ARG107     -0.1245
     61  CA        12.5200    7.9180  170.6860 C.3   107  ARG107      0.1563
     62  C         11.2970    7.0650  170.2370 C.2   107  ARG107      0.2260
     63  O         11.2080    6.6770  169.0870 O.2   107  ARG107     -0.2867
     64  CB        12.2960    9.3950  170.3190 C.3   107  ARG107      0.0307
     65  CG        11.0600   10.0300  171.0160 C.3   107  ARG107      0.0489
     66  CD        10.8740   11.5580  170.7390 C.3   107  ARG107      0.2205
     67  NE        11.9550   12.3550  171.3340 N.pl3 107  ARG107     -0.0865
     68  CZ        11.9510   12.8440  172.5970 C.cat 107  ARG107      0.5346
     69  NH1       10.9300   12.5890  173.4190 N.pl3 107  ARG107      0.1354
     70  NH2       12.9800   13.5700  173.0610 N.pl3 107  ARG107      0.1354
     71  N          7.8410   27.8690  175.2130 N.3   163  THR163     -0.1218
     72  CA         8.5450   26.6660  174.9250 C.3   163  THR163      0.1862
     73  C          9.9440   26.8440  174.3710 C.2   163  THR163      0.2287
     74  O         10.8490   26.0840  174.7360 O.2   163  THR163     -0.2866
     75  CB         7.7120   25.6600  173.9830 C.3   163  THR163      0.1770
     76  OG1        6.4120   25.3660  174.5450 O.3   163  THR163     -0.2211
     77  CG2        8.4530   24.3480  173.8830 C.3   163  THR163      0.0375
     78  N         13.3600   25.9330  176.2370 N.3   167  GLN167     -0.1245
     79  CA        14.3930   25.1260  175.6300 C.3   167  GLN167      0.1566
     80  C         15.7790   25.7930  175.8210 C.2   167  GLN167      0.2260
     81  O         16.7880   25.1230  176.1300 O.2   167  GLN167     -0.2867
     82  CB        14.0500   24.8940  174.1480 C.3   167  GLN167      0.0367
     83  CG        14.7340   23.7510  173.5780 C.3   167  GLN167      0.0905
     84  CD        14.2180   22.3690  174.0400 C.2   167  GLN167      0.2608
     85  OE1       13.5510   22.2000  175.0830 O.2   167  GLN167     -0.2717
     86  NE2       14.6090   21.3690  173.2890 N.am  167  GLN167     -0.0878
     87  N         16.8820   25.1740  179.2630 N.3   170  ASP170     -0.1239
     88  CA        17.2640   23.8350  179.4300 C.3   170  ASP170      0.1674
     89  C         18.6580   23.5400  178.8620 C.2   170  ASP170      0.2266
     90  O         19.4780   22.8380  179.5070 O.2   170  ASP170     -0.2867
     91  CB        16.2230   22.9330  178.8230 C.3   170  ASP170      0.1410
     92  CG        16.6830   21.5290  178.8030 C.2   170  ASP170      0.3668
     93  OD1       16.3320   20.7830  179.7190 O.co2 170  ASP170     -0.2456
     94  OD2       17.5030   21.2010  177.9450 O.co2 170  ASP170     -0.2456
     95  N          9.7990   24.9720  179.3850 N.3   207  LYS207     -0.1231
     96  CA        10.1020   23.9810  178.3430 C.3   207  LYS207      0.1693
     97  C          9.0290   22.9420  178.2170 C.2   207  LYS207      0.2592
     98  O          8.8490   22.3680  177.1290 O.2   207  LYS207     -0.2718
     99  CB        11.4910   23.3490  178.5770 C.3   207  LYS207      0.0285
    100  CG        11.4490   22.1410  179.5650 C.3   207  LYS207      0.0035
    101  CD        12.6300   21.2270  179.3030 C.3   207  LYS207      0.0206
    102  CE        12.8960   20.3550  180.5000 C.3   207  LYS207      0.1093
    103  NZ        14.1710   19.6620  180.3950 N.3   207  LYS207     -0.1314
    104  N          8.2610   22.7140  179.3000 N.am  208  THR208     -0.1953
    105  CA         7.2420   21.6340  179.2750 C.3   208  THR208      0.1897
    106  C          5.7770   22.0190  179.5060 C.2   208  THR208      0.2313
    107  O          4.8830   21.5350  178.7910 O.2   208  THR208     -0.2863
    108  CB         7.6050   20.4300  180.2150 C.3   208  THR208      0.1794
    109  OG1        8.8980   19.8880  179.8840 O.3   208  THR208     -0.2208
    110  CG2        6.6230   19.2770  180.0260 C.3   208  THR208      0.0378
    111  N          3.0420   23.9320  176.7980 N.3   211  TYR211     -0.1241
    112  CA         2.6180   23.2530  175.5570 C.3   211  TYR211      0.1605
    113  C          2.0000   21.9390  175.9290 C.2   211  TYR211      0.2264
    114  O          1.1570   21.4170  175.2030 O.2   211  TYR211     -0.2867
    115  CB         3.7800   23.0630  174.5460 C.3   211  TYR211      0.0534
    116  CG         4.5570   21.7780  174.6590 C.ar  211  TYR211     -0.0201
    117  CD1        4.1250   20.6310  173.9910 C.ar  211  TYR211     -0.0009
    118  CD2        5.7540   21.7130  175.3900 C.ar  211  TYR211     -0.0009
    119  CE1        4.8200   19.4410  174.0740 C.ar  211  TYR211      0.0417
    120  CE2        6.4720   20.4900  175.5000 C.ar  211  TYR211      0.0417
    121  CZ         5.9940   19.3680  174.8120 C.ar  211  TYR211      0.1957
    122  OH         6.6090   18.1260  174.8690 O.3   211  TYR211     -0.2866
    123  N          7.2180   16.5100  184.2000 N.3   247  GLN247     -0.1245
    124  CA         8.6910   16.5770  183.9790 C.3   247  GLN247      0.1566
    125  C          9.4970   15.8670  185.0280 C.2   247  GLN247      0.2260
    126  O         10.5840   15.3560  184.7520 O.2   247  GLN247     -0.2867
    127  CB         9.1660   18.0180  183.9020 C.3   247  GLN247      0.0367
    128  CG        10.5540   18.1900  183.2810 C.3   247  GLN247      0.0905
    129  CD        10.7360   17.4040  181.9620 C.2   247  GLN247      0.2608
    130  OE1       10.0030   17.6090  180.9950 O.2   247  GLN247     -0.2717
    131  NE2       11.7440   16.5340  181.9280 N.am  247  GLN247     -0.0878
    132  N          9.2580   12.3440  184.1090 N.3   250  ASP250     -0.1225
    133  CA        10.2210   12.2450  182.9500 C.3   250  ASP250      0.1805
    134  C         11.6840   12.0110  183.4300 C.2   250  ASP250      0.2597
    135  O         12.2830   10.9560  183.1590 O.2   250  ASP250     -0.2718
    136  CB        10.1410   13.5190  182.0730 C.3   250  ASP250      0.1424
    137  CG        10.7910   13.3420  180.6980 C.2   250  ASP250      0.3668
    138  OD1       10.4950   12.3410  180.0270 O.co2 250  ASP250     -0.2456
    139  OD2       11.5820   14.2170  180.2810 O.co2 250  ASP250     -0.2456
    140  N         12.2060   12.9790  184.2040 N.am  251  ASP251     -0.1974
    141  CA        13.5650   12.9140  184.8000 C.3   251  ASP251      0.1709
    142  C         13.8400   11.6580  185.5920 C.2   251  ASP251      0.2293
    143  O         14.8960   11.0070  185.4160 O.2   251  ASP251     -0.2864
    144  CB        13.8880   14.1410  185.6790 C.3   251  ASP251      0.1436
    145  CG        13.7740   15.4540  184.9460 C.2   251  ASP251      0.3671
    146  OD1       13.6920   15.4790  183.6930 O.co2 251  ASP251     -0.2456
    147  OD2       13.7790   16.5030  185.6370 O.co2 251  ASP251     -0.2456
    148  N         14.2390    8.7020  182.9660 N.3   254  ASP254     -0.1239
    149  CA        15.4930    8.8280  182.1950 C.3   254  ASP254      0.1674
    150  C         16.6190    8.0980  182.8410 C.2   254  ASP254      0.2266
    151  O         17.5060    7.5710  182.1340 O.2   254  ASP254     -0.2867
    152  CB        15.9290   10.2700  182.1220 C.3   254  ASP254      0.1410
    153  CG        16.9260   10.5160  181.0230 C.2   254  ASP254      0.3668
    154  OD1       16.4350   10.8550  179.9240 O.co2 254  ASP254     -0.2456
    155  OD2       18.1670   10.4310  181.2820 O.co2 254  ASP254     -0.2456
    156  N         13.3740    5.1100  174.5040 N.3   264  LYS264     -0.1197
    157  CA        14.1630    6.3320  174.3000 C.3   264  LYS264      0.1778
    158  C         15.2950    6.1940  175.3250 C.2   264  LYS264      0.2305
    159  O         15.0320    6.1900  176.5320 O.2   264  LYS264     -0.2863
    160  CB        13.3210    7.6540  174.4430 C.2   264  LYS264     -0.0042
    161  CG        13.1680    8.3140  175.8580 C.2   264  LYS264     -0.0273
    162  CD        12.1990    9.5590  175.9270 C.3   264  LYS264      0.0462
    163  CE        12.2220   10.2140  177.3260 C.3   264  LYS264      0.1140
    164  NZ        11.3110   11.4140  177.5330 N.3   264  LYS264     -0.1310
    165  N         20.6070   11.9290  180.4950 N.3   268  ASP268     -0.1239
    166  CA        20.5690   13.0800  181.4200 C.3   268  ASP268      0.1674
    167  C         21.8850   13.2230  182.2210 C.2   268  ASP268      0.2266
    168  O         22.3740   14.3400  182.4060 O.2   268  ASP268     -0.2867
    169  CB        19.3630   13.0140  182.3810 C.3   268  ASP268      0.1410
    170  CG        18.0660   13.6060  181.7910 C.2   268  ASP268      0.3668
    171  OD1       18.0660   14.2980  180.7400 O.co2 268  ASP268     -0.2456
    172  OD2       17.0220   13.4010  182.4260 O.co2 268  ASP268     -0.2456
    173  N         22.4150   17.2480  182.6340 N.3   273  LYS273     -0.1245
    174  CA        21.1560   17.9790  182.7570 C.3   273  LYS273      0.1561
    175  C         20.9030   18.4560  184.1910 C.2   273  LYS273      0.2260
    176  O         21.2470   17.7650  185.1740 O.2   273  LYS273     -0.2867
    177  CB        19.9140   17.2020  182.2120 C.3   273  LYS273      0.0271
    178  CG        19.8620   16.9460  180.6630 C.3   273  LYS273      0.0035
    179  CD        19.6290   18.1960  179.8000 C.3   273  LYS273      0.0206
    180  CE        20.4370   18.1130  178.4850 C.3   273  LYS273      0.1093
    181  NZ        19.7460   18.4990  177.1700 N.3   273  LYS273     -0.1314
@<TRIPOS>BOND
     1    10    11    1
     2    24    25    2
     3    24    23    1
     4    40    41    2
     5    40    39    1
     6    42    39    1
     7    42    43    1
     8     3     4    2
     9     3     2    1
    10    57    56    2
    11    63    62    2
    12    11    12    1
    13    11    14    1
    14     1     2    1
    15    22    12   am
    16    22    23    1
    17    30    31    1
    18    45    43   ar
    19    12    13    2
    20    23    26    1
    21    39    38    1
    22    26    27    1
    23    38    32   am
    24    43    44   ar
    25     2     5    1
    26    21    20    1
    27    60    61    1
    28    20    18   ar
    29    20    19   ar
    30    62    61    1
    31    56    55    1
    32    18    16   ar
    33    19    17   ar
    34    64    61    1
    35    64    65    1
    36    17    15   ar
    37    16    15   ar
    38    15    14    1
    39    32    31    1
    40    32    33    2
    41    31    34    1
    42     5     6    1
    43    66    65    1
    44    66    67    1
    45    27    28    1
    46    27    29    1
    47    54    55    1
    48    55    58    1
    49     6     7    1
    50    67    68    2
    51    34    35    1
    52    58    59    1
    53    46    47    1
    54     8     7    2
    55     7     9   am
    56    68    70    1
    57    68    69    1
    58    48    47    1
    59    48    49    2
    60    47    50    1
    61    35    37   ar
    62    35    36   ar
    63    86    84   am
    64    83    84    1
    65    83    82    1
    66    50    51    1
    67    77    75    1
    68    75    76    1
    69    75    72    1
    70   117   119   ar
    71   117   116   ar
    72    84    85    2
    73   119   121   ar
    74    82    79    1
    75   157   160    1
    76   157   156    1
    77   157   158    1
    78    73    74    2
    79    73    72    1
    80   160   161    2
    81    51    52   ar
    82    51    53   ar
    83   115   116    1
    84   115   112    1
    85   116   118   ar
    86   121   122    1
    87   121   120   ar
    88    72    71    1
    89   114   113    2
    90   158   159    2
    91   118   120   ar
    92   112   113    1
    93   112   111    1
    94    79    80    1
    95    79    78    1
    96    80    81    2
    97   161   162    1
    98   162   163    1
    99    98    97    2
   100   181   180    1
   101   163   164    1
   102    94    92   ar
   103    97    96    1
   104    97   104   am
   105    96    99    1
   106    96    95    1
   107   180   179    1
   108    99   100    1
   109   107   106    2
   110    92    91    1
   111    92    93   ar
   112    91    88    1
   113    89    88    1
   114    89    90    2
   115    87    88    1
   116   105   104    1
   117   105   106    1
   118   105   108    1
   119   101   100    1
   120   101   102    1
   121   179   178    1
   122   109   108    1
   123   154   153   ar
   124   110   108    1
   125   138   137   ar
   126   139   137   ar
   127   103   102    1
   128   165   166    1
   129   178   177    1
   130   137   136    1
   131   171   170   ar
   132   130   129    2
   133   153   155   ar
   134   153   152    1
   135   166   167    1
   136   166   169    1
   137   170   169    1
   138   170   172   ar
   139   131   129   am
   140   129   128    1
   141   136   133    1
   142   152   149    1
   143   151   150    2
   144   149   150    1
   145   149   148    1
   146   177   174    1
   147   167   168    2
   148   173   174    1
   149   174   175    1
   150   133   134    1
   151   133   132    1
   152   135   134    2
   153   128   127    1
   154   134   140   am
   155   146   145   ar
   156   127   124    1
   157   124   123    1
   158   124   125    1
   159   175   176    2
   160   140   141    1
   161   126   125    2
   162   141   142    1
   163   141   144    1
   164   145   147   ar
   165   145   144    1
   166   143   142    2
