@<TRIPOS>MOLECULE
tmp/4dwgA00.pdb
 204 191 0 0 0
SMALL
GASTEIGER

@<TRIPOS>ATOM
      1  N          7.1290   19.1880  165.6870 N.3    93  HIS93      -0.1226
      2  CA         8.1510   20.2460  165.5420 C.3    93  HIS93       0.1752
      3  C          9.1400   20.3200  166.6930 C.2    93  HIS93       0.2596
      4  O         10.3730   20.1460  166.4970 O.2    93  HIS93      -0.2718
      5  CB         7.4390   21.5750  165.3080 C.3    93  HIS93       0.0759
      6  CG         8.3060   22.7970  165.4690 C.ar   93  HIS93       0.0818
      7  ND1        9.1350   23.2570  164.4850 N.ar   93  HIS93      -0.2268
      8  CD2        8.3940   23.6980  166.4830 C.ar   93  HIS93       0.1154
      9  CE1        9.7030   24.4110  164.8700 C.ar   93  HIS93       0.1986
     10  NE2        9.2780   24.6850  166.0920 N.ar   93  HIS93      -0.2212
     11  N          8.6510   20.5270  167.8940 N.am   94  TYR94      -0.1962
     12  CA         9.5740   20.6370  169.0230 C.3    94  TYR94       0.1771
     13  C         10.4390   19.3770  169.2090 C.2    94  TYR94       0.2619
     14  O         11.6330   19.4840  169.5220 O.2    94  TYR94      -0.2715
     15  CB         8.8510   20.9030  170.3700 C.3    94  TYR94       0.0574
     16  CG         8.0670   22.1980  170.4880 C.ar   94  TYR94      -0.0198
     17  CD1        8.5460   23.3840  169.9790 C.ar   94  TYR94      -0.0009
     18  CD2        6.8280   22.1900  171.0940 C.ar   94  TYR94      -0.0009
     19  CE1        7.8060   24.6010  170.1000 C.ar   94  TYR94       0.0417
     20  CE2        6.0560   23.3680  171.2450 C.ar   94  TYR94       0.0417
     21  CZ         6.5610   24.5600  170.7100 C.ar   94  TYR94       0.1957
     22  OH         5.8640   25.6880  170.8410 O.3    94  TYR94      -0.2866
     23  N          9.8440   18.1730  169.0740 N.am   95  LEU95      -0.1977
     24  CA        10.6600   16.9390  169.3220 C.3    95  LEU95       0.1596
     25  C         11.7210   16.7000  168.2500 C.2    95  LEU95       0.2287
     26  O         12.7940   16.2240  168.5510 O.2    95  LEU95      -0.2864
     27  CB         9.7540   15.6900  169.5420 C.3    95  LEU95       0.0297
     28  CG         8.7610   15.8200  170.7000 C.3    95  LEU95       0.0022
     29  CD1        8.0040   14.4660  170.9540 C.3    95  LEU95       0.0001
     30  CD2        9.4710   16.3060  171.9480 C.3    95  LEU95       0.0001
     31  N         13.2820   19.0980  166.5240 N.3    97  GLU97      -0.1231
     32  CA        14.3580   20.0530  166.7760 C.3    97  GLU97       0.1699
     33  C         15.1090   19.7630  168.0880 C.2    97  GLU97       0.2592
     34  O         16.3860   19.8640  168.1440 O.2    97  GLU97      -0.2718
     35  CB        13.7930   21.4960  166.7580 C.3    97  GLU97       0.0402
     36  CG        13.0190   21.8510  165.4760 C.3    97  GLU97       0.1161
     37  CD        13.8620   21.9220  164.2250 C.2    97  GLU97       0.3649
     38  OE1       15.1080   21.6600  164.2930 O.co2  97  GLU97      -0.2457
     39  OE2       13.2540   22.1950  163.1370 O.co2  97  GLU97      -0.2457
     40  N         14.3540   19.3700  169.1110 N.am   98  ASP98      -0.1960
     41  CA        14.9070   19.0090  170.4000 C.3    98  ASP98       0.1840
     42  C         15.8830   17.8230  170.2750 C.2    98  ASP98       0.2622
     43  O         16.9600   17.8560  170.8930 O.2    98  ASP98      -0.2715
     44  CB        13.8160   18.7240  171.4590 C.3    98  ASP98       0.1450
     45  CG        14.3700   18.3340  172.8450 C.2    98  ASP98       0.3671
     46  OD1       14.8720   19.2020  173.5660 O.co2  98  ASP98      -0.2456
     47  OD2       14.2560   17.1570  173.2690 O.co2  98  ASP98      -0.2456
     48  N         15.4820   16.7820  169.5260 N.am   99  ASP99      -0.1971
     49  CA        16.3530   15.6230  169.3860 C.3    99  ASP99       0.1709
     50  C         17.6490   15.9860  168.7150 C.2    99  ASP99       0.2293
     51  O         18.6740   15.4080  169.0750 O.2    99  ASP99      -0.2864
     52  CB        15.6980   14.5020  168.6390 C.3    99  ASP99       0.1436
     53  CG        14.7360   13.7760  169.4630 C.2    99  ASP99       0.3671
     54  OD1       14.8410   13.8260  170.7210 O.co2  99  ASP99      -0.2456
     55  OD2       13.8800   13.1180  168.8510 O.co2  99  ASP99      -0.2456
     56  N         19.1090   19.1750  169.0020 N.3   101  MET101     -0.1230
     57  CA        19.8260   19.8700  170.0610 C.3   101  MET101      0.1702
     58  C         20.3010   18.9510  171.2520 C.2   101  MET101      0.2592
     59  O         21.2130   19.2970  172.0200 O.2   101  MET101     -0.2718
     60  CB        18.9970   21.0670  170.5470 C.3   101  MET101      0.0401
     61  CG        18.5620   22.0640  169.4640 C.3   101  MET101      0.0596
     62  SD        17.5240   23.2920  170.3110 S.3   101  MET101     -0.1393
     63  CE        16.2680   23.6490  169.1090 C.3   101  MET101      0.0692
     64  N         19.6950   17.7830  171.4120 N.am  102  ASP102     -0.1974
     65  CA        20.0940   16.9460  172.5390 C.3   102  ASP102      0.1709
     66  C         21.0090   15.7650  172.1460 C.2   102  ASP102      0.2293
     67  O         21.3570   14.9560  173.0110 O.2   102  ASP102     -0.2864
     68  CB        18.8860   16.4930  173.3690 C.3   102  ASP102      0.1436
     69  CG        18.2010   17.6530  174.1570 C.2   102  ASP102      0.3671
     70  OD1       18.7230   18.7660  174.2340 O.co2 102  ASP102     -0.2456
     71  OD2       17.1040   17.4350  174.7000 O.co2 102  ASP102     -0.2456
     72  N         20.0740   13.1680  170.6790 N.3   104  SER104     -0.1217
     73  CA        19.3190   11.9770  171.0520 C.3   104  SER104      0.1889
     74  C         19.4240   10.8930  169.9470 C.2   104  SER104      0.2288
     75  O         19.7340   11.2060  168.7900 O.2   104  SER104     -0.2866
     76  CB        17.8760   12.3870  171.3050 C.3   104  SER104      0.2089
     77  OG        17.7040   12.8140  172.6440 O.3   104  SER104     -0.2183
     78  N         13.3040    7.8170  169.7130 N.3   107  ARG107     -0.1245
     79  CA        12.0650    8.5380  170.0170 C.3   107  ARG107      0.1563
     80  C         10.8700    7.6450  169.6110 C.2   107  ARG107      0.2260
     81  O         10.8220    7.1730  168.4630 O.2   107  ARG107     -0.2867
     82  CB        12.0490    9.8440  169.1990 C.3   107  ARG107      0.0307
     83  CG        10.7800   10.7110  169.2670 C.3   107  ARG107      0.0489
     84  CD        10.6420   11.4750  170.6150 C.3   107  ARG107      0.2205
     85  NE        11.6900   12.4550  170.9070 N.pl3 107  ARG107     -0.0865
     86  CZ        11.7380   13.0930  172.0780 C.cat 107  ARG107      0.5346
     87  NH1       10.7670   12.8300  172.9590 N.pl3 107  ARG107      0.1354
     88  NH2       12.6830   14.0090  172.3680 N.pl3 107  ARG107      0.1354
     89  N          7.8300   28.4480  174.9520 N.3   163  THR163     -0.1203
     90  CA         8.4670   27.1320  174.8630 C.3   163  THR163      0.1994
     91  C          9.8610   27.3060  174.2840 C.2   163  THR163      0.2617
     92  O         10.7800   26.6840  174.7750 O.2   163  THR163     -0.2717
     93  CB         7.7000   26.1990  173.8950 C.3   163  THR163      0.1784
     94  OG1        6.3390   26.1610  174.2630 O.3   163  THR163     -0.2211
     95  CG2        8.2280   24.7460  173.8790 C.3   163  THR163      0.0376
     96  N         10.0100   28.1300  173.2430 N.am  164  ALA164     -0.1979
     97  CA        11.3660   28.3980  172.7190 C.3   164  ALA164      0.1597
     98  C         12.2990   29.0540  173.7520 C.2   164  ALA164      0.2287
     99  O         13.4550   28.7180  173.8120 O.2   164  ALA164     -0.2864
    100  CB        11.3640   29.1820  171.3390 C.3   164  ALA164      0.0319
    101  N         13.2670   26.3440  176.1130 N.3   167  GLN167     -0.1245
    102  CA        14.3320   25.5750  175.4740 C.3   167  GLN167      0.1566
    103  C         15.7550   26.2270  175.6520 C.2   167  GLN167      0.2260
    104  O         16.7750   25.5420  175.8230 O.2   167  GLN167     -0.2867
    105  CB        13.9920   25.4480  173.9780 C.3   167  GLN167      0.0367
    106  CG        14.9000   24.5050  173.2210 C.3   167  GLN167      0.0905
    107  CD        14.9670   23.0840  173.8110 C.2   167  GLN167      0.2608
    108  OE1       14.2220   22.7540  174.7410 O.2   167  GLN167     -0.2717
    109  NE2       15.9260   22.2690  173.3200 N.am  167  GLN167     -0.0878
    110  N         16.7980   25.6390  178.9810 N.3   170  ASP170     -0.1239
    111  CA        17.2120   24.2430  179.1480 C.3   170  ASP170      0.1674
    112  C         18.6570   23.9420  178.6280 C.2   170  ASP170      0.2266
    113  O         19.5260   23.4230  179.3410 O.2   170  ASP170     -0.2867
    114  CB        16.1150   23.3410  178.5840 C.3   170  ASP170      0.1410
    115  CG        16.4910   21.8830  178.5910 C.2   170  ASP170      0.3668
    116  OD1       15.9020   21.1730  179.4390 O.co2 170  ASP170     -0.2456
    117  OD2       17.4160   21.4810  177.8120 O.co2 170  ASP170     -0.2456
    118  N          9.6890   25.4960  179.1720 N.3   207  LYS207     -0.1231
    119  CA         9.9800   24.5730  178.1270 C.3   207  LYS207      0.1693
    120  C          8.8840   23.5060  177.9520 C.2   207  LYS207      0.2592
    121  O          8.7180   22.9810  176.8330 O.2   207  LYS207     -0.2718
    122  CB        11.3580   23.9180  178.2900 C.3   207  LYS207      0.0285
    123  CG        11.3880   22.7740  179.3060 C.3   207  LYS207      0.0035
    124  CD        12.6540   21.9380  179.1100 C.3   207  LYS207      0.0206
    125  CE        12.5760   20.7820  180.0990 C.3   207  LYS207      0.1093
    126  NZ        13.7110   19.9260  179.9810 N.3   207  LYS207     -0.1314
    127  N          8.1350   23.2200  179.0170 N.am  208  THR208     -0.1953
    128  CA         7.1440   22.1230  178.9450 C.3   208  THR208      0.1897
    129  C          5.6960   22.5080  179.1400 C.2   208  THR208      0.2313
    130  O          4.8460   22.0760  178.3900 O.2   208  THR208     -0.2863
    131  CB         7.4750   21.0050  179.9420 C.3   208  THR208      0.1794
    132  OG1        8.7180   20.4930  179.5550 O.3   208  THR208     -0.2208
    133  CG2        6.4980   19.8330  179.8030 C.3   208  THR208      0.0378
    134  N          3.0320   24.4260  176.3910 N.3   211  TYR211     -0.1241
    135  CA         2.5170   23.6860  175.2680 C.3   211  TYR211      0.1605
    136  C          1.8390   22.3750  175.6380 C.2   211  TYR211      0.2264
    137  O          1.0090   21.9300  174.8830 O.2   211  TYR211     -0.2867
    138  CB         3.5200   23.5270  174.1460 C.3   211  TYR211      0.0534
    139  CG         4.3790   22.2940  174.2120 C.ar  211  TYR211     -0.0201
    140  CD1        3.9740   21.1040  173.6390 C.ar  211  TYR211     -0.0009
    141  CD2        5.6180   22.3450  174.8190 C.ar  211  TYR211     -0.0009
    142  CE1        4.7980   19.9410  173.7310 C.ar  211  TYR211      0.0417
    143  CE2        6.4150   21.2390  174.8960 C.ar  211  TYR211      0.0417
    144  CZ         6.0080   20.0560  174.3310 C.ar  211  TYR211      0.1957
    145  OH         6.8450   18.9840  174.4000 O.3   211  TYR211     -0.2866
    146  N          6.9700   16.8890  183.9010 N.3   247  GLN247     -0.1245
    147  CA         8.4100   16.9430  183.6050 C.3   247  GLN247      0.1566
    148  C          9.2570   16.2340  184.6270 C.2   247  GLN247      0.2260
    149  O         10.2390   15.5850  184.2930 O.2   247  GLN247     -0.2867
    150  CB         8.8800   18.3850  183.4000 C.3   247  GLN247      0.0367
    151  CG        10.3100   18.4790  182.8640 C.3   247  GLN247      0.0905
    152  CD        10.4660   17.9400  181.4430 C.2   247  GLN247      0.2608
    153  OE1        9.6840   18.2580  180.5680 O.2   247  GLN247     -0.2717
    154  NE2       11.5170   17.1580  181.2120 N.am  247  GLN247     -0.0878
    155  N          9.1570   12.8820  183.7530 N.3   250  ASP250     -0.1225
    156  CA        10.0490   12.7510  182.5580 C.3   250  ASP250      0.1805
    157  C         11.5270   12.7160  182.9950 C.2   250  ASP250      0.2597
    158  O         12.3390   11.9430  182.4500 O.2   250  ASP250     -0.2718
    159  CB         9.8210   13.8730  181.5460 C.3   250  ASP250      0.1424
    160  CG        10.6250   13.6840  180.2640 C.2   250  ASP250      0.3668
    161  OD1       10.6370   12.5670  179.7360 O.co2 250  ASP250     -0.2456
    162  OD2       11.2550   14.6540  179.7910 O.co2 250  ASP250     -0.2456
    163  N         11.8680   13.5210  183.9880 N.am  251  ASP251     -0.1974
    164  CA        13.2670   13.5500  184.4580 C.3   251  ASP251      0.1709
    165  C         13.6110   12.2580  185.1470 C.2   251  ASP251      0.2293
    166  O         14.6860   11.6880  184.9240 O.2   251  ASP251     -0.2864
    167  CB        13.5570   14.7450  185.3640 C.3   251  ASP251      0.1436
    168  CG        13.5920   16.0630  184.6030 C.2   251  ASP251      0.3671
    169  OD1       13.4040   16.0930  183.3610 O.co2 251  ASP251     -0.2456
    170  OD2       13.7910   17.1160  185.2560 O.co2 251  ASP251     -0.2456
    171  N         13.9950    9.2610  182.5030 N.3   254  ASP254     -0.1239
    172  CA        15.2530    9.3520  181.7130 C.3   254  ASP254      0.1674
    173  C         16.4080    8.5330  182.3140 C.2   254  ASP254      0.2266
    174  O         17.2170    7.9420  181.5710 O.2   254  ASP254     -0.2867
    175  CB        15.6910   10.8180  181.6270 C.3   254  ASP254      0.1410
    176  CG        16.8220   11.0610  180.6010 C.2   254  ASP254      0.3668
    177  OD1       16.4560   11.4460  179.4670 O.co2 254  ASP254     -0.2456
    178  OD2       18.0560   10.8800  180.9120 O.co2 254  ASP254     -0.2456
    179  N         12.3070    5.9300  174.3660 N.3   264  LYS264     -0.1245
    180  CA        13.5000    6.7310  174.1390 C.3   264  LYS264      0.1561
    181  C         14.7290    6.2190  174.9240 C.2   264  LYS264      0.2260
    182  O         14.6490    5.2580  175.7020 O.2   264  LYS264     -0.2867
    183  CB        13.2350    8.2490  174.3830 C.3   264  LYS264      0.0271
    184  CG        12.2750    8.6110  175.5490 C.3   264  LYS264      0.0035
    185  CD        11.9540   10.1010  175.5770 C.3   264  LYS264      0.0206
    186  CE        11.5280   10.5370  176.9620 C.3   264  LYS264      0.1093
    187  NZ        10.8380   11.8910  176.8760 N.3   264  LYS264     -0.1314
    188  N         20.1890   12.6610  179.9880 N.3   268  ASP268     -0.1239
    189  CA        20.2790   13.8250  180.9010 C.3   268  ASP268      0.1674
    190  C         21.6170   13.8800  181.6410 C.2   268  ASP268      0.2266
    191  O         22.2530   14.9580  181.6960 O.2   268  ASP268     -0.2867
    192  CB        19.1540   13.8640  181.9290 C.3   268  ASP268      0.1410
    193  CG        17.8060   14.1690  181.3200 C.2   268  ASP268      0.3668
    194  OD1       17.7110   14.6870  180.1970 O.co2 268  ASP268     -0.2456
    195  OD2       16.8140   13.9040  182.0010 O.co2 268  ASP268     -0.2456
    196  N         22.1900   17.7590  182.2990 N.3   273  LYS273     -0.1245
    197  CA        20.9820   18.5730  182.2880 C.3   273  LYS273      0.1561
    198  C         20.6640   18.9770  183.7430 C.2   273  LYS273      0.2260
    199  O         21.0610   18.2970  184.7000 O.2   273  LYS273     -0.2867
    200  CB        19.7920   17.9290  181.4970 C.3   273  LYS273      0.0271
    201  CG        19.8690   17.9710  179.8970 C.3   273  LYS273      0.0035
    202  CD        19.9220   19.4560  179.3990 C.3   273  LYS273      0.0206
    203  CE        20.3060   19.6380  177.9320 C.3   273  LYS273      0.1093
    204  NZ        19.4730   18.8250  177.0100 N.3   273  LYS273     -0.1314
@<TRIPOS>BOND
     1    39    37   ar
     2    37    38   ar
     3    37    36    1
     4     7     9   ar
     5     7     6   ar
     6     9    10   ar
     7     5     6    1
     8     5     2    1
     9     6     8   ar
    10    36    35    1
    11     2     1    1
    12     2     3    1
    13    10     8   ar
    14     4     3    2
    15    31    32    1
    16     3    11   am
    17    35    32    1
    18    32    33    1
    19    11    12    1
    20    33    34    2
    21    33    40   am
    22    25    26    2
    23    25    24    1
    24    81    80    2
    25    52    49    1
    26    52    53    1
    27    50    51    2
    28    50    49    1
    29    75    74    2
    30    55    53   ar
    31    56    57    1
    32    12    13    1
    33    12    15    1
    34    23    13   am
    35    23    24    1
    36    63    62    1
    37    40    41    1
    38    82    83    1
    39    82    79    1
    40    13    14    2
    41    83    84    1
    42    24    27    1
    43    49    48    1
    44    53    54   ar
    45    61    62    1
    46    61    60    1
    47    48    42   am
    48    27    28    1
    49    80    79    1
    50    78    79    1
    51    74    73    1
    52    17    19   ar
    53    17    16   ar
    54    57    60    1
    55    57    58    1
    56    19    21   ar
    57    42    41    1
    58    42    43    2
    59    15    16    1
    60    41    44    1
    61    16    18   ar
    62    84    85    1
    63    72    73    1
    64    28    29    1
    65    28    30    1
    66    21    22    1
    67    21    20   ar
    68    85    86    2
    69    73    76    1
    70    18    20   ar
    71    58    64   am
    72    58    59    2
    73    76    77    1
    74   100    97    1
    75    64    65    1
    76    44    45    1
    77    86    88    1
    78    86    87    1
    79    66    65    1
    80    66    67    2
    81    65    68    1
    82    97    96    1
    83    97    98    1
    84    45    47   ar
    85    45    46   ar
    86   106   107    1
    87   106   105    1
    88    96    91   am
    89   109   107   am
    90    68    69    1
    91   140   142   ar
    92   140   139   ar
    93   142   144   ar
    94    98    99    2
    95   107   108    2
    96    95    93    1
    97    93    94    1
    98    93    90    1
    99   105   102    1
   100   180   179    1
   101   180   183    1
   102   180   181    1
   103   138   139    1
   104   138   135    1
   105    69    70   ar
   106    69    71   ar
   107   139   141   ar
   108    91    92    2
   109    91    90    1
   110   144   145    1
   111   144   143   ar
   112   183   184    1
   113   141   143   ar
   114    90    89    1
   115   137   136    2
   116   181   182    2
   117   135   136    1
   118   135   134    1
   119   102   103    1
   120   102   101    1
   121   184   185    1
   122   185   186    1
   123   103   104    2
   124   121   120    2
   125   187   186    1
   126   204   203    1
   127   117   115   ar
   128   203   202    1
   129   120   119    1
   130   120   127   am
   131   119   122    1
   132   119   118    1
   133   122   123    1
   134   130   129    2
   135   114   115    1
   136   114   111    1
   137   115   116   ar
   138   112   111    1
   139   112   113    2
   140   128   127    1
   141   128   129    1
   142   128   131    1
   143   110   111    1
   144   124   123    1
   145   124   125    1
   146   202   201    1
   147   177   176   ar
   148   132   131    1
   149   161   160   ar
   150   162   160   ar
   151   133   131    1
   152   201   200    1
   153   126   125    1
   154   188   189    1
   155   194   193   ar
   156   160   159    1
   157   153   152    2
   158   176   178   ar
   159   176   175    1
   160   189   190    1
   161   189   192    1
   162   154   152   am
   163   193   192    1
   164   193   195   ar
   165   152   151    1
   166   200   197    1
   167   159   156    1
   168   174   173    2
   169   175   172    1
   170   190   191    2
   171   172   173    1
   172   172   171    1
   173   197   196    1
   174   197   198    1
   175   158   157    2
   176   156   157    1
   177   156   155    1
   178   151   150    1
   179   157   163   am
   180   169   168   ar
   181   150   147    1
   182   147   146    1
   183   147   148    1
   184   198   199    2
   185   163   164    1
   186   149   148    2
   187   164   165    1
   188   164   167    1
   189   168   170   ar
   190   168   167    1
   191   166   165    2
