@<TRIPOS>MOLECULE
tmp/4dwhA00.pdb
 139 137 0 0 0
SMALL
GASTEIGER

@<TRIPOS>ATOM
      1  N         18.4900    2.8010    4.9170 N.3    80  GLU80      -0.1245
      2  CA        18.2330    3.8060    5.9440 C.3    80  GLU80       0.1567
      3  C         16.7400    4.0810    6.0860 C.2    80  GLU80       0.2260
      4  O         16.0140    4.0940    5.0990 O.2    80  GLU80      -0.2867
      5  CB        18.9520    5.1170    5.6140 C.3    80  GLU80       0.0388
      6  CG        20.4280    5.1430    5.9590 C.3    80  GLU80       0.1160
      7  CD        21.0230    6.5330    5.8360 C.2    80  GLU80       0.3649
      8  OE1       20.8260    7.1750    4.7880 O.co2  80  GLU80      -0.2457
      9  OE2       21.6780    6.9900    6.7930 O.co2  80  GLU80      -0.2457
     10  N         18.3070    9.7330   10.5640 N.3   109  TYR109     -0.1241
     11  CA        18.4910    8.5190    9.7860 C.3   109  TYR109      0.1605
     12  C         18.9000    7.3540   10.6760 C.2   109  TYR109      0.2264
     13  O         20.0110    7.3270   11.2000 O.2   109  TYR109     -0.2867
     14  CB        19.5870    8.7160    8.7350 C.3   109  TYR109      0.0534
     15  CG        19.2690    9.7140    7.6510 C.ar  109  TYR109     -0.0201
     16  CD1       17.9890    9.8110    7.1200 C.ar  109  TYR109     -0.0009
     17  CD2       20.2540   10.5590    7.1520 C.ar  109  TYR109     -0.0009
     18  CE1       17.6970   10.7260    6.1280 C.ar  109  TYR109      0.0417
     19  CE2       19.9710   11.4770    6.1600 C.ar  109  TYR109      0.0417
     20  CZ        18.6930   11.5540    5.6510 C.ar  109  TYR109      0.1957
     21  OH        18.4130   12.4610    4.6600 O.3   109  TYR109     -0.2866
     22  N         20.5010    4.1140   10.6190 N.3   111  ARG111     -0.1245
     23  CA        21.3810    3.4600    9.6500 C.3   111  ARG111      0.1563
     24  C         21.8400    2.0710   10.1180 C.2   111  ARG111      0.2260
     25  O         22.6000    1.9510   11.0770 O.2   111  ARG111     -0.2867
     26  CB        22.5790    4.3540    9.3150 C.3   111  ARG111      0.0307
     27  CG        23.4850    3.8120    8.2170 C.3   111  ARG111      0.0489
     28  CD        24.6690    4.7380    7.9670 C.3   111  ARG111      0.2205
     29  NE        24.2320    6.0530    7.5070 N.pl3 111  ARG111     -0.0865
     30  CZ        25.0470    7.0580    7.1970 C.cat 111  ARG111      0.5346
     31  NH1       26.3590    6.9110    7.2900 N.pl3 111  ARG111      0.1354
     32  NH2       24.5460    8.2120    6.7820 N.pl3 111  ARG111      0.1354
     33  N         28.9190    4.9960    2.7910 N.3   119  PRO119     -0.2102
     34  CA        28.0850    6.1990    2.6670 C.3   119  PRO119      0.1504
     35  C         28.6870    7.2600    1.7470 C.2   119  PRO119      0.2575
     36  O         27.9520    7.9660    1.0580 O.2   119  PRO119     -0.2718
     37  CB        28.0080    6.7180    4.1060 C.3   119  PRO119      0.0282
     38  CG        28.1830    5.5020    4.9500 C.3   119  PRO119      0.0208
     39  CD        29.1490    4.6230    4.1990 C.3   119  PRO119      0.0893
     40  N         30.0120    7.3470    1.7260 N.am  120  ASP120     -0.1974
     41  CA        30.7340    8.3460    0.9410 C.3   120  ASP120      0.1708
     42  C         30.6730    8.1040   -0.5710 C.2   120  ASP120      0.2293
     43  O         30.9980    8.9930   -1.3590 O.2   120  ASP120     -0.2864
     44  CB        32.1910    8.4040    1.4130 C.3   120  ASP120      0.1436
     45  CG        32.7650    7.0220    1.7170 C.2   120  ASP120      0.3671
     46  OD1       32.4900    6.4810    2.8150 O.co2 120  ASP120     -0.2456
     47  OD2       33.4950    6.4750    0.8620 O.co2 120  ASP120     -0.2456
     48  N         27.8370    6.9140   -2.0080 N.3   122  ALA122     -0.1231
     49  CA        26.4140    6.8940   -2.3350 C.3   122  ALA122      0.1694
     50  C         25.9950    7.9650   -3.3540 C.2   122  ALA122      0.2591
     51  O         25.2490    7.6760   -4.2970 O.2   122  ALA122     -0.2718
     52  CB        25.5820    7.0220   -1.0580 C.3   122  ALA122      0.0304
     53  N         26.4790    9.1910   -3.1630 N.am  123  ALA123     -0.1980
     54  CA        26.0400   10.3250   -3.9690 C.3   123  ALA123      0.1597
     55  C         26.3890   10.1870   -5.4500 C.2   123  ALA123      0.2287
     56  O         25.7110   10.7480   -6.3080 O.2   123  ALA123     -0.2864
     57  CB        26.6100   11.6230   -3.4120 C.3   123  ALA123      0.0319
     58  N         21.0450    4.7120    1.0130 N.3   143  TYR143     -0.1227
     59  CA        21.0660    5.9560    1.7940 C.3   143  TYR143      0.1736
     60  C         20.1430    7.0310    1.2370 C.2   143  TYR143      0.2595
     61  O         20.0300    7.1920    0.0240 O.2   143  TYR143     -0.2718
     62  CB        22.4810    6.5220    1.8850 C.3   143  TYR143      0.0548
     63  CG        23.5040    5.5330    2.3780 C.ar  143  TYR143     -0.0200
     64  CD1       24.1640    4.6900    1.4880 C.ar  143  TYR143     -0.0009
     65  CD2       23.8200    5.4420    3.7310 C.ar  143  TYR143     -0.0009
     66  CE1       25.1050    3.7820    1.9290 C.ar  143  TYR143      0.0417
     67  CE2       24.7650    4.5360    4.1810 C.ar  143  TYR143      0.0417
     68  CZ        25.4020    3.7060    3.2700 C.ar  143  TYR143      0.1957
     69  OH        26.3400    2.7990    3.6940 O.3   143  TYR143     -0.2866
     70  N         19.4850    7.7660    2.1310 N.am  144  TYR144     -0.1962
     71  CA        18.7310    8.9580    1.7390 C.3   144  TYR144      0.1771
     72  C         19.6760   10.0150    1.1920 C.2   144  TYR144      0.2619
     73  O         20.6370   10.4020    1.8520 O.2   144  TYR144     -0.2715
     74  CB        17.9380    9.5390    2.9160 C.3   144  TYR144      0.0574
     75  CG        16.5710    8.9320    3.0860 C.ar  144  TYR144     -0.0198
     76  CD1       15.4740    9.4370    2.3890 C.ar  144  TYR144     -0.0009
     77  CD2       16.3720    7.8440    3.9260 C.ar  144  TYR144     -0.0009
     78  CE1       14.2180    8.8810    2.5310 C.ar  144  TYR144      0.0417
     79  CE2       15.1170    7.2770    4.0750 C.ar  144  TYR144      0.0417
     80  CZ        14.0430    7.7990    3.3730 C.ar  144  TYR144      0.1957
     81  OH        12.7910    7.2420    3.5180 O.3   144  TYR144     -0.2866
     82  N         19.4010   10.4740   -0.0220 N.am  145  LEU145     -0.1963
     83  CA        20.2290   11.4970   -0.6450 C.3   145  LEU145      0.1728
     84  C         19.5290   12.8590   -0.6730 C.2   145  LEU145      0.2616
     85  O         18.5280   13.0500   -1.3740 O.2   145  LEU145     -0.2715
     86  CB        20.6140   11.0730   -2.0670 C.3   145  LEU145      0.0311
     87  CG        21.3880    9.7630   -2.1640 C.3   145  LEU145      0.0022
     88  CD1       21.8820    9.5290   -3.5810 C.3   145  LEU145      0.0001
     89  CD2       22.5490    9.7580   -1.1730 C.3   145  LEU145      0.0001
     90  N         20.0630   13.7980    0.0990 N.am  146  THR146     -0.1951
     91  CA        19.5950   15.1770    0.0570 C.3   146  THR146      0.1897
     92  C         20.3160   15.8870   -1.0790 C.2   146  THR146      0.2313
     93  O         21.5000   16.2280   -0.9620 O.2   146  THR146     -0.2863
     94  CB        19.8780   15.9120    1.3710 C.3   146  THR146      0.1794
     95  OG1       19.1860   15.2650    2.4490 O.3   146  THR146     -0.2208
     96  CG2       19.4110   17.3420    1.2680 C.3   146  THR146      0.0378
     97  N         25.4210   17.2580   -2.8090 N.3   182  THR182     -0.1203
     98  CA        24.6020   16.6900   -1.7460 C.3   182  THR182      0.1994
     99  C         25.1310   17.1340   -0.3840 C.2   182  THR182      0.2618
    100  O         26.2140   17.7120   -0.2790 O.2   182  THR182     -0.2717
    101  CB        24.5360   15.1490   -1.8100 C.3   182  THR182      0.1784
    102  OG1       25.8560   14.6060   -1.7360 O.3   182  THR182     -0.2211
    103  CG2       23.8750   14.6830   -3.1030 C.3   182  THR182      0.0376
    104  N         24.3510   16.8770    0.6580 N.am  183  ILE183     -0.1965
    105  CA        24.7810   17.1670    2.0150 C.3   183  ILE183      0.1727
    106  C         25.1620   15.8700    2.7240 C.2   183  ILE183      0.2616
    107  O         24.3480   14.9490    2.8150 O.2   183  ILE183     -0.2715
    108  CB        23.6700   17.8650    2.8060 C.3   183  ILE183      0.0290
    109  CG1       23.1580   19.0860    2.0330 C.3   183  ILE183      0.0022
    110  CG2       24.1680   18.2460    4.1890 C.3   183  ILE183      0.0023
    111  CD1       22.2100   19.9520    2.8200 C.3   183  ILE183      0.0001
    112  N         26.3930   15.8020    3.2240 N.am  184  ASN184     -0.1958
    113  CA        26.8630   14.6010    3.9090 C.3   184  ASN184      0.1819
    114  C         26.3570   14.4510    5.3380 C.2   184  ASN184      0.2621
    115  O         25.4660   15.1830    5.7730 O.2   184  ASN184     -0.2715
    116  CB        28.3880   14.4620    3.8480 C.3   184  ASN184      0.1195
    117  CG        29.1170   15.5670    4.5830 C.2   184  ASN184      0.2630
    118  OD1       28.6000   16.1570    5.5300 O.2   184  ASN184     -0.2716
    119  ND2       30.3410   15.8450    4.1520 N.am  184  ASN184     -0.0877
    120  N         26.9360   13.4930    6.0540 N.am  185  ASP185     -0.1957
    121  CA        26.5390   13.1860    7.4270 C.3   185  ASP185      0.1840
    122  C         26.8690   14.3170    8.3950 C.2   185  ASP185      0.2622
    123  O         26.2650   14.4280    9.4590 O.2   185  ASP185     -0.2715
    124  CB        27.2360   11.9130    7.9120 C.3   185  ASP185      0.1450
    125  CG        26.8470   10.6920    7.1140 C.2   185  ASP185      0.3671
    126  OD1       25.7120   10.6480    6.6000 O.co2 185  ASP185     -0.2456
    127  OD2       27.6820    9.7720    7.0100 O.co2 185  ASP185     -0.2456
    128  N         27.8410   15.1460    8.0300 N.am  186  TYR186     -0.1974
    129  CA        28.2660   16.2290    8.9070 C.3   186  TYR186      0.1639
    130  C         27.5430   17.5300    8.5790 C.2   186  TYR186      0.2290
    131  O         27.8450   18.5750    9.1510 O.2   186  TYR186     -0.2864
    132  CB        29.7810   16.4240    8.8370 C.3   186  TYR186      0.0560
    133  CG        30.5640   15.1490    9.0320 C.ar  186  TYR186     -0.0198
    134  CD1       30.7070   14.5830   10.2950 C.ar  186  TYR186     -0.0009
    135  CD2       31.1640   14.5090    7.9540 C.ar  186  TYR186     -0.0009
    136  CE1       31.4260   13.4140   10.4760 C.ar  186  TYR186      0.0417
    137  CE2       31.8800   13.3400    8.1250 C.ar  186  TYR186      0.0417
    138  CZ        32.0080   12.7980    9.3860 C.ar  186  TYR186      0.1957
    139  OH        32.7230   11.6350    9.5540 O.3   186  TYR186     -0.2866
@<TRIPOS>BOND
     1    56    55    2
     2    55    54    1
     3    51    50    2
     4    54    57    1
     5    54    53    1
     6    88    87    1
     7    50    53   am
     8    50    49    1
     9   103   101    1
    10    97    98    1
    11    49    48    1
    12    49    52    1
    13    87    86    1
    14    87    89    1
    15    86    83    1
    16   101    98    1
    17   101   102    1
    18    98    99    1
    19    85    84    2
    20    43    42    2
    21    92    93    2
    22    92    91    1
    23    84    83    1
    24    84    90   am
    25    83    82    1
    26    42    41    1
    27    99   100    2
    28    99   104   am
    29    82    72   am
    30    61    60    2
    31    91    90    1
    32    91    94    1
    33   104   105    1
    34    47    45   ar
    35    41    44    1
    36    41    40    1
    37    58    59    1
    38    36    35    2
    39    72    71    1
    40    72    73    2
    41    60    59    1
    42    60    70   am
    43    96    94    1
    44    94    95    1
    45    44    45    1
    46    64    66   ar
    47    64    63   ar
    48    45    46   ar
    49    40    35   am
    50    71    70    1
    51    71    74    1
    52    35    34    1
    53    59    62    1
    54    62    63    1
    55    66    68   ar
    56   105   106    1
    57   105   108    1
    58   109   108    1
    59   109   111    1
    60    63    65   ar
    61    76    78   ar
    62    76    75   ar
    63    78    80   ar
    64    34    33    1
    65    34    37    1
    66   106   107    2
    67   106   112   am
    68    33    39    1
    69   108   110    1
    70    74    75    1
    71    75    77   ar
    72   112   113    1
    73    68    69    1
    74    68    67   ar
    75    80    81    1
    76    80    79   ar
    77    65    67   ar
    78   116   113    1
    79   116   117    1
    80   113   114    1
    81    77    79   ar
    82    37    38    1
    83   119   117   am
    84    39    38    1
    85   117   118    2
    86    21    20    1
    87     8     7   ar
    88     1     2    1
    89     4     3    2
    90   114   115    2
    91   114   120   am
    92     5     2    1
    93     5     6    1
    94    20    18   ar
    95    20    19   ar
    96     7     6    1
    97     7     9   ar
    98     2     3    1
    99   120   121    1
   100    18    16   ar
   101    19    17   ar
   102   126   125   ar
   103    32    30    1
   104   127   125   ar
   105   125   124    1
   106    16    15   ar
   107    17    15   ar
   108    30    31    1
   109    30    29    2
   110   121   124    1
   111   121   122    1
   112    29    28    1
   113    15    14    1
   114   135   137   ar
   115   135   133   ar
   116    28    27    1
   117   128   122   am
   118   128   129    1
   119   137   138   ar
   120    27    26    1
   121   122   123    2
   122   130   129    1
   123   130   131    2
   124    14    11    1
   125   132   129    1
   126   132   133    1
   127   133   134   ar
   128    26    23    1
   129   138   139    1
   130   138   136   ar
   131    23    24    1
   132    23    22    1
   133    11    10    1
   134    11    12    1
   135    24    25    2
   136   134   136   ar
   137    12    13    2
