@<TRIPOS>MOLECULE
tmp/4dwhC02.pdb
 125 123 0 0 0
SMALL
GASTEIGER

@<TRIPOS>ATOM
      1  N         42.6290   50.9820   35.3220 N.3   112  ARG112     -0.1245
      2  CA        43.6310   51.6370   34.4880 C.3   112  ARG112      0.1563
      3  C         43.1710   53.0250   34.0420 C.2   112  ARG112      0.2260
      4  O         42.2600   53.1490   33.2210 O.2   112  ARG112     -0.2867
      5  CB        43.9600   50.7740   33.2640 C.3   112  ARG112      0.0307
      6  CG        45.0740   51.3310   32.3820 C.3   112  ARG112      0.0489
      7  CD        45.4990   50.3500   31.2930 C.3   112  ARG112      0.2205
      8  NE        45.9300   49.0700   31.8520 N.pl3 112  ARG112     -0.0865
      9  CZ        46.4430   48.0690   31.1420 C.cat 112  ARG112      0.5346
     10  NH1       46.6100   48.1870   29.8340 N.pl3 112  ARG112      0.1354
     11  NH2       46.7980   46.9460   31.7490 N.pl3 112  ARG112      0.1354
     12  N         51.1180   50.1350   27.4260 N.3   120  PRO120     -0.2102
     13  CA        51.1430   48.9660   28.3130 C.3   120  PRO120      0.1504
     14  C         52.1040   47.8940   27.8050 C.2   120  PRO120      0.2575
     15  O         52.7060   47.1710   28.6000 O.2   120  PRO120     -0.2718
     16  CB        49.7010   48.4530   28.2540 C.3   120  PRO120      0.0282
     17  CG        48.8900   49.6380   27.8470 C.3   120  PRO120      0.0208
     18  CD        49.7640   50.4190   26.9220 C.3   120  PRO120      0.0893
     19  N         52.2520   47.8110   26.4880 N.am  121  ASP121     -0.1974
     20  CA        53.1070   46.8070   25.8610 C.3   121  ASP121      0.1708
     21  C         54.6030   47.0690   26.0770 C.2   121  ASP121      0.2293
     22  O         55.4280   46.1590   25.9530 O.2   121  ASP121     -0.2864
     23  CB        52.7960   46.7060   24.3630 C.3   121  ASP121      0.1436
     24  CG        52.3620   48.0330   23.7680 C.2   121  ASP121      0.3671
     25  OD1       51.6010   48.7610   24.4410 O.co2 121  ASP121     -0.2456
     26  OD2       52.7800   48.3500   22.6330 O.co2 121  ASP121     -0.2456
     27  N         55.7940   48.3390   28.9410 N.3   123  ALA123     -0.1231
     28  CA        56.0210   48.3570   30.3820 C.3   123  ALA123      0.1694
     29  C         57.0200   47.2950   30.8570 C.2   123  ALA123      0.2591
     30  O         57.9740   47.6050   31.5780 O.2   123  ALA123     -0.2718
     31  CB        54.6980   48.2180   31.1220 C.3   123  ALA123      0.0304
     32  N         56.8010   46.0520   30.4390 N.am  124  ALA124     -0.1980
     33  CA        57.6000   44.9210   30.9090 C.3   124  ALA124      0.1597
     34  C         59.1090   45.0580   30.6690 C.2   124  ALA124      0.2287
     35  O         59.9090   44.4710   31.3970 O.2   124  ALA124     -0.2864
     36  CB        57.0740   43.6250   30.3100 C.3   124  ALA124      0.0319
     37  N         52.2230   50.4670   35.4680 N.3   144  TYR144     -0.1227
     38  CA        51.4720   49.2090   35.3870 C.3   144  TYR144      0.1736
     39  C         51.9640   48.1500   36.3660 C.2   144  TYR144      0.2595
     40  O         53.1700   47.9800   36.5630 O.2   144  TYR144     -0.2718
     41  CB        51.5410   48.6230   33.9710 C.3   144  TYR144      0.0548
     42  CG        51.1330   49.5860   32.8860 C.ar  144  TYR144     -0.0200
     43  CD1       52.0500   50.4800   32.3440 C.ar  144  TYR144     -0.0009
     44  CD2       49.8320   49.6040   32.4010 C.ar  144  TYR144     -0.0009
     45  CE1       51.6810   51.3680   31.3540 C.ar  144  TYR144      0.0417
     46  CE2       49.4540   50.4850   31.4070 C.ar  144  TYR144      0.0417
     47  CZ        50.3820   51.3650   30.8870 C.ar  144  TYR144      0.1957
     48  OH        50.0120   52.2460   29.8970 O.3   144  TYR144     -0.2866
     49  N         51.0250   47.4330   36.9720 N.am  145  TYR145     -0.1962
     50  CA        51.3770   46.2240   37.7050 C.3   145  TYR145      0.1771
     51  C         52.0260   45.2340   36.7450 C.2   145  TYR145      0.2619
     52  O         51.5380   45.0150   35.6380 O.2   145  TYR145     -0.2715
     53  CB        50.1490   45.6010   38.3610 C.3   145  TYR145      0.0574
     54  CG        49.8290   46.1920   39.7060 C.ar  145  TYR145     -0.0198
     55  CD1       50.4540   45.7260   40.8590 C.ar  145  TYR145     -0.0009
     56  CD2       48.9130   47.2260   39.8270 C.ar  145  TYR145     -0.0009
     57  CE1       50.1670   46.2700   42.0970 C.ar  145  TYR145      0.0417
     58  CE2       48.6240   47.7800   41.0560 C.ar  145  TYR145      0.0417
     59  CZ        49.2540   47.3020   42.1890 C.ar  145  TYR145      0.1957
     60  OH        48.9550   47.8560   43.4150 O.3   145  TYR145     -0.2866
     61  N         53.1470   44.6670   37.1700 N.am  146  LEU146     -0.1963
     62  CA        53.8520   43.6640   36.3920 C.3   146  LEU146      0.1728
     63  C         53.8330   42.3220   37.1170 C.2   146  LEU146      0.2616
     64  O         54.4220   42.1780   38.1940 O.2   146  LEU146     -0.2715
     65  CB        55.3010   44.0920   36.1230 C.3   146  LEU146      0.0311
     66  CG        55.5460   45.3050   35.2230 C.3   146  LEU146      0.0022
     67  CD1       57.0280   45.4480   34.9220 C.3   146  LEU146      0.0001
     68  CD2       54.7440   45.2020   33.9370 C.3   146  LEU146      0.0001
     69  N         53.1420   41.3500   36.5270 N.am  147  THR147     -0.1951
     70  CA        53.1750   39.9750   37.0100 C.3   147  THR147      0.1897
     71  C         54.3830   39.2900   36.4000 C.2   147  THR147      0.2313
     72  O         54.3700   38.9350   35.2210 O.2   147  THR147     -0.2863
     73  CB        51.9160   39.1810   36.6040 C.3   147  THR147      0.1794
     74  OG1       50.7530   39.7750   37.1920 O.3   147  THR147     -0.2208
     75  CG2       52.0220   37.7480   37.0810 C.3   147  THR147      0.0378
     76  N         56.4760   37.8940   31.3910 N.3   185  THR185     -0.1203
     77  CA        55.3680   38.4970   32.1170 C.3   185  THR185      0.1994
     78  C         54.0520   38.0250   31.5120 C.2   185  THR185      0.2618
     79  O         54.0290   37.3670   30.4680 O.2   185  THR185     -0.2717
     80  CB        55.4370   40.0360   32.1170 C.3   185  THR185      0.1784
     81  OG1       55.6920   40.5060   30.7900 O.3   185  THR185     -0.2211
     82  CG2       56.5530   40.5180   33.0300 C.3   185  THR185      0.0376
     83  N         52.9570   38.3470   32.1830 N.am  186  ILE186     -0.1965
     84  CA        51.6360   37.9930   31.6870 C.3   186  ILE186      0.1727
     85  C         50.9300   39.2580   31.2220 C.2   186  ILE186      0.2616
     86  O         50.8130   40.2200   31.9830 O.2   186  ILE186     -0.2715
     87  CB        50.8020   37.2930   32.7750 C.3   186  ILE186      0.0290
     88  CG1       51.5570   36.0690   33.3130 C.3   186  ILE186      0.0022
     89  CG2       49.4330   36.9200   32.2310 C.3   186  ILE186      0.0023
     90  CD1       50.8190   35.3060   34.3990 C.3   186  ILE186      0.0001
     91  N         50.4730   39.2690   29.9720 N.am  187  ASN187     -0.1958
     92  CA        49.8370   40.4690   29.4370 C.3   187  ASN187      0.1819
     93  C         48.3550   40.5940   29.7860 C.2   187  ASN187      0.2621
     94  O         47.8000   39.7600   30.5040 O.2   187  ASN187     -0.2715
     95  CB        50.0730   40.6050   27.9260 C.3   187  ASN187      0.1195
     96  CG        49.4530   39.4810   27.1190 C.2   187  ASN187      0.2630
     97  OD1       48.4550   38.8760   27.5180 O.2   187  ASN187     -0.2716
     98  ND2       50.0460   39.2010   25.9620 N.am  187  ASN187     -0.0877
     99  N         47.7290   41.6480   29.2710 N.am  188  ASP188     -0.1957
    100  CA        46.3270   41.9400   29.5390 C.3   188  ASP188      0.1840
    101  C         45.3990   40.8040   29.1320 C.2   188  ASP188      0.2622
    102  O         44.2900   40.6910   29.6460 O.2   188  ASP188     -0.2715
    103  CB        45.9020   43.2100   28.8030 C.3   188  ASP188      0.1450
    104  CG        46.6640   44.4290   29.2600 C.2   188  ASP188      0.3671
    105  OD1       47.2460   44.3830   30.3640 O.co2 188  ASP188     -0.2456
    106  OD2       46.6700   45.4370   28.5200 O.co2 188  ASP188     -0.2456
    107  N         45.8520   39.9680   28.2050 N.am  189  TYR189     -0.1974
    108  CA        45.0230   38.8810   27.6960 C.3   189  TYR189      0.1639
    109  C         45.2730   37.5830   28.4510 C.2   189  TYR189      0.2290
    110  O         44.6740   36.5480   28.1450 O.2   189  TYR189     -0.2864
    111  CB        45.2550   38.6920   26.1930 C.3   189  TYR189      0.0560
    112  CG        44.7820   39.8700   25.3790 C.ar  189  TYR189     -0.0198
    113  CD1       43.5110   40.3930   25.5650 C.ar  189  TYR189     -0.0009
    114  CD2       45.6110   40.4770   24.4470 C.ar  189  TYR189     -0.0009
    115  CE1       43.0660   41.4800   24.8330 C.ar  189  TYR189      0.0417
    116  CE2       45.1750   41.5710   23.7070 C.ar  189  TYR189      0.0417
    117  CZ        43.8990   42.0670   23.9060 C.ar  189  TYR189      0.1957
    118  OH        43.4480   43.1510   23.1810 O.3   189  TYR189     -0.2866
    119  N         54.3770   36.4370   27.8140 N.3   193  THR193     -0.1218
    120  CA        55.2100   37.1710   26.8740 C.3   193  THR193      0.1862
    121  C         56.3790   36.2750   26.4770 C.2   193  THR193      0.2287
    122  O         56.6270   35.2530   27.1210 O.2   193  THR193     -0.2866
    123  CB        55.7670   38.4470   27.5270 C.3   193  THR193      0.1770
    124  OG1       56.5640   38.0910   28.6650 O.3   193  THR193     -0.2211
    125  CG2       54.6340   39.3670   27.9640 C.3   193  THR193      0.0375
@<TRIPOS>BOND
     1    26    24   ar
     2   118   117    1
     3   116   117   ar
     4   116   114   ar
     5    24    23    1
     6    24    25   ar
     7   117   115   ar
     8    23    20    1
     9   114   112   ar
    10   115   113   ar
    11   112   113   ar
    12   112   111    1
    13    20    21    1
    14    20    19    1
    15    22    21    2
    16    98    96   am
    17   111   108    1
    18   121   120    1
    19   121   122    2
    20    19    14   am
    21   120   123    1
    22   120   119    1
    23    18    12    1
    24    18    17    1
    25    96    97    2
    26    96    95    1
    27    12    13    1
    28   123   125    1
    29   123   124    1
    30   108   107    1
    31   108   109    1
    32    14    13    1
    33    14    15    2
    34    17    16    1
    35    95    92    1
    36   110   109    2
    37   107   101   am
    38    16    13    1
    39   106   104   ar
    40   103   104    1
    41   103   100    1
    42    27    28    1
    43   101   100    1
    44   101   102    2
    45   104   105   ar
    46    99   100    1
    47    99    93   am
    48    92    93    1
    49    92    91    1
    50    93    94    2
    51    10     9    1
    52    48    47    1
    53    91    85   am
    54    36    33    1
    55    28    29    1
    56    28    31    1
    57    32    29   am
    58    32    33    1
    59    79    78    2
    60    34    33    1
    61    34    35    2
    62    81    80    1
    63    29    30    2
    64    47    45   ar
    65    47    46   ar
    66     9    11    1
    67     9     8    2
    68    85    84    1
    69    85    86    2
    70     7     8    1
    71     7     6    1
    72    45    43   ar
    73    76    77    1
    74    46    44   ar
    75    78    77    1
    76    78    83   am
    77    84    83    1
    78    84    87    1
    79    80    77    1
    80    80    82    1
    81    89    87    1
    82    43    42   ar
    83     6     5    1
    84    44    42   ar
    85    87    88    1
    86    42    41    1
    87     4     3    2
    88     5     2    1
    89    88    90    1
    90    68    66    1
    91    41    38    1
    92     3     2    1
    93     2     1    1
    94    67    66    1
    95    72    71    2
    96    66    65    1
    97    38    37    1
    98    38    39    1
    99    52    51    2
   100    65    62    1
   101    39    40    2
   102    39    49   am
   103    62    63    1
   104    62    61    1
   105    71    70    1
   106    69    70    1
   107    69    63   am
   108    73    70    1
   109    73    75    1
   110    73    74    1
   111    51    61   am
   112    51    50    1
   113    49    50    1
   114    63    64    2
   115    50    53    1
   116    53    54    1
   117    54    56   ar
   118    54    55   ar
   119    56    58   ar
   120    55    57   ar
   121    58    59   ar
   122    57    59   ar
   123    59    60    1
