@<TRIPOS>MOLECULE
tmp/4dwjD00.pdb
 116 109 0 0 0
SMALL
GASTEIGER

@<TRIPOS>ATOM
      1  N        -35.7140 -109.7040   19.2860 N.3    35  ARG35      -0.1231
      2  CA       -35.3260 -109.9320   17.8970 C.3    35  ARG35       0.1694
      3  C        -35.6340 -108.6280   17.1930 C.2    35  ARG35       0.2591
      4  O        -36.7720 -108.1630   17.2730 O.2    35  ARG35      -0.2718
      5  CB       -36.1680 -111.0490   17.3200 C.3    35  ARG35       0.0321
      6  CG       -35.9200 -111.3710   15.8480 C.3    35  ARG35       0.0489
      7  CD       -37.0070 -112.3410   15.3470 C.3    35  ARG35       0.2205
      8  NE       -36.9820 -112.5810   13.9010 N.pl3  35  ARG35      -0.0865
      9  CZ       -37.3700 -111.6990   12.9710 C.cat  35  ARG35       0.5346
     10  NH1      -37.3130 -112.0290   11.6810 N.pl3  35  ARG35       0.1354
     11  NH2      -37.7830 -110.4740   13.3110 N.pl3  35  ARG35       0.1354
     12  N        -34.6340 -108.0210   16.5440 N.am   36  GLU36      -0.1979
     13  CA       -34.7980 -106.7260   15.8660 C.3    36  GLU36       0.1602
     14  C        -35.9490 -106.7700   14.8750 C.2    36  GLU36       0.2287
     15  O        -36.0830 -107.7450   14.1100 O.2    36  GLU36      -0.2864
     16  CB       -33.5310 -106.3020   15.0920 C.3    36  GLU36       0.0415
     17  CG       -32.2660 -106.0020   15.8910 C.3    36  GLU36       0.1163
     18  CD       -31.0480 -105.6540   15.0060 C.2    36  GLU36       0.3649
     19  OE1      -31.0900 -105.8320   13.7690 O.co2  36  GLU36      -0.2457
     20  OE2      -30.0300 -105.2040   15.5490 O.co2  36  GLU36      -0.2457
     21  N        -38.4980 -101.2650    9.2350 N.3    47  ARG47      -0.1245
     22  CA       -38.3140 -102.5740    8.6690 C.3    47  ARG47       0.1563
     23  C        -39.5210 -102.9350    7.7940 C.2    47  ARG47       0.2260
     24  O        -39.4320 -103.7360    6.8800 O.2    47  ARG47      -0.2867
     25  CB       -38.0570 -103.5900    9.7750 C.3    47  ARG47       0.0307
     26  CG       -37.6740 -104.9550    9.2440 C.3    47  ARG47       0.0489
     27  CD       -36.9200 -105.7950   10.2700 C.3    47  ARG47       0.2205
     28  NE       -36.5080 -107.1020    9.7290 N.pl3  47  ARG47      -0.0865
     29  CZ       -35.7530 -107.9980   10.3730 C.cat  47  ARG47       0.5346
     30  NH1      -35.2930 -107.7480   11.5980 N.pl3  47  ARG47       0.1354
     31  NH2      -35.4440 -109.1500    9.7860 N.pl3  47  ARG47       0.1354
     32  N        -39.6280 -104.9640    3.9250 N.3    51  LEU51      -0.1245
     33  CA       -40.5290 -106.1040    3.6430 C.3    51  LEU51       0.1561
     34  C        -41.5220 -105.7870    2.5050 C.2    51  LEU51       0.2260
     35  O        -41.7780 -106.6540    1.6960 O.2    51  LEU51      -0.2867
     36  CB       -41.2820 -106.6040    4.8990 C.3    51  LEU51       0.0270
     37  CG       -40.4490 -107.2650    6.0110 C.3    51  LEU51       0.0019
     38  CD1      -41.3330 -107.7400    7.1580 C.3    51  LEU51       0.0001
     39  CD2      -39.6390 -108.4390    5.4710 C.3    51  LEU51       0.0001
     40  N        -31.8290 -101.3000    7.7100 N.3    65  PHE65      -0.1241
     41  CA       -31.5390 -102.3250    8.6760 C.3    65  PHE65       0.1605
     42  C        -30.7400 -101.7920    9.8000 C.2    65  PHE65       0.2264
     43  O        -31.0140 -102.1090   10.9560 O.2    65  PHE65      -0.2867
     44  CB       -30.8050 -103.5100    8.0310 C.3    65  PHE65       0.0534
     45  CG       -31.7370 -104.5910    7.5550 C.ar   65  PHE65      -0.0203
     46  CD1      -32.5830 -104.3720    6.4760 C.ar   65  PHE65      -0.0042
     47  CD2      -31.8130 -105.8180    8.2290 C.ar   65  PHE65      -0.0042
     48  CE1      -33.4710 -105.3510    6.0660 C.ar   65  PHE65      -0.0003
     49  CE2      -32.7010 -106.7930    7.8240 C.ar   65  PHE65      -0.0003
     50  CZ       -33.5240 -106.5610    6.7350 C.ar   65  PHE65      -0.0000
     51  N        -31.7540 -101.3260   13.5170 N.3    69  ARG69      -0.1245
     52  CA       -30.8680 -101.8010   14.5550 C.3    69  ARG69       0.1563
     53  C        -30.6060 -100.7500   15.6480 C.2    69  ARG69       0.2260
     54  O        -30.6460 -101.0430   16.8330 O.2    69  ARG69      -0.2867
     55  CB       -29.5970 -102.2840   13.9300 C.3    69  ARG69       0.0307
     56  CG       -28.5500 -102.6090   14.9450 C.3    69  ARG69       0.0489
     57  CD       -27.4740 -103.5090   14.3700 C.3    69  ARG69       0.2205
     58  NE       -28.0580 -104.7700   13.8800 N.pl3  69  ARG69      -0.0865
     59  CZ       -28.1790 -105.1380   12.6040 C.cat  69  ARG69       0.5346
     60  NH1      -27.6880 -104.4080   11.6330 N.pl3  69  ARG69       0.1354
     61  NH2      -28.7450 -106.2890   12.3040 N.pl3  69  ARG69       0.1354
     62  N        -29.8850 -112.0470   16.1490 N.3    91  ARG91      -0.1245
     63  CA       -29.2170 -111.3240   15.0550 C.3    91  ARG91       0.1563
     64  C        -28.7970 -109.9480   15.5070 C.2    91  ARG91       0.2260
     65  O        -29.4690 -109.3360   16.3420 O.2    91  ARG91      -0.2867
     66  CB       -30.0750 -111.1850   13.8050 C.3    91  ARG91       0.0307
     67  CG       -30.3880 -112.5140   13.1840 C.3    91  ARG91       0.0489
     68  CD       -30.8410 -112.3850   11.7380 C.3    91  ARG91       0.2205
     69  NE       -30.9560 -113.7320   11.1770 N.pl3  91  ARG91      -0.0865
     70  CZ       -29.9200 -114.5020   10.8330 C.cat  91  ARG91       0.5346
     71  NH1      -28.6730 -114.0850   11.0400 N.pl3  91  ARG91       0.1354
     72  NH2      -30.1340 -115.7380   10.3470 N.pl3  91  ARG91       0.1354
     73  N        -24.8530 -110.4290   11.4800 N.3    95  SER95      -0.1202
     74  CA       -25.7810 -110.9140   10.4360 C.3    95  SER95       0.2020
     75  C        -25.6460 -109.9900    9.2170 C.2    95  SER95       0.2619
     76  O        -25.6470 -110.4410    8.0850 O.2    95  SER95      -0.2717
     77  CB       -27.2580 -110.8370   10.8720 C.3    95  SER95       0.2103
     78  OG       -27.5130 -111.5260   12.0880 O.3    95  SER95      -0.2182
     79  N        -25.5420 -108.6870    9.4650 N.am   96  SER96      -0.1951
     80  CA       -25.4490 -107.7160    8.4000 C.3    96  SER96       0.1924
     81  C        -24.2160 -107.8650    7.5980 C.2    96  SER96       0.2314
     82  O        -24.2590 -107.7940    6.3870 O.2    96  SER96      -0.2863
     83  CB       -25.5590 -106.2960    8.9410 C.3    96  SER96       0.2116
     84  OG       -26.8330 -106.0990    9.5580 O.3    96  SER96      -0.2180
     85  N        -24.6870 -111.2480    5.7090 N.3    99  TYR99      -0.1227
     86  CA       -25.6890 -111.1990    4.6670 C.3    99  TYR99       0.1736
     87  C        -25.4010 -110.1350    3.6300 C.2    99  TYR99       0.2595
     88  O        -25.0040 -110.4390    2.4780 O.2    99  TYR99      -0.2718
     89  CB       -27.0890 -111.0370    5.2790 C.3    99  TYR99       0.0548
     90  CG       -27.6540 -112.3080    5.8360 C.ar   99  TYR99      -0.0200
     91  CD1      -27.3020 -112.7800    7.0950 C.ar   99  TYR99      -0.0009
     92  CD2      -28.5280 -113.0680    5.0880 C.ar   99  TYR99      -0.0009
     93  CE1      -27.7700 -114.0180    7.5800 C.ar   99  TYR99       0.0417
     94  CE2      -29.0420 -114.2750    5.5750 C.ar   99  TYR99       0.0417
     95  CZ       -28.6660 -114.7600    6.8310 C.ar   99  TYR99       0.1957
     96  OH       -29.2030 -115.9910    7.2820 O.3    99  TYR99      -0.2866
     97  N        -25.5780 -108.8910    4.0650 N.am  100  GLN100     -0.1979
     98  CA       -25.3650 -107.6980    3.2240 C.3   100  GLN100      0.1601
     99  C        -23.9410 -107.5110    2.7170 C.2   100  GLN100      0.2287
    100  O        -23.6790 -107.1830    1.5300 O.2   100  GLN100     -0.2864
    101  CB       -25.6960 -106.4150    4.0350 C.3   100  GLN100      0.0394
    102  CG       -27.1680 -106.0560    4.1240 C.3   100  GLN100      0.0908
    103  CD       -27.9150 -107.0690    4.8880 C.2   100  GLN100      0.2608
    104  OE1      -27.9470 -107.0250    6.1140 O.2   100  GLN100     -0.2717
    105  NE2      -28.5430 -108.0170    4.1610 N.am  100  GLN100     -0.0878
    106  N        -24.6050 -110.6500   -0.1180 N.3   104  ARG104     -0.1245
    107  CA       -25.0850 -109.7340   -1.1570 C.3   104  ARG104      0.1563
    108  C        -23.9260 -108.9900   -1.8830 C.2   104  ARG104      0.2260
    109  O        -24.1400 -108.2870   -2.8730 O.2   104  ARG104     -0.2867
    110  CB       -25.9900 -108.7010   -0.5100 C.3   104  ARG104      0.0307
    111  CG       -27.2250 -109.2380    0.1420 C.3   104  ARG104      0.0489
    112  CD       -28.2760 -109.6390   -0.8570 C.3   104  ARG104      0.2205
    113  NE       -29.5930 -109.4030   -0.2730 N.pl3 104  ARG104     -0.0865
    114  CZ       -30.7240 -109.3100   -0.9710 C.cat 104  ARG104      0.5346
    115  NH1      -30.7290 -109.4310   -2.2990 N.pl3 104  ARG104      0.1354
    116  NH2      -31.8650 -109.0620   -0.3330 N.pl3 104  ARG104      0.1354
@<TRIPOS>BOND
     1   109   108    2
     2   115   114    1
     3   108   107    1
     4   107   110    1
     5   107   106    1
     6   114   116    1
     7   114   113    2
     8   112   113    1
     9   112   111    1
    10   110   111    1
    11   100    99    2
    12    35    34    2
    13    88    87    2
    14    34    33    1
    15    99    98    1
    16    98   101    1
    17    98    97    1
    18    87    97   am
    19    87    86    1
    20    33    32    1
    21    33    36    1
    22   101   102    1
    23   102   103    1
    24   105   103   am
    25    86    89    1
    26    86    85    1
    27   103   104    2
    28    36    37    1
    29    92    94   ar
    30    92    90   ar
    31    89    90    1
    32    39    37    1
    33    94    95   ar
    34    90    91   ar
    35    37    38    1
    36    48    46   ar
    37    48    50   ar
    38    82    81    2
    39    46    45   ar
    40    50    49   ar
    41    95    96    1
    42    95    93   ar
    43    24    23    2
    44    91    93   ar
    45    45    44    1
    46    45    47   ar
    47    81    80    1
    48    40    41    1
    49    23    22    1
    50    49    47   ar
    51    44    41    1
    52    76    75    2
    53    80    83    1
    54    80    79    1
    55    22    21    1
    56    22    25    1
    57    41    42    1
    58    83    84    1
    59    75    79   am
    60    75    74    1
    61    26    25    1
    62    26    27    1
    63    28    27    1
    64    28    29    2
    65    31    29    1
    66    42    43    2
    67    72    70    1
    68    29    30    1
    69    74    77    1
    70    74    73    1
    71    70    71    1
    72    70    69    2
    73    77    78    1
    74    69    68    1
    75    60    59    1
    76    10     9    1
    77    68    67    1
    78    61    59    1
    79    59    58    2
    80     9    11    1
    81     9     8    2
    82    67    66    1
    83    51    52    1
    84    19    18   ar
    85    66    63    1
    86    58    57    1
    87     8     7    1
    88    55    52    1
    89    55    56    1
    90    15    14    2
    91    57    56    1
    92    52    53    1
    93    14    13    1
    94    18    20   ar
    95    18    17    1
    96    63    64    1
    97    63    62    1
    98    16    13    1
    99    16    17    1
   100     7     6    1
   101    64    65    2
   102    53    54    2
   103     6     5    1
   104    13    12    1
   105    12     3   am
   106     3     4    2
   107     3     2    1
   108     5     2    1
   109     2     1    1
