@<TRIPOS>MOLECULE
tmp/4dwjF00.pdb
 98 94 0 0 0
SMALL
GASTEIGER

@<TRIPOS>ATOM
      1  N        -34.5800  -40.6700  -32.0800 N.3    36  GLU36      -0.1245
      2  CA       -34.6520  -39.3710  -32.7510 C.3    36  GLU36       0.1567
      3  C        -35.6620  -39.3950  -33.8600 C.2    36  GLU36       0.2260
      4  O        -35.6240  -40.3060  -34.6660 O.2    36  GLU36      -0.2867
      5  CB       -33.3120  -39.0590  -33.4100 C.3    36  GLU36       0.0388
      6  CG       -32.1270  -38.9050  -32.4850 C.3    36  GLU36       0.1160
      7  CD       -30.8270  -38.8650  -33.2560 C.2    36  GLU36       0.3649
      8  OE1      -30.8280  -39.1760  -34.4720 O.co2  36  GLU36      -0.2457
      9  OE2      -29.8000  -38.5480  -32.6290 O.co2  36  GLU36      -0.2457
     10  N        -37.5520  -33.8390  -39.6970 N.3    47  ARG47      -0.1245
     11  CA       -37.4430  -35.2030  -40.2440 C.3    47  ARG47       0.1563
     12  C        -38.5480  -35.5440  -41.2540 C.2    47  ARG47       0.2260
     13  O        -38.3520  -36.3320  -42.1840 O.2    47  ARG47      -0.2867
     14  CB       -37.3310  -36.2620  -39.1290 C.3    47  ARG47       0.0307
     15  CG       -36.9440  -37.6510  -39.6450 C.3    47  ARG47       0.0489
     16  CD       -36.2800  -38.5030  -38.5670 C.3    47  ARG47       0.2205
     17  NE       -35.8170  -39.7880  -39.0840 N.pl3  47  ARG47      -0.0865
     18  CZ       -35.0960  -40.6610  -38.3920 C.cat  47  ARG47       0.5346
     19  NH1      -34.7170  -40.4010  -37.1430 N.pl3  47  ARG47       0.1354
     20  NH2      -34.7270  -41.8000  -38.9580 N.pl3  47  ARG47       0.1354
     21  N        -30.8370  -34.1640  -40.7520 N.3    65  PHE65      -0.1241
     22  CA       -30.6750  -35.1910  -39.6960 C.3    65  PHE65       0.1605
     23  C        -29.9000  -34.5950  -38.5220 C.2    65  PHE65       0.2264
     24  O        -30.2130  -34.8650  -37.3680 O.2    65  PHE65      -0.2867
     25  CB       -29.9810  -36.4820  -40.2220 C.3    65  PHE65       0.0534
     26  CG       -30.9380  -37.5280  -40.7920 C.ar   65  PHE65      -0.0203
     27  CD1      -31.5960  -37.3340  -42.0090 C.ar   65  PHE65      -0.0042
     28  CD2      -31.1300  -38.7470  -40.1260 C.ar   65  PHE65      -0.0042
     29  CE1      -32.4500  -38.3010  -42.5300 C.ar   65  PHE65      -0.0003
     30  CE2      -31.9750  -39.7200  -40.6440 C.ar   65  PHE65      -0.0003
     31  CZ       -32.6380  -39.4950  -41.8460 C.ar   65  PHE65      -0.0000
     32  N        -31.2840  -33.9870  -34.8970 N.3    69  ARG69      -0.1245
     33  CA       -30.5040  -34.5430  -33.7910 C.3    69  ARG69       0.1563
     34  C        -30.2670  -33.5660  -32.6750 C.2    69  ARG69       0.2260
     35  O        -30.3360  -33.9200  -31.5040 O.2    69  ARG69      -0.2867
     36  CB       -29.1640  -35.1260  -34.2600 C.3    69  ARG69       0.0307
     37  CG       -28.2400  -35.5150  -33.1010 C.3    69  ARG69       0.0489
     38  CD       -27.1310  -36.4710  -33.5030 C.3    69  ARG69       0.2205
     39  NE       -27.6980  -37.7160  -34.0070 N.pl3  69  ARG69      -0.0865
     40  CZ       -27.6710  -38.1260  -35.2720 C.cat  69  ARG69       0.5346
     41  NH1      -27.0000  -37.4530  -36.1920 N.pl3  69  ARG69       0.1354
     42  NH2      -28.2640  -39.2720  -35.5970 N.pl3  69  ARG69       0.1354
     43  N        -29.9290  -45.1710  -31.8810 N.3    91  ARG91      -0.1231
     44  CA       -29.1720  -44.4080  -32.9030 C.3    91  ARG91       0.1694
     45  C        -28.7570  -43.0130  -32.4600 C.2    91  ARG91       0.2592
     46  O        -29.4480  -42.3470  -31.6800 O.2    91  ARG91      -0.2718
     47  CB       -29.8710  -44.3490  -34.2740 C.3    91  ARG91       0.0321
     48  CG       -30.0530  -45.7410  -34.9030 C.3    91  ARG91       0.0489
     49  CD       -30.3840  -45.7110  -36.3960 C.3    91  ARG91       0.2205
     50  NE       -30.5320  -47.0650  -36.9600 N.pl3  91  ARG91      -0.0865
     51  CZ       -29.5220  -47.8620  -37.3220 C.cat  91  ARG91       0.5346
     52  NH1      -28.2580  -47.4780  -37.1290 N.pl3  91  ARG91       0.1354
     53  NH2      -29.7740  -49.0660  -37.8250 N.pl3  91  ARG91       0.1354
     54  N        -27.6050  -42.5760  -32.9620 N.am   92  TYR92      -0.1976
     55  CA       -27.0820  -41.2510  -32.6440 C.3    92  TYR92       0.1639
     56  C        -25.9930  -40.9740  -33.6410 C.2    92  TYR92       0.2290
     57  O        -25.9690  -41.4940  -34.7420 O.2    92  TYR92      -0.2864
     58  CB       -26.5540  -41.2710  -31.2050 C.3    92  TYR92       0.0560
     59  CG       -26.2340  -39.9470  -30.5770 C.ar   92  TYR92      -0.0198
     60  CD1      -27.1750  -38.9370  -30.5430 C.ar   92  TYR92      -0.0009
     61  CD2      -25.0410  -39.7420  -29.8960 C.ar   92  TYR92      -0.0009
     62  CE1      -26.9070  -37.7190  -29.9340 C.ar   92  TYR92       0.0417
     63  CE2      -24.7590  -38.5320  -29.2830 C.ar   92  TYR92       0.0417
     64  CZ       -25.6940  -37.5160  -29.2990 C.ar   92  TYR92       0.1957
     65  OH       -25.4240  -36.3120  -28.6620 O.3    92  TYR92      -0.2866
     66  N        -24.4550  -43.6420  -36.3010 N.3    95  SER95      -0.1202
     67  CA       -25.2360  -44.1150  -37.4420 C.3    95  SER95       0.2020
     68  C        -24.9210  -43.1910  -38.6190 C.2    95  SER95       0.2619
     69  O        -24.6610  -43.6670  -39.7630 O.2    95  SER95      -0.2717
     70  CB       -26.7350  -44.0190  -37.1650 C.3    95  SER95       0.2103
     71  OG       -27.1130  -44.8240  -36.0760 O.3    95  SER95      -0.2182
     72  N        -24.9400  -41.8770  -38.3230 N.am   96  SER96      -0.1951
     73  CA       -24.6970  -40.8590  -39.3220 C.3    96  SER96       0.1924
     74  C        -23.3870  -41.0710  -39.9740 C.2    96  SER96       0.2314
     75  O        -23.2970  -40.9600  -41.1800 O.2    96  SER96      -0.2863
     76  CB       -24.7320  -39.4970  -38.7070 C.3    96  SER96       0.2116
     77  OG       -25.9640  -39.3780  -38.0480 O.3    96  SER96      -0.2180
     78  N        -23.7740  -44.6570  -41.9040 N.3    99  TYR99      -0.1227
     79  CA       -24.6770  -44.5510  -43.0540 C.3    99  TYR99       0.1736
     80  C        -24.3040  -43.4030  -44.0100 C.2    99  TYR99       0.2595
     81  O        -24.0060  -43.6580  -45.1630 O.2    99  TYR99      -0.2718
     82  CB       -26.1210  -44.4050  -42.5880 C.3    99  TYR99       0.0548
     83  CG       -26.7410  -45.6910  -42.0730 C.ar   99  TYR99      -0.0200
     84  CD1      -26.4930  -46.1630  -40.7810 C.ar   99  TYR99      -0.0009
     85  CD2      -27.5810  -46.4390  -42.8820 C.ar   99  TYR99      -0.0009
     86  CE1      -27.0680  -47.3600  -40.3200 C.ar   99  TYR99       0.0417
     87  CE2      -28.1450  -47.6380  -42.4440 C.ar   99  TYR99       0.0417
     88  CZ       -27.8930  -48.0920  -41.1650 C.ar   99  TYR99       0.1957
     89  OH       -28.4660  -49.2690  -40.7640 O.3    99  TYR99      -0.2866
     90  N        -24.3080  -42.1520  -43.5330 N.am  100  GLN100     -0.1979
     91  CA       -23.9750  -40.9880  -44.3670 C.3   100  GLN100      0.1601
     92  C        -22.4930  -40.8950  -44.7210 C.2   100  GLN100      0.2287
     93  O        -22.0870  -40.7290  -45.8880 O.2   100  GLN100     -0.2864
     94  CB       -24.3360  -39.6680  -43.6540 C.3   100  GLN100      0.0394
     95  CG       -25.7860  -39.2040  -43.6950 C.3   100  GLN100      0.0908
     96  CD       -26.6850  -40.0770  -42.9100 C.2   100  GLN100      0.2608
     97  OE1      -26.9450  -39.8140  -41.7360 O.2   100  GLN100     -0.2717
     98  NE2      -27.0810  -41.1900  -43.5060 N.am  100  GLN100     -0.0878
@<TRIPOS>BOND
     1    93    92    2
     2    81    80    2
     3    92    91    1
     4    91    94    1
     5    91    90    1
     6    80    90   am
     7    80    79    1
     8    95    94    1
     9    95    96    1
    10    98    96   am
    11    79    82    1
    12    79    78    1
    13    96    97    2
    14    85    87   ar
    15    85    83   ar
    16    82    83    1
    17    29    27   ar
    18    29    31   ar
    19    87    88   ar
    20    13    12    2
    21    83    84   ar
    22    27    26   ar
    23    31    30   ar
    24    12    11    1
    25    75    74    2
    26    88    89    1
    27    88    86   ar
    28    26    25    1
    29    26    28   ar
    30    84    86   ar
    31    21    22    1
    32    30    28   ar
    33    11    10    1
    34    11    14    1
    35    25    22    1
    36    74    73    1
    37    69    68    2
    38    22    23    1
    39    15    14    1
    40    15    16    1
    41    73    76    1
    42    73    72    1
    43    17    16    1
    44    17    18    2
    45    20    18    1
    46    76    77    1
    47    68    72   am
    48    68    67    1
    49    23    24    2
    50    18    19    1
    51    53    51    1
    52    67    70    1
    53    67    66    1
    54    51    52    1
    55    51    50    2
    56    70    71    1
    57    50    49    1
    58    49    48    1
    59    41    40    1
    60    42    40    1
    61    40    39    2
    62    48    47    1
    63    32    33    1
    64    57    56    2
    65     4     3    2
    66     8     7   ar
    67    47    44    1
    68    36    33    1
    69    36    37    1
    70    39    38    1
    71     3     2    1
    72    33    34    1
    73    56    55    1
    74    38    37    1
    75     5     2    1
    76     5     6    1
    77     7     9   ar
    78     7     6    1
    79    54    55    1
    80    54    45   am
    81    44    45    1
    82    44    43    1
    83     2     1    1
    84    34    35    2
    85    55    58    1
    86    45    46    2
    87    58    59    1
    88    59    60   ar
    89    59    61   ar
    90    60    62   ar
    91    62    64   ar
    92    61    63   ar
    93    64    63   ar
    94    64    65    1
