@<TRIPOS>MOLECULE
tmp/4dwmA01.pdb
 121 117 0 0 0
SMALL
GASTEIGER

@<TRIPOS>ATOM
      1  N         27.7850    9.1760   13.9300 N.3    69  VAL69      -0.1231
      2  CA        26.4020    9.4810   14.5190 C.3    69  VAL69       0.1692
      3  C         25.3710    8.4350   14.0610 C.2    69  VAL69       0.2592
      4  O         24.1520    8.7940   13.9120 O.2    69  VAL69      -0.2718
      5  CB        25.8700   10.9290   14.1240 C.3    69  VAL69       0.0266
      6  CG1       25.1790   11.5060   15.3220 C.3    69  VAL69       0.0020
      7  CG2       27.1180   11.9320   13.7410 C.3    69  VAL69       0.0020
      8  N         25.8180    7.2060   13.7680 N.am   70  TYR70      -0.1962
      9  CA        24.8300    6.1440   13.3610 C.3    70  TYR70       0.1771
     10  C         24.2500    5.5200   14.6130 C.2    70  TYR70       0.2619
     11  O         24.9710    5.1360   15.4960 O.2    70  TYR70      -0.2715
     12  CB        25.5080    5.0800   12.5280 C.3    70  TYR70       0.0574
     13  CG        25.9470    5.5500   11.1780 C.ar   70  TYR70      -0.0198
     14  CD1       26.8660    4.7430   10.4420 C.ar   70  TYR70      -0.0009
     15  CD2       25.4850    6.7330   10.5900 C.ar   70  TYR70      -0.0009
     16  CE1       27.3380    5.1580    9.1940 C.ar   70  TYR70       0.0417
     17  CE2       25.9760    7.1570    9.3090 C.ar   70  TYR70       0.0417
     18  CZ        26.8670    6.3650    8.6360 C.ar   70  TYR70       0.1957
     19  OH        27.3060    6.7010    7.3590 O.3    70  TYR70      -0.2866
     20  N         22.9050    5.3870   14.6740 N.am   71  ILE71      -0.1977
     21  CA        22.3670    4.6620   15.8480 C.3    71  ILE71       0.1596
     22  C         22.5270    3.1500   15.6350 C.2    71  ILE71       0.2287
     23  O         22.2620    2.6560   14.5160 O.2    71  ILE71      -0.2864
     24  CB        20.8160    5.0240   15.9040 C.3    71  ILE71       0.0276
     25  CG1       20.7190    6.4470   16.4420 C.3    71  ILE71       0.0022
     26  CG2       20.0470    4.0880   16.7890 C.3    71  ILE71       0.0022
     27  CD1       19.2680    7.0590   16.2120 C.3    71  ILE71       0.0001
     28  N         20.2960   -3.1920   15.2640 N.3    83  PHE83      -0.1241
     29  CA        20.0660   -3.4260   13.8210 C.3    83  PHE83       0.1605
     30  C         20.8110   -4.6950   13.4300 C.2    83  PHE83       0.2264
     31  O         21.8530   -5.0880   14.0540 O.2    83  PHE83      -0.2867
     32  CB        20.6100   -2.2250   13.0660 C.3    83  PHE83       0.0534
     33  CG        19.6960   -0.9890   13.2080 C.ar   83  PHE83      -0.0203
     34  CD1       18.3300   -1.0930   12.7530 C.ar   83  PHE83      -0.0042
     35  CD2       20.1810    0.2130   13.7520 C.ar   83  PHE83      -0.0042
     36  CE1       17.5170    0.0010   12.8880 C.ar   83  PHE83      -0.0003
     37  CE2       19.3790    1.3530   13.7940 C.ar   83  PHE83      -0.0003
     38  CZ        18.0070    1.2070   13.4290 C.ar   83  PHE83      -0.0000
     39  N         20.1170   -0.6050    9.7120 N.3   109  GLY109     -0.1210
     40  CA        19.7090    0.7700   10.1270 C.3   109  GLY109      0.1956
     41  C         19.7190    1.7320    8.9260 C.2   109  GLY109      0.2612
     42  O         19.5000    2.9380    9.0600 O.2   109  GLY109     -0.2717
     43  N         19.8840    1.2890    7.7010 N.am  110  ASN110     -0.1960
     44  CA        19.8320    2.3320    6.7220 C.3   110  ASN110      0.1819
     45  C         18.4640    2.6970    6.1900 C.2   110  ASN110      0.2621
     46  O         17.4790    1.9420    6.3600 O.2   110  ASN110     -0.2715
     47  CB        20.7070    2.0780    5.6210 C.3   110  ASN110      0.1195
     48  CG        20.2930    0.9510    4.9050 C.2   110  ASN110      0.2630
     49  OD1       19.5190    1.0430    3.8850 O.2   110  ASN110     -0.2716
     50  ND2       20.8670   -0.1570    5.2810 N.am  110  ASN110     -0.0877
     51  N         18.3780    3.9440    5.6910 N.am  111  TYR111     -0.1960
     52  CA        17.0940    4.4970    5.3800 C.3   111  TYR111      0.1771
     53  C         16.3190    3.6420    4.3700 C.2   111  TYR111      0.2619
     54  O         15.1280    3.4890    4.5250 O.2   111  TYR111     -0.2715
     55  CB        17.2660    5.8600    4.7500 C.3   111  TYR111      0.0574
     56  CG        17.4630    6.9610    5.7730 C.ar  111  TYR111     -0.0198
     57  CD1       16.6870    7.0340    6.8850 C.ar  111  TYR111     -0.0009
     58  CD2       18.3960    8.0030    5.5260 C.ar  111  TYR111     -0.0009
     59  CE1       16.8740    8.1310    7.8040 C.ar  111  TYR111      0.0417
     60  CE2       18.5760    9.0910    6.4070 C.ar  111  TYR111      0.0417
     61  CZ        17.8370    9.1520    7.5220 C.ar  111  TYR111      0.1957
     62  OH        17.9770   10.2170    8.4010 O.3   111  TYR111     -0.2866
     63  N         16.9810    3.1330    3.3450 N.am  112  GLU112     -0.1977
     64  CA        16.3110    2.2800    2.3870 C.3   112  GLU112      0.1602
     65  C         15.6500    1.0440    3.0880 C.2   112  GLU112      0.2287
     66  O         14.4630    0.7690    2.8770 O.2   112  GLU112     -0.2864
     67  CB        17.3430    1.8370    1.3340 C.3   112  GLU112      0.0415
     68  CG        16.8430    0.6330    0.4250 C.3   112  GLU112      0.1163
     69  CD        17.9850   -0.1460   -0.4000 C.2   112  GLU112      0.3649
     70  OE1       19.2330    0.0200   -0.1450 O.co2 112  GLU112     -0.2457
     71  OE2       17.6010   -0.9910   -1.2720 O.co2 112  GLU112     -0.2457
     72  N         15.9560    8.7690   14.1260 N.3   155  ILE155     -0.1245
     73  CA        17.2650    9.0930   13.4690 C.3   155  ILE155      0.1561
     74  C         17.2280   10.5670   13.0060 C.2   155  ILE155      0.2260
     75  O         18.2260   11.3140   13.2010 O.2   155  ILE155     -0.2867
     76  CB        17.5160    8.1860   12.2900 C.3   155  ILE155      0.0252
     77  CG1       17.8080    6.8220   12.9320 C.3   155  ILE155      0.0019
     78  CG2       18.6080    8.7990   11.3060 C.3   155  ILE155      0.0019
     79  CD1       17.6170    5.6850   11.8130 C.3   155  ILE155      0.0001
     80  N         20.1580   12.3730   15.3300 N.3   159  ALA159     -0.1231
     81  CA        21.3950   12.4330   14.4890 C.3   159  ALA159      0.1694
     82  C         21.3360   13.4610   13.4120 C.2   159  ALA159      0.2591
     83  O         22.3310   14.2450   13.2310 O.2   159  ALA159     -0.2718
     84  CB        21.6960   11.0230   13.8590 C.3   159  ALA159      0.0304
     85  N         20.2710   13.4930   12.6120 N.am  160  GLU160     -0.1979
     86  CA        20.2960   14.4010   11.4720 C.3   160  GLU160      0.1602
     87  C         20.2810   15.8820   11.9310 C.2   160  GLU160      0.2287
     88  O         20.9270   16.7190   11.3270 O.2   160  GLU160     -0.2864
     89  CB        19.1210   14.1380   10.4650 C.3   160  GLU160      0.0415
     90  CG        19.1360   12.6740    9.8730 C.3   160  GLU160      0.1163
     91  CD        20.2660   12.4180    8.8960 C.2   160  GLU160      0.3649
     92  OE1       21.2480   13.2400    8.7850 O.co2 160  GLU160     -0.2457
     93  OE2       20.1990   11.3460    8.2290 O.co2 160  GLU160     -0.2457
     94  N         23.6920   16.8740   12.8450 N.3   163  ARG163     -0.1245
     95  CA        24.5650   17.1200   11.6850 C.3   163  ARG163      0.1563
     96  C         24.2660   18.4570   11.0690 C.2   163  ARG163      0.2260
     97  O         25.1940   18.9870   10.4260 O.2   163  ARG163     -0.2867
     98  CB        24.3650   15.9730   10.6700 C.3   163  ARG163      0.0307
     99  CG        24.8590   14.6300   11.1760 C.3   163  ARG163      0.0489
    100  CD        24.3760   13.5800   10.2100 C.3   163  ARG163      0.2205
    101  NE        24.9140   12.2520   10.5870 N.pl3 163  ARG163     -0.0865
    102  CZ        24.2710   11.1040   10.2930 C.cat 163  ARG163      0.5346
    103  NH1       23.1050   11.1680    9.6560 N.pl3 163  ARG163      0.1354
    104  NH2       24.7620    9.9230   10.5880 N.pl3 163  ARG163      0.1354
    105  N         20.0700   15.1230    4.4850 N.3   189  GLU189     -0.1231
    106  CA        20.2970   13.7820    4.9880 C.3   189  GLU189      0.1699
    107  C         21.0680   12.8790    4.0020 C.2   189  GLU189      0.2592
    108  O         22.0250   12.1680    4.3700 O.2   189  GLU189     -0.2718
    109  CB        18.9550   13.1190    5.3340 C.3   189  GLU189      0.0402
    110  CG        18.2830   13.8320    6.5480 C.3   189  GLU189      0.1161
    111  CD        16.8120   13.3100    6.7190 C.2   189  GLU189      0.3649
    112  OE1       16.4070   12.4610    5.8880 O.co2 189  GLU189     -0.2457
    113  OE2       16.1510   13.7610    7.6540 O.co2 189  GLU189     -0.2457
    114  N         20.5970   12.8820    2.7850 N.am  190  ASN190     -0.1974
    115  CA        21.1220   11.9900    1.7350 C.3   190  ASN190      0.1688
    116  C         22.5240   12.4480    1.2940 C.2   190  ASN190      0.2292
    117  O         23.2680   11.6110    0.7560 O.2   190  ASN190     -0.2864
    118  CB        20.2030   12.1030    0.5560 C.3   190  ASN190      0.1181
    119  CG        18.8910   11.2940    0.7350 C.2   190  ASN190      0.2629
    120  OD1       18.7910   10.4950    1.6450 O.2   190  ASN190     -0.2716
    121  ND2       17.9010   11.5620   -0.1630 N.am  190  ASN190     -0.0877
@<TRIPOS>BOND
     1    71    69   ar
     2    69    70   ar
     3    69    68    1
     4   121   119   am
     5    68    67    1
     6   118   119    1
     7   118   115    1
     8   119   120    2
     9   117   116    2
    10   116   115    1
    11    67    64    1
    12   115   114    1
    13    64    65    1
    14    64    63    1
    15   114   107   am
    16    66    65    2
    17    63    53   am
    18    49    48    2
    19   107   108    2
    20   107   106    1
    21    53    54    2
    22    53    52    1
    23   105   106    1
    24    55    52    1
    25    55    56    1
    26    48    50   am
    27    48    47    1
    28   106   109    1
    29   109   110    1
    30    52    51    1
    31    58    56   ar
    32    58    60   ar
    33    47    44    1
    34    51    45   am
    35    56    57   ar
    36   112   111   ar
    37    45    46    2
    38    45    44    1
    39    60    61   ar
    40   110   111    1
    41   111   113   ar
    42    44    43    1
    43    57    59   ar
    44    19    18    1
    45    61    59   ar
    46    61    62    1
    47    43    41   am
    48    93    91   ar
    49    18    16   ar
    50    18    17   ar
    51    92    91   ar
    52    91    90    1
    53    41    42    2
    54    41    40    1
    55    16    14   ar
    56    17    15   ar
    57   103   102    1
    58    39    40    1
    59    90    89    1
    60   100   101    1
    61   100    99    1
    62   102   101    2
    63   102   104    1
    64    97    96    2
    65    14    13   ar
    66    89    86    1
    67    15    13   ar
    68    98    99    1
    69    98    95    1
    70    96    95    1
    71    13    12    1
    72    78    76    1
    73    88    87    2
    74    86    87    1
    75    86    85    1
    76    95    94    1
    77    79    77    1
    78    76    77    1
    79    76    73    1
    80    12     9    1
    81    85    82   am
    82    34    36   ar
    83    34    33   ar
    84    36    38   ar
    85    74    75    2
    86    74    73    1
    87    32    33    1
    88    32    29    1
    89    33    35   ar
    90    83    82    2
    91     9     8    1
    92     9    10    1
    93    82    81    1
    94    38    37   ar
    95    30    29    1
    96    30    31    2
    97    73    72    1
    98     7     5    1
    99    35    37   ar
   100     8     3   am
   101    29    28    1
   102    84    81    1
   103     4     3    2
   104     1     2    1
   105     3     2    1
   106     5     2    1
   107     5     6    1
   108    81    80    1
   109    23    22    2
   110    10    20   am
   111    10    11    2
   112    20    21    1
   113    22    21    1
   114    21    24    1
   115    24    25    1
   116    24    26    1
   117    27    25    1
