@<TRIPOS>MOLECULE
tmp/4dx0A00.pdb
 138 129 0 0 0
SMALL
GASTEIGER

@<TRIPOS>ATOM
      1  N        -10.6920  -24.4540    3.3290 N.3    40  VAL40      -0.1245
      2  CA        -9.9200  -25.0600    4.4150 C.3    40  VAL40       0.1561
      3  C         -9.9980  -26.5900    4.3540 C.2    40  VAL40       0.2260
      4  O         -9.0050  -27.2780    4.6020 O.2    40  VAL40      -0.2867
      5  CB       -10.3950  -24.5540    5.8080 C.3    40  VAL40       0.0252
      6  CG1       -9.4630  -25.0380    6.9150 C.3    40  VAL40       0.0019
      7  CG2      -10.4870  -23.0300    5.8290 C.3    40  VAL40       0.0019
      8  N         -7.9680  -28.0770    1.1540 N.3    43  ARG43      -0.1231
      9  CA        -6.5410  -27.8300    1.3450 C.3    43  ARG43       0.1694
     10  C         -5.9180  -28.8830    2.2530 C.2    43  ARG43       0.2592
     11  O         -4.8740  -29.4500    1.9290 O.2    43  ARG43      -0.2718
     12  CB        -6.3360  -26.4370    1.9410 C.3    43  ARG43       0.0321
     13  CG        -4.8890  -26.0190    2.1480 C.3    43  ARG43       0.0489
     14  CD        -4.7940  -24.9800    3.2540 C.3    43  ARG43       0.2205
     15  NE        -5.7180  -23.8670    3.0450 N.pl3  43  ARG43      -0.0865
     16  CZ        -6.1410  -23.0430    4.0010 C.cat  43  ARG43       0.5346
     17  NH1       -5.7300  -23.1950    5.2550 N.pl3  43  ARG43       0.1354
     18  NH2       -6.9830  -22.0630    3.7020 N.pl3  43  ARG43       0.1354
     19  N         -6.5670  -29.1300    3.3900 N.am   44  ASN44      -0.1974
     20  CA        -6.1170  -30.1340    4.3480 C.3    44  ASN44       0.1688
     21  C         -6.1690  -31.5420    3.7780 C.2    44  ASN44       0.2292
     22  O         -5.3140  -32.3680    4.0870 O.2    44  ASN44      -0.2864
     23  CB        -6.9330  -30.0530    5.6380 C.3    44  ASN44       0.1181
     24  CG        -6.5850  -28.8360    6.4700 C.2    44  ASN44       0.2629
     25  OD1       -5.4130  -28.5650    6.7380 O.2    44  ASN44      -0.2716
     26  ND2       -7.6050  -28.0970    6.8880 N.am   44  ASN44      -0.0877
     27  N         -3.2280  -31.5830    1.4940 N.3    47  SER47      -0.1202
     28  CA        -2.0730  -31.6770    2.3800 C.3    47  SER47       0.2020
     29  C         -1.9070  -33.1150    2.8620 C.2    47  SER47       0.2618
     30  O         -0.9310  -33.7750    2.5080 O.2    47  SER47      -0.2717
     31  CB        -2.2220  -30.7170    3.5660 C.3    47  SER47       0.2103
     32  OG        -1.1190  -30.8140    4.4510 O.3    47  SER47      -0.2182
     33  N         -2.8810  -33.5970    3.6360 N.am   48  VAL48      -0.1979
     34  CA        -2.9070  -34.9790    4.1300 C.3    48  VAL48       0.1595
     35  C         -2.5990  -35.9850    3.0160 C.2    48  VAL48       0.2287
     36  O         -1.7840  -36.8910    3.2060 O.2    48  VAL48      -0.2864
     37  CB        -4.2670  -35.3210    4.8200 C.3    48  VAL48       0.0276
     38  CG1       -4.4630  -36.8260    4.9710 C.3    48  VAL48       0.0022
     39  CG2       -4.3720  -34.6410    6.1780 C.3    48  VAL48       0.0022
     40  N          1.1140  -35.6960    1.5770 N.3    51  LYS51      -0.1231
     41  CA         1.9900  -35.9960    2.7160 C.3    51  LYS51       0.1693
     42  C          2.0070  -37.4860    3.0540 C.2    51  LYS51       0.2592
     43  O          3.0670  -38.0450    3.3440 O.2    51  LYS51      -0.2718
     44  CB         1.5940  -35.1820    3.9550 C.3    51  LYS51       0.0285
     45  CG         1.8450  -33.6760    3.8510 C.3    51  LYS51       0.0035
     46  CD         3.3020  -33.3040    4.1120 C.3    51  LYS51       0.0206
     47  CE         3.5670  -31.8290    3.8140 C.3    51  LYS51       0.1093
     48  NZ         2.8600  -30.9050    4.7490 N.3    51  LYS51      -0.1314
     49  N          0.8340  -38.1190    3.0170 N.am   52  ASN52      -0.1974
     50  CA         0.7140  -39.5580    3.2700 C.3    52  ASN52       0.1688
     51  C          1.3060  -40.4160    2.1560 C.2    52  ASN52       0.2292
     52  O          1.9040  -41.4610    2.4260 O.2    52  ASN52      -0.2864
     53  CB        -0.7430  -39.9550    3.5250 C.3    52  ASN52       0.1181
     54  CG        -1.0930  -39.9780    5.0020 C.2    52  ASN52       0.2629
     55  OD1       -0.5610  -40.7840    5.7680 O.2    52  ASN52      -0.2716
     56  ND2       -2.0020  -39.1000    5.4080 N.am   52  ASN52      -0.0877
     57  N         -2.6760  -16.2190    6.6300 N.3   117  GLU117     -0.1245
     58  CA        -2.3230  -17.6040    6.9550 C.3   117  GLU117      0.1567
     59  C         -2.3020  -18.5300    5.7340 C.2   117  GLU117      0.2260
     60  O         -1.5680  -19.5210    5.7160 O.2   117  GLU117     -0.2867
     61  CB        -3.2560  -18.1610    8.0390 C.3   117  GLU117      0.0388
     62  CG        -4.7470  -18.1190    7.6930 C.3   117  GLU117      0.1160
     63  CD        -5.6310  -18.7350    8.7680 C.2   117  GLU117      0.3649
     64  OE1       -5.1490  -19.6050    9.5320 O.co2 117  GLU117     -0.2457
     65  OE2       -6.8200  -18.3500    8.8440 O.co2 117  GLU117     -0.2457
     66  N          0.8730  -21.0630    4.6430 N.3   121  PHE121     -0.1241
     67  CA         0.6370  -22.4970    4.4740 C.3   121  PHE121      0.1605
     68  C          1.1890  -23.0090    3.1450 C.2   121  PHE121      0.2264
     69  O          1.9630  -23.9670    3.1220 O.2   121  PHE121     -0.2867
     70  CB        -0.8620  -22.8110    4.5780 C.3   121  PHE121      0.0534
     71  CG        -1.1760  -24.2830    4.6870 C.ar  121  PHE121     -0.0203
     72  CD1       -1.4710  -24.8500    5.9230 C.ar  121  PHE121     -0.0042
     73  CD2       -1.1870  -25.0990    3.5560 C.ar  121  PHE121     -0.0042
     74  CE1       -1.7650  -26.2090    6.0330 C.ar  121  PHE121     -0.0003
     75  CE2       -1.4770  -26.4580    3.6570 C.ar  121  PHE121     -0.0003
     76  CZ        -1.7680  -27.0130    4.8980 C.ar  121  PHE121     -0.0000
     77  N          5.0470  -22.5270    2.8170 N.3   124  LYS124     -0.1245
     78  CA         5.6250  -23.5570    3.6790 C.3   124  LYS124      0.1561
     79  C          5.5450  -24.9180    2.9890 C.2   124  LYS124      0.2260
     80  O          6.5020  -25.6960    3.0110 O.2   124  LYS124     -0.2867
     81  CB         4.8870  -23.5960    5.0220 C.3   124  LYS124      0.0271
     82  CG         5.2270  -24.7780    5.9160 C.3   124  LYS124      0.0035
     83  CD         4.1840  -24.9510    7.0080 C.3   124  LYS124      0.0206
     84  CE         4.3480  -26.2810    7.7240 C.3   124  LYS124      0.1093
     85  NZ         3.9500  -27.4380    6.8680 N.3   124  LYS124     -0.1314
     86  N          0.1470  -19.5530   16.7050 N.3   168  HIS168     -0.1227
     87  CA        -0.5920  -20.0750   15.5510 C.3   168  HIS168      0.1737
     88  C          0.1080  -21.3140   14.9830 C.2   168  HIS168      0.2438
     89  O          1.3000  -21.2570   14.6720 O.2   168  HIS168     -0.2733
     90  CB        -0.7390  -18.9980   14.4700 C.3   168  HIS168      0.0758
     91  CG        -1.8210  -19.2810   13.4730 C.ar  168  HIS168      0.0818
     92  ND1       -1.6850  -20.2180   12.4720 N.ar  168  HIS168     -0.2268
     93  CD2       -3.0530  -18.7420   13.3180 C.ar  168  HIS168      0.1154
     94  CE1       -2.7890  -20.2490   11.7470 C.ar  168  HIS168      0.1986
     95  NE2       -3.6350  -19.3630   12.2390 N.ar  168  HIS168     -0.2212
     96  N         -0.6370  -22.4330   14.8430 N.am  169  PRO169     -0.2718
     97  CA        -0.1030  -23.7480   14.4640 C.3   169  PRO169      0.1535
     98  C          0.9280  -23.7310   13.3300 C.2   169  PRO169      0.2598
     99  O          2.0370  -24.2400   13.5060 O.2   169  PRO169     -0.2715
    100  CB        -1.3550  -24.5190   14.0380 C.3   169  PRO169      0.0310
    101  CG        -2.4340  -23.9420   14.8650 C.3   169  PRO169      0.0237
    102  CD        -2.0990  -22.4830   15.0430 C.3   169  PRO169      0.0939
    103  N          0.5680  -23.1440   12.1890 N.am  170  ILE170     -0.1978
    104  CA         1.4350  -23.1580   11.0030 C.3   170  ILE170      0.1596
    105  C          2.7070  -22.3230   11.1600 C.2   170  ILE170      0.2287
    106  O          3.7330  -22.6360   10.5560 O.2   170  ILE170     -0.2864
    107  CB         0.6810  -22.7790    9.6970 C.3   170  ILE170      0.0276
    108  CG1        0.0170  -21.4020    9.8210 C.3   170  ILE170      0.0022
    109  CG2       -0.3340  -23.8640    9.3330 C.3   170  ILE170      0.0022
    110  CD1       -0.3440  -20.7640    8.4940 C.3   170  ILE170      0.0001
    111  N          4.6930  -24.7450   12.9440 N.3   173  GLY173     -0.1225
    112  CA         4.9030  -25.8630   12.0250 C.3   173  GLY173      0.1811
    113  C          5.9340  -25.5350   10.9650 C.2   173  GLY173      0.2280
    114  O          6.8120  -26.3500   10.6680 O.2   173  GLY173     -0.2866
    115  N          9.6410  -27.2760   10.5600 N.3   177  ASN177     -0.1240
    116  CA        10.1730  -27.7930    9.2990 C.3   177  ASN177      0.1653
    117  C         11.3850  -27.0080    8.8060 C.2   177  ASN177      0.2266
    118  O         12.3330  -27.5890    8.2710 O.2   177  ASN177     -0.2867
    119  CB         9.0820  -27.8280    8.2250 C.3   177  ASN177      0.1155
    120  CG         8.1090  -28.9790    8.4150 C.2   177  ASN177      0.2627
    121  OD1        8.5080  -30.1120    8.6890 O.2   177  ASN177     -0.2716
    122  ND2        6.8220  -28.6940    8.2590 N.am  177  ASN177     -0.0877
    123  N         -3.5160  -28.4150   18.3590 N.3   211  ASP211     -0.1239
    124  CA        -2.5420  -28.4870   17.2710 C.3   211  ASP211      0.1674
    125  C         -1.2430  -27.7650   17.6240 C.2   211  ASP211      0.2266
    126  O         -0.1540  -28.2880   17.3820 O.2   211  ASP211     -0.2867
    127  CB        -3.1340  -27.9160   15.9780 C.3   211  ASP211      0.1410
    128  CG        -4.2370  -28.7880   15.4020 C.2   211  ASP211      0.3668
    129  OD1       -3.9660  -29.9650   15.0770 O.co2 211  ASP211     -0.2456
    130  OD2       -5.3740  -28.2910   15.2640 O.co2 211  ASP211     -0.2456
    131  N          3.0670  -29.2960   18.4100 N.3   215  ILE215     -0.1245
    132  CA         4.2330  -28.8430   17.6380 C.3   215  ILE215      0.1561
    133  C          5.3740  -28.3360   18.5310 C.2   215  ILE215      0.2260
    134  O          6.5480  -28.5970   18.2520 O.2   215  ILE215     -0.2867
    135  CB         3.8420  -27.7720   16.5810 C.3   215  ILE215      0.0252
    136  CG1        2.7200  -28.3010   15.6800 C.3   215  ILE215      0.0019
    137  CG2        5.0520  -27.3700   15.7350 C.3   215  ILE215      0.0019
    138  CD1        1.9430  -27.2260   14.9420 C.3   215  ILE215      0.0001
@<TRIPOS>BOND
     1     8     9    1
     2     9    12    1
     3     9    10    1
     4    27    28    1
     5    40    41    1
     6    11    10    2
     7    12    13    1
     8    13    14    1
     9    51    52    2
    10    51    50    1
    11    10    19   am
    12    28    29    1
    13    28    31    1
    14    30    29    2
    15    41    42    1
    16    41    44    1
    17    77    78    1
    18    29    33   am
    19    79    80    2
    20    79    78    1
    21    35    36    2
    22    35    34    1
    23    49    42   am
    24    49    50    1
    25    15    14    1
    26    15    16    2
    27    42    43    2
    28    69    68    2
    29    68    67    1
    30    50    53    1
    31     1     2    1
    32    19    20    1
    33    53    54    1
    34    73    75   ar
    35    73    71   ar
    36    31    32    1
    37    33    34    1
    38    75    76   ar
    39    78    81    1
    40    18    16    1
    41    21    22    2
    42    21    20    1
    43    47    46    1
    44    47    48    1
    45    45    44    1
    46    45    46    1
    47    16    17    1
    48    34    37    1
    49    20    23    1
    50     3     2    1
    51     3     4    2
    52     2     5    1
    53    67    70    1
    54    67    66    1
    55    70    71    1
    56    71    72   ar
    57    37    38    1
    58    37    39    1
    59    76    74   ar
    60    54    56   am
    61    54    55    2
    62    81    82    1
    63    23    24    1
    64    60    59    2
    65    59    58    1
    66     5     7    1
    67     5     6    1
    68    82    83    1
    69    72    74   ar
    70    24    25    2
    71    24    26   am
    72    57    58    1
    73    85    84    1
    74    58    61    1
    75    83    84    1
    76    62    61    1
    77    62    63    1
    78   119   120    1
    79   119   116    1
    80   122   120   am
    81   118   117    2
    82   120   121    2
    83   110   108    1
    84    63    65   ar
    85    63    64   ar
    86   117   116    1
    87   116   115    1
    88   109   107    1
    89   107   108    1
    90   107   104    1
    91   106   105    2
    92   114   113    2
    93   113   112    1
    94   104   105    1
    95   104   103    1
    96    94    95   ar
    97    94    92   ar
    98   112   111    1
    99   103    98   am
   100    95    93   ar
   101    92    91   ar
   102    93    91   ar
   103    98    99    2
   104    98    97    1
   105    91    90    1
   106   100    97    1
   107   100   101    1
   108    97    96    1
   109    90    87    1
   110    89    88    2
   111    96    88   am
   112    96   102    1
   113   101   102    1
   114   138   136    1
   115    88    87    1
   116   129   128   ar
   117   130   128   ar
   118   128   127    1
   119    87    86    1
   120   136   135    1
   121   137   135    1
   122   127   124    1
   123   135   132    1
   124   124   125    1
   125   124   123    1
   126   126   125    2
   127   132   131    1
   128   132   133    1
   129   134   133    2
