@<TRIPOS>MOLECULE
tmp/4dx2A00.pdb
 114 107 0 0 0
SMALL
GASTEIGER

@<TRIPOS>ATOM
      1  N        -62.4570   49.9090   11.6000 N.3    40  GLU40      -0.1245
      2  CA       -62.9510   51.1640   12.1620 C.3    40  GLU40       0.1567
      3  C        -62.9200   52.2230   11.0310 C.2    40  GLU40       0.2260
      4  O        -61.8690   52.5070   10.4550 O.2    40  GLU40      -0.2867
      5  CB       -62.1300   51.5150   13.4000 C.3    40  GLU40       0.0388
      6  CG       -62.1550   52.9590   13.8600 C.3    40  GLU40       0.1160
      7  CD       -61.2340   53.2020   15.0740 C.2    40  GLU40       0.3649
      8  OE1      -59.9890   53.2270   14.9140 O.co2  40  GLU40      -0.2457
      9  OE2      -61.7460   53.3880   16.2110 O.co2  40  GLU40      -0.2457
     10  N        -58.6630   50.8340   10.8150 N.3    45  LYS45      -0.1245
     11  CA       -57.9540   49.9070   11.6970 C.3    45  LYS45       0.1561
     12  C        -58.5680   48.5170   11.6570 C.2    45  LYS45       0.2260
     13  O        -59.7970   48.3690   11.8170 O.2    45  LYS45      -0.2867
     14  CB       -57.9990   50.4670   13.1020 C.3    45  LYS45       0.0271
     15  CG       -57.5720   49.5810   14.2200 C.3    45  LYS45       0.0035
     16  CD       -58.3590   50.0490   15.4090 C.3    45  LYS45       0.0206
     17  CE       -57.4670   50.2220   16.6100 C.3    45  LYS45       0.1093
     18  NZ       -58.2290   50.7480   17.7760 N.3    45  LYS45      -0.1314
     19  N        -55.9340   46.1520   16.8020 N.3    50  LYS50      -0.1245
     20  CA       -56.8140   46.0780   17.9470 C.3    50  LYS50       0.1561
     21  C        -56.2770   45.0850   18.9360 C.2    50  LYS50       0.2260
     22  O        -56.1500   45.4170   20.1100 O.2    50  LYS50      -0.2867
     23  CB       -58.2160   45.6440   17.5470 C.3    50  LYS50       0.0271
     24  CG       -59.1290   45.5490   18.7510 C.3    50  LYS50       0.0035
     25  CD       -59.6530   46.8970   19.1810 C.3    50  LYS50       0.0206
     26  CE       -60.2650   46.7920   20.5590 C.3    50  LYS50       0.1093
     27  NZ       -60.7380   48.1420   20.9230 N.3    50  LYS50      -0.1314
     28  N        -53.0420   46.2340   20.6470 N.3    53  LEU53      -0.1231
     29  CA       -53.2330   47.3110   21.6070 C.3    53  LEU53       0.1693
     30  C        -53.9140   46.8420   22.8620 C.2    53  LEU53       0.2592
     31  O        -54.1340   47.6530   23.7510 O.2    53  LEU53      -0.2718
     32  CB       -54.0740   48.4190   21.0250 C.3    53  LEU53       0.0284
     33  CG       -53.5570   49.1990   19.8250 C.3    53  LEU53       0.0019
     34  CD1      -54.6940   50.0350   19.2110 C.3    53  LEU53       0.0001
     35  CD2      -52.3640   50.0320   20.2440 C.3    53  LEU53       0.0001
     36  N        -54.2720   45.5550   22.9200 N.am   54  ASN54      -0.1974
     37  CA       -54.8010   44.9250   24.1290 C.3    54  ASN54       0.1688
     38  C        -54.0730   43.6570   24.4760 C.2    54  ASN54       0.2292
     39  O        -54.5990   42.5410   24.3210 O.2    54  ASN54      -0.2864
     40  CB       -56.2620   44.5970   23.9810 C.3    54  ASN54       0.1181
     41  CG       -57.0980   45.8120   23.7210 C.2    54  ASN54       0.2629
     42  OD1      -57.6290   46.4320   24.6500 O.2    54  ASN54      -0.2716
     43  ND2      -57.2230   46.1660   22.4530 N.am   54  ASN54      -0.0877
     44  N        -52.9640   52.2830    9.3420 N.3    84  PHE84      -0.1241
     45  CA       -53.9640   53.2780    9.7090 C.3    84  PHE84       0.1605
     46  C        -53.9770   54.2660    8.5620 C.2    84  PHE84       0.2264
     47  O        -52.9440   54.4370    7.9110 O.2    84  PHE84      -0.2867
     48  CB       -53.5820   53.9760   10.9900 C.3    84  PHE84       0.0534
     49  CG       -53.9060   53.1830   12.2130 C.ar   84  PHE84      -0.0203
     50  CD1      -53.2500   51.9780   12.4750 C.ar   84  PHE84      -0.0042
     51  CD2      -54.8760   53.6390   13.1150 C.ar   84  PHE84      -0.0042
     52  CE1      -53.5530   51.2460   13.6150 C.ar   84  PHE84      -0.0003
     53  CE2      -55.1840   52.9010   14.2550 C.ar   84  PHE84      -0.0003
     54  CZ       -54.5240   51.7060   14.5020 C.ar   84  PHE84      -0.0000
     55  N        -52.7990   58.9010   12.7700 N.3    89  TYR89      -0.1241
     56  CA       -51.9730   57.6860   12.9220 C.3    89  TYR89       0.1605
     57  C        -51.5110   57.1110   11.5970 C.2    89  TYR89       0.2264
     58  O        -51.0930   55.9250   11.5200 O.2    89  TYR89      -0.2867
     59  CB       -52.7210   56.5880   13.6480 C.3    89  TYR89       0.0534
     60  CG       -53.0710   56.8850   15.0840 C.ar   89  TYR89      -0.0201
     61  CD1      -52.0860   57.0020   16.0670 C.ar   89  TYR89      -0.0009
     62  CD2      -54.4030   56.9980   15.4790 C.ar   89  TYR89      -0.0009
     63  CE1      -52.4200   57.2440   17.3950 C.ar   89  TYR89       0.0417
     64  CE2      -54.7440   57.2370   16.7990 C.ar   89  TYR89       0.0417
     65  CZ       -53.7540   57.3630   17.7460 C.ar   89  TYR89       0.1957
     66  OH       -54.1190   57.5750   19.0450 O.3    89  TYR89      -0.2866
     67  N        -49.2160   53.9350   10.2640 N.3    92  GLN92      -0.1245
     68  CA       -48.9190   52.9690   11.3150 C.3    92  GLN92       0.1566
     69  C        -49.3980   51.5470   10.9700 C.2    92  GLN92       0.2260
     70  O        -50.4960   51.3610   10.4310 O.2    92  GLN92      -0.2867
     71  CB       -49.5150   53.4310   12.6340 C.3    92  GLN92       0.0367
     72  CG       -49.4060   52.3920   13.7320 C.3    92  GLN92       0.0905
     73  CD       -49.8770   52.9060   15.0840 C.2    92  GLN92       0.2608
     74  OE1      -50.9580   53.5010   15.2030 O.2    92  GLN92      -0.2717
     75  NE2      -49.0780   52.6510   16.1260 N.am   92  GLN92      -0.0878
     76  N        -46.7540   48.5560   16.1620 N.3    97  ILE97      -0.1245
     77  CA       -47.3440   48.3690   17.4920 C.3    97  ILE97       0.1561
     78  C        -46.6270   47.2630   18.2640 C.2    97  ILE97       0.2260
     79  O        -46.3680   47.4250   19.4680 O.2    97  ILE97      -0.2867
     80  CB       -48.8810   48.2210   17.4400 C.3    97  ILE97       0.0252
     81  CG1      -49.4630   49.4330   16.7300 C.3    97  ILE97       0.0019
     82  CG2      -49.4830   48.2450   18.8320 C.3    97  ILE97       0.0019
     83  CD1      -50.7850   49.1870   16.0470 C.3    97  ILE97       0.0001
     84  N        -43.4190   48.9760   19.4140 N.3   100  GLU100     -0.1231
     85  CA       -43.6170   49.8800   20.5280 C.3   100  GLU100      0.1699
     86  C        -44.0720   49.2110   21.8330 C.2   100  GLU100      0.2592
     87  O        -43.5820   49.5520   22.9150 O.2   100  GLU100     -0.2718
     88  CB       -44.5450   50.9960   20.1410 C.3   100  GLU100      0.0402
     89  CG       -44.5360   52.0950   21.1660 C.3   100  GLU100      0.1161
     90  CD       -45.6050   51.8980   22.2250 C.2   100  GLU100      0.3649
     91  OE1      -45.4560   52.4880   23.3280 O.co2 100  GLU100     -0.2457
     92  OE2      -46.6010   51.1690   21.9460 O.co2 100  GLU100     -0.2457
     93  N        -44.9960   48.2550   21.7370 N.am  101  ARG101     -0.1980
     94  CA       -45.4590   47.5350   22.9320 C.3   101  ARG101      0.1597
     95  C        -44.3620   46.6130   23.4410 C.2   101  ARG101      0.2287
     96  O        -44.4960   45.9780   24.4790 O.2   101  ARG101     -0.2864
     97  CB       -46.7790   46.7980   22.7060 C.3   101  ARG101      0.0334
     98  CG       -47.9360   47.7260   22.4390 C.3   101  ARG101      0.0492
     99  CD       -48.3560   48.4530   23.6860 C.3   101  ARG101      0.2205
    100  NE       -49.7910   48.7860   23.6730 N.pl3 101  ARG101     -0.0865
    101  CZ       -50.2800   50.0370   23.5790 C.cat 101  ARG101      0.5346
    102  NH1      -49.4570   51.0870   23.4650 N.pl3 101  ARG101      0.1354
    103  NH2      -51.6080   50.2530   23.5830 N.pl3 101  ARG101      0.1354
    104  N        -49.3180   62.0990   14.8690 N.3   125  PHE125     -0.1241
    105  CA       -48.8980   61.4800   16.1250 C.3   125  PHE125      0.1605
    106  C        -47.4040   61.0710   16.1540 C.2   125  PHE125      0.2264
    107  O        -46.8110   60.8920   17.2340 O.2   125  PHE125     -0.2867
    108  CB       -49.8290   60.2730   16.3990 C.3   125  PHE125      0.0534
    109  CG       -49.5020   59.4930   17.6410 C.ar  125  PHE125     -0.0203
    110  CD1      -48.9390   58.2340   17.5480 C.ar  125  PHE125     -0.0042
    111  CD2      -49.7700   60.0130   18.8980 C.ar  125  PHE125     -0.0042
    112  CE1      -48.6380   57.5080   18.6810 C.ar  125  PHE125     -0.0003
    113  CE2      -49.4670   59.2930   20.0390 C.ar  125  PHE125     -0.0003
    114  CZ       -48.9000   58.0370   19.9310 C.ar  125  PHE125     -0.0000
@<TRIPOS>BOND
     1    47    46    2
     2    46    45    1
     3    44    45    1
     4    45    48    1
     5    67    68    1
     6    70    69    2
     7     4     3    2
     8    10    11    1
     9    69    68    1
    10    48    49    1
    11     3     2    1
    12    68    71    1
    13    58    57    2
    14    57    56    1
    15     1     2    1
    16    12    11    1
    17    12    13    2
    18    11    14    1
    19     2     5    1
    20    49    50   ar
    21    49    51   ar
    22    50    52   ar
    23    71    72    1
    24    55    56    1
    25    56    59    1
    26    14    15    1
    27    51    53   ar
    28     5     6    1
    29    52    54   ar
    30    59    60    1
    31    72    73    1
    32     6     7    1
    33    15    16    1
    34    53    54   ar
    35   104   105    1
    36     8     7   ar
    37     7     9   ar
    38    73    74    2
    39    73    75   am
    40    60    62   ar
    41    60    61   ar
    42    16    17    1
    43    62    64   ar
    44    83    81    1
    45    61    63   ar
    46   105   106    1
    47   105   108    1
    48   106   107    2
    49    76    77    1
    50   108   109    1
    51    17    18    1
    52    81    80    1
    53    64    65   ar
    54    19    20    1
    55    63    65   ar
    56    80    77    1
    57    80    82    1
    58    77    78    1
    59    23    20    1
    60    23    24    1
    61   110   109   ar
    62   110   112   ar
    63   109   111   ar
    64    65    66    1
    65    20    21    1
    66    78    79    2
    67   112   114   ar
    68    24    25    1
    69   111   113   ar
    70    21    22    2
    71    25    26    1
    72    34    33    1
    73    84    85    1
    74    33    35    1
    75    33    32    1
    76   114   113   ar
    77    88    85    1
    78    88    89    1
    79    85    86    1
    80    26    27    1
    81    28    29    1
    82    32    29    1
    83    89    90    1
    84    29    30    1
    85    93    86   am
    86    93    94    1
    87    86    87    2
    88    92    90   ar
    89    90    91   ar
    90    98    97    1
    91    98    99    1
    92    43    41   am
    93    97    94    1
    94    30    36   am
    95    30    31    2
    96    36    37    1
    97    94    95    1
    98    95    96    2
    99   102   101    1
   100   101   103    1
   101   101   100    2
   102   100    99    1
   103    41    40    1
   104    41    42    2
   105    40    37    1
   106    37    38    1
   107    39    38    2
