@<TRIPOS>MOLECULE
tmp/4dx9C00.pdb
 81 77 0 0 0
SMALL
GASTEIGER

@<TRIPOS>ATOM
      1  N        -15.7760    3.8430  -88.7810 N.3    58  LEU58      -0.1231
      2  CA       -15.1770    4.0380  -87.4630 C.3    58  LEU58       0.1693
      3  C        -13.9570    4.9600  -87.5000 C.2    58  LEU58       0.2592
      4  O        -13.5780    5.5320  -86.4770 O.2    58  LEU58      -0.2718
      5  CB       -14.8060    2.6870  -86.8310 C.3    58  LEU58       0.0284
      6  CG       -15.9120    1.6400  -86.6340 C.3    58  LEU58       0.0019
      7  CD1      -15.3080    0.2740  -86.3460 C.3    58  LEU58       0.0001
      8  CD2      -16.8920    2.0390  -85.5380 C.3    58  LEU58       0.0001
      9  N        -13.3520    5.1040  -88.6790 N.am   59  ILE59      -0.1966
     10  CA       -12.1770    5.9660  -88.8580 C.3    59  ILE59       0.1727
     11  C        -12.5820    7.4430  -88.8550 C.2    59  ILE59       0.2616
     12  O        -13.5530    7.8290  -89.5080 O.2    59  ILE59      -0.2715
     13  CB       -11.4080    5.6290  -90.1590 C.3    59  ILE59       0.0290
     14  CG1      -11.1000    4.1290  -90.2350 C.3    59  ILE59       0.0022
     15  CG2      -10.1160    6.4330  -90.2500 C.3    59  ILE59       0.0023
     16  CD1      -10.8400    3.6170  -91.6360 C.3    59  ILE59       0.0001
     17  N        -11.8320    8.2560  -88.1130 N.am   60  ILE60      -0.1963
     18  CA       -12.1060    9.6910  -88.0050 C.3    60  ILE60       0.1727
     19  C        -11.0120   10.5370  -88.6660 C.2    60  ILE60       0.2616
     20  O        -11.3080   11.3810  -89.5140 O.2    60  ILE60      -0.2715
     21  CB       -12.3130   10.1310  -86.5330 C.3    60  ILE60       0.0290
     22  CG1      -13.4010    9.2820  -85.8620 C.3    60  ILE60       0.0022
     23  CG2      -12.6700   11.6130  -86.4560 C.3    60  ILE60       0.0023
     24  CD1      -13.3870    9.3330  -84.3470 C.3    60  ILE60       0.0001
     25  N         -9.7570   10.3050  -88.2800 N.am   61  ARG61      -0.1977
     26  CA        -8.6330   11.1030  -88.7750 C.3    61  ARG61       0.1597
     27  C         -7.3400   10.2990  -88.9160 C.2    61  ARG61       0.2287
     28  O         -7.0600    9.4090  -88.1110 O.2    61  ARG61      -0.2864
     29  CB        -8.3920   12.3030  -87.8540 C.3    61  ARG61       0.0334
     30  CG        -7.7410   13.4920  -88.5410 C.3    61  ARG61       0.0492
     31  CD        -7.3880   14.5870  -87.5500 C.3    61  ARG61       0.2205
     32  NE        -7.5600   15.9110  -88.1410 N.pl3  61  ARG61      -0.0865
     33  CZ        -8.4720   16.7990  -87.7530 C.cat  61  ARG61       0.5346
     34  NH1       -9.2980   16.5230  -86.7500 N.pl3  61  ARG61       0.1354
     35  NH2       -8.5490   17.9750  -88.3610 N.pl3  61  ARG61       0.1354
     36  N         -3.1510   11.0540  -89.5040 N.3    62  VAL62      -0.1245
     37  CA        -2.0910   12.0640  -89.4940 C.3    62  VAL62       0.1561
     38  C         -0.7360   11.4170  -89.7800 C.2    62  VAL62       0.2260
     39  O         -0.4160   10.3710  -89.2190 O.2    62  VAL62      -0.2867
     40  CB        -2.0170   12.8070  -88.1360 C.3    62  VAL62       0.0252
     41  CG1       -1.1250   14.0370  -88.2380 C.3    62  VAL62       0.0019
     42  CG2       -3.4020   13.2120  -87.6520 C.3    62  VAL62       0.0019
     43  N         -2.4250    8.4280  -97.1090 N.3    94  CYS94      -0.1235
     44  CA        -3.4580    9.4220  -96.8110 C.3    94  CYS94       0.1677
     45  C         -4.2990    9.7630  -98.0430 C.2    94  CYS94       0.2270
     46  O         -5.4910   10.0560  -97.9260 O.2    94  CYS94      -0.2867
     47  CB        -2.8290   10.6950  -96.2400 C.3    94  CYS94       0.0956
     48  SG        -1.9410   10.4640  -94.6830 S.3    94  CYS94      -0.0801
     49  N         -7.0790    7.0310  -98.7790 N.3    97  LEU97      -0.1231
     50  CA        -8.2360    7.2440  -97.9090 C.3    97  LEU97       0.1693
     51  C         -9.0980    8.4210  -98.3650 C.2    97  LEU97       0.2592
     52  O        -10.2920    8.4650  -98.0760 O.2    97  LEU97      -0.2718
     53  CB        -7.7980    7.4500  -96.4550 C.3    97  LEU97       0.0284
     54  CG        -7.6780    6.2210  -95.5480 C.3    97  LEU97       0.0019
     55  CD1       -6.3590    5.4940  -95.7580 C.3    97  LEU97       0.0001
     56  CD2       -7.8260    6.6290  -94.0910 C.3    97  LEU97       0.0001
     57  N         -8.4900    9.3600  -99.0880 N.am   98  SER98      -0.1952
     58  CA        -9.1810   10.5690  -99.5450 C.3    98  SER98       0.1924
     59  C        -10.2340   10.3020 -100.6280 C.2    98  SER98       0.2314
     60  O        -11.0810   11.1560 -100.8980 O.2    98  SER98      -0.2863
     61  CB        -8.1690   11.6140 -100.0250 C.3    98  SER98       0.2116
     62  OG        -8.7910   12.8690 -100.2340 O.3    98  SER98      -0.2180
     63  N        -12.8640    7.5310  -98.2820 N.3   101  PHE101     -0.1227
     64  CA       -13.6940    8.1310  -97.2290 C.3   101  PHE101      0.1736
     65  C        -15.0990    8.4780  -97.7120 C.2   101  PHE101      0.2595
     66  O        -16.0740    8.3080  -96.9760 O.2   101  PHE101     -0.2718
     67  CB       -13.0350    9.3890  -96.6520 C.3   101  PHE101      0.0547
     68  CG       -12.3180    9.1640  -95.3480 C.ar  101  PHE101     -0.0202
     69  CD1      -13.0270    8.8740  -94.1860 C.ar  101  PHE101     -0.0042
     70  CD2      -10.9340    9.2710  -95.2740 C.ar  101  PHE101     -0.0042
     71  CE1      -12.3670    8.6740  -92.9830 C.ar  101  PHE101     -0.0003
     72  CE2      -10.2700    9.0750  -94.0740 C.ar  101  PHE101     -0.0003
     73  CZ       -10.9870    8.7770  -92.9270 C.ar  101  PHE101     -0.0000
     74  N        -15.1930    8.9640  -98.9480 N.am  102  ASP102     -0.1974
     75  CA       -16.4640    9.3980  -99.5280 C.3   102  ASP102      0.1709
     76  C        -17.3450    8.2280  -99.9780 C.2   102  ASP102      0.2293
     77  O        -18.4850    8.4320 -100.4030 O.2   102  ASP102     -0.2864
     78  CB       -16.2170   10.3660 -100.6930 C.3   102  ASP102      0.1436
     79  CG       -15.5000   11.6400 -100.2620 C.2   102  ASP102      0.3671
     80  OD1      -15.4500   11.9330  -99.0470 O.co2 102  ASP102     -0.2456
     81  OD2      -14.9860   12.3540 -101.1470 O.co2 102  ASP102     -0.2456
@<TRIPOS>BOND
     1    81    79   ar
     2    60    59    2
     3    78    79    1
     4    78    75    1
     5    59    58    1
     6    77    76    2
     7    79    80   ar
     8    62    61    1
     9    61    58    1
    10    76    75    1
    11    58    57    1
    12    75    74    1
    13    57    51   am
    14    74    65   am
    15    49    50    1
    16    51    52    2
    17    51    50    1
    18    63    64    1
    19    45    46    2
    20    45    44    1
    21    50    53    1
    22    65    64    1
    23    65    66    2
    24    64    67    1
    25    43    44    1
    26    44    47    1
    27    67    68    1
    28    53    54    1
    29    47    48    1
    30    55    54    1
    31    54    56    1
    32    68    70   ar
    33    68    69   ar
    34    70    72   ar
    35    69    71   ar
    36    72    73   ar
    37    71    73   ar
    38    16    14    1
    39    15    13    1
    40    14    13    1
    41    13    10    1
    42    38    37    1
    43    38    39    2
    44    20    19    2
    45    12    11    2
    46    36    37    1
    47    37    40    1
    48    27    26    1
    49    27    28    2
    50    10    11    1
    51    10     9    1
    52    11    17   am
    53     1     2    1
    54    26    25    1
    55    26    29    1
    56     9     3   am
    57    19    25   am
    58    19    18    1
    59    30    29    1
    60    30    31    1
    61    35    33    1
    62    41    40    1
    63    32    33    2
    64    32    31    1
    65    40    42    1
    66    17    18    1
    67    18    21    1
    68    33    34    1
    69     3     2    1
    70     3     4    2
    71     2     5    1
    72     5     6    1
    73     6     7    1
    74     6     8    1
    75    21    23    1
    76    21    22    1
    77    22    24    1
