@<TRIPOS>MOLECULE
tmp/4dx9Y00.pdb
 159 152 0 0 0
SMALL
GASTEIGER

@<TRIPOS>ATOM
      1  N        -24.6240   93.6250  -48.0710 N.3    20  PRO20      -0.2102
      2  CA       -25.7980   92.7460  -47.9920 C.3    20  PRO20       0.1504
      3  C        -26.7210   92.8390  -49.2030 C.2    20  PRO20       0.2575
      4  O        -27.2040   91.8080  -49.6820 O.2    20  PRO20      -0.2718
      5  CB       -26.5530   93.2490  -46.7530 C.3    20  PRO20       0.0282
      6  CG       -25.7050   94.2970  -46.1210 C.3    20  PRO20       0.0208
      7  CD       -24.7390   94.7770  -47.1560 C.3    20  PRO20       0.0893
      8  N        -26.9680   94.0620  -49.6790 N.am   21  LEU21      -0.1980
      9  CA       -27.8790   94.3030  -50.8040 C.3    21  LEU21       0.1596
     10  C        -27.4490   93.5950  -52.0840 C.2    21  LEU21       0.2287
     11  O        -28.2940   93.1000  -52.8330 O.2    21  LEU21      -0.2864
     12  CB       -28.0330   95.8000  -51.0720 C.3    21  LEU21       0.0297
     13  CG       -29.0920   96.5670  -50.2780 C.3    21  LEU21       0.0022
     14  CD1      -28.9040   98.0640  -50.4700 C.3    21  LEU21       0.0001
     15  CD2      -30.5030   96.1450  -50.6710 C.3    21  LEU21       0.0001
     16  N        -28.9000   90.0540  -52.1240 N.3    24  ILE24      -0.1245
     17  CA       -30.3210   90.0630  -52.5000 C.3    24  ILE24       0.1561
     18  C        -30.5030   90.2600  -54.0080 C.2    24  ILE24       0.2260
     19  O        -31.3400   89.6030  -54.6350 O.2    24  ILE24      -0.2867
     20  CB       -31.1220   91.1540  -51.7430 C.3    24  ILE24       0.0252
     21  CG1      -31.1910   90.8550  -50.2450 C.3    24  ILE24       0.0019
     22  CG2      -32.5370   91.2760  -52.2900 C.3    24  ILE24       0.0019
     23  CD1      -30.2630   91.6970  -49.4010 C.3    24  ILE24       0.0001
     24  N        -19.3680   77.7920  -38.8520 N.3    67  LEU67      -0.1231
     25  CA       -19.2430   79.2530  -38.7200 C.3    67  LEU67       0.1693
     26  C        -17.8690   79.7800  -39.1270 C.2    67  LEU67       0.2592
     27  O        -17.7150   80.9640  -39.4310 O.2    67  LEU67      -0.2718
     28  CB       -19.5770   79.7090  -37.2920 C.3    67  LEU67       0.0284
     29  CG       -21.0000   79.4910  -36.7710 C.3    67  LEU67       0.0019
     30  CD1      -21.1050   78.1690  -36.0290 C.3    67  LEU67       0.0001
     31  CD2      -21.4030   80.6320  -35.8530 C.3    67  LEU67       0.0001
     32  N        -16.8820   78.8850  -39.1300 N.am   68  TYR68      -0.1976
     33  CA       -15.5140   79.1720  -39.5690 C.3    68  TYR68       0.1639
     34  C        -15.4790   79.7430  -40.9910 C.2    68  TYR68       0.2290
     35  O        -14.4690   80.3050  -41.4200 O.2    68  TYR68      -0.2864
     36  CB       -14.6860   77.8830  -39.5050 C.3    68  TYR68       0.0560
     37  CG       -13.2170   78.0750  -39.2000 C.ar   68  TYR68      -0.0198
     38  CD1      -12.7700   78.1970  -37.8830 C.ar   68  TYR68      -0.0009
     39  CD2      -12.2680   78.1100  -40.2240 C.ar   68  TYR68      -0.0009
     40  CE1      -11.4240   78.3660  -37.5950 C.ar   68  TYR68       0.0417
     41  CE2      -10.9180   78.2760  -39.9450 C.ar   68  TYR68       0.0417
     42  CZ       -10.5040   78.4040  -38.6290 C.ar   68  TYR68       0.1957
     43  OH        -9.1720   78.5690  -38.3400 O.3    68  TYR68      -0.2866
     44  N        -18.9680   80.7490  -42.4230 N.3    70  ILE70      -0.1231
     45  CA       -20.2360   81.4790  -42.5480 C.3    70  ILE70       0.1692
     46  C        -19.9950   82.9750  -42.3350 C.2    70  ILE70       0.2592
     47  O        -19.5470   83.4010  -41.2660 O.2    70  ILE70      -0.2718
     48  CB       -21.3150   80.9550  -41.5710 C.3    70  ILE70       0.0266
     49  CG1      -21.7050   79.5170  -41.9220 C.3    70  ILE70       0.0019
     50  CG2      -22.5540   81.8430  -41.6010 C.3    70  ILE70       0.0020
     51  CD1      -22.3890   78.7700  -40.7970 C.3    70  ILE70       0.0001
     52  N        -20.3000   83.7620  -43.3630 N.am   71  ILE71      -0.1966
     53  CA       -19.9950   85.1930  -43.3710 C.3    71  ILE71       0.1727
     54  C        -21.2210   86.0490  -43.0420 C.2    71  ILE71       0.2616
     55  O        -21.1660   86.8970  -42.1480 O.2    71  ILE71      -0.2715
     56  CB       -19.3490   85.6230  -44.7110 C.3    71  ILE71       0.0290
     57  CG1      -18.0120   84.8940  -44.9020 C.3    71  ILE71       0.0022
     58  CG2      -19.1420   87.1330  -44.7580 C.3    71  ILE71       0.0023
     59  CD1      -17.5890   84.7140  -46.3450 C.3    71  ILE71       0.0001
     60  N        -22.3200   85.8170  -43.7580 N.am   72  ARG72      -0.1977
     61  CA       -23.5380   86.6060  -43.5800 C.3    72  ARG72       0.1597
     62  C        -24.7890   85.7980  -43.9130 C.2    72  ARG72       0.2287
     63  O        -24.7410   84.8620  -44.7170 O.2    72  ARG72      -0.2864
     64  CB       -23.4780   87.8670  -44.4480 C.3    72  ARG72       0.0334
     65  CG       -24.2090   89.0700  -43.8740 C.3    72  ARG72       0.0492
     66  CD       -23.8300   90.3390  -44.6210 C.3    72  ARG72       0.2205
     67  NE       -24.1380   91.5440  -43.8540 N.pl3  72  ARG72      -0.0865
     68  CZ       -23.6180   92.7450  -44.0950 C.cat  72  ARG72       0.5346
     69  NH1      -22.7520   92.9150  -45.0870 N.pl3  72  ARG72       0.1354
     70  NH2      -23.9630   93.7790  -43.3380 N.pl3  72  ARG72       0.1354
     71  N        -29.0230   86.6400  -44.7440 N.3    73  VAL73      -0.1231
     72  CA       -30.0400   87.6590  -44.9940 C.3    73  VAL73       0.1692
     73  C        -31.4450   87.0590  -45.0210 C.2    73  VAL73       0.2592
     74  O        -31.7110   86.0960  -45.7440 O.2    73  VAL73      -0.2718
     75  CB       -29.7850   88.4240  -46.3160 C.3    73  VAL73       0.0266
     76  CG1      -30.7660   89.5810  -46.4590 C.3    73  VAL73       0.0020
     77  CG2      -28.3540   88.9420  -46.3820 C.3    73  VAL73       0.0020
     78  N        -32.3350   87.6380  -44.2210 N.am   74  CYS74      -0.1956
     79  CA       -33.7500   87.2980  -44.2560 C.3    74  CYS74       0.1843
     80  C        -34.5180   88.3140  -45.1030 C.2    74  CYS74       0.2625
     81  O        -34.6990   89.4680  -44.6980 O.2    74  CYS74      -0.2714
     82  CB       -34.3210   87.2380  -42.8390 C.3    74  CYS74       0.0997
     83  SG       -36.1280   87.2840  -42.7590 S.3    74  CYS74      -0.0797
     84  N        -34.9540   87.8810  -46.2850 N.am   75  TYR75      -0.1960
     85  CA       -35.7750   88.7210  -47.1570 C.3    75  TYR75       0.1771
     86  C        -36.8340   87.9220  -47.9160 C.2    75  TYR75       0.2619
     87  O        -36.5550   86.8380  -48.4300 O.2    75  TYR75      -0.2715
     88  CB       -34.9050   89.5450  -48.1180 C.3    75  TYR75       0.0574
     89  CG       -34.2420   88.7740  -49.2440 C.ar   75  TYR75      -0.0198
     90  CD1      -33.0350   88.1030  -49.0450 C.ar   75  TYR75      -0.0009
     91  CD2      -34.8070   88.7450  -50.5200 C.ar   75  TYR75      -0.0009
     92  CE1      -32.4190   87.4120  -50.0790 C.ar   75  TYR75       0.0417
     93  CE2      -34.2010   88.0550  -51.5580 C.ar   75  TYR75       0.0417
     94  CZ       -33.0080   87.3930  -51.3330 C.ar   75  TYR75       0.1957
     95  OH       -32.4070   86.7110  -52.3670 O.3    75  TYR75      -0.2866
     96  N        -38.0460   88.4730  -47.9730 N.am   76  ASP76      -0.1971
     97  CA       -39.1680   87.8610  -48.6830 C.3    76  ASP76       0.1709
     98  C        -38.8560   87.7180  -50.1740 C.2    76  ASP76       0.2293
     99  O        -38.1150   88.5280  -50.7390 O.2    76  ASP76      -0.2864
    100  CB       -40.4350   88.6980  -48.4710 C.3    76  ASP76       0.1436
    101  CG       -41.6850   88.0200  -48.9990 C.2    76  ASP76       0.3671
    102  OD1      -41.9520   88.1220  -50.2170 O.co2  76  ASP76      -0.2456
    103  OD2      -42.4100   87.4000  -48.1900 O.co2  76  ASP76      -0.2456
    104  N        -41.5170   85.9110  -42.8230 N.3   108  LEU108     -0.1245
    105  CA       -40.4070   86.8390  -42.6180 C.3   108  LEU108      0.1561
    106  C        -39.8730   86.7470  -41.1940 C.2   108  LEU108      0.2260
    107  O        -38.6640   86.8360  -40.9740 O.2   108  LEU108     -0.2867
    108  CB       -40.8380   88.2770  -42.9330 C.3   108  LEU108      0.0270
    109  CG       -39.7500   89.3530  -43.0170 C.3   108  LEU108      0.0019
    110  CD1      -38.9730   89.2530  -44.3230 C.3   108  LEU108      0.0001
    111  CD2      -40.3640   90.7370  -42.8650 C.3   108  LEU108      0.0001
    112  N        -35.9770   85.6550  -39.8380 N.3   112  GLN112     -0.1245
    113  CA       -35.3980   86.5950  -38.8750 C.3   112  GLN112      0.1566
    114  C        -35.0000   85.8490  -37.6020 C.2   112  GLN112      0.2260
    115  O        -33.9200   86.0800  -37.0500 O.2   112  GLN112     -0.2867
    116  CB       -36.3960   87.7070  -38.5310 C.3   112  GLN112      0.0367
    117  CG       -36.5110   88.8170  -39.5660 C.3   112  GLN112      0.0905
    118  CD       -37.7920   89.6260  -39.4340 C.2   112  GLN112      0.2608
    119  OE1      -38.6380   89.3480  -38.5820 O.2   112  GLN112     -0.2717
    120  NE2      -37.9420   90.6330  -40.2860 N.am  112  GLN112     -0.0878
    121  N        -31.6250   84.0650  -37.9160 N.3   115  CYS115     -0.1235
    122  CA       -30.5390   85.0500  -37.8850 C.3   115  CYS115      0.1677
    123  C        -30.1900   85.5260  -36.4740 C.2   115  CYS115      0.2270
    124  O        -29.0520   85.9310  -36.2160 O.2   115  CYS115     -0.2867
    125  CB       -30.8860   86.2490  -38.7650 C.3   115  CYS115      0.0956
    126  SG       -30.9890   85.8560  -40.5240 S.3   115  CYS115     -0.0801
    127  N        -28.0200   82.7970  -34.9300 N.3   118  LEU118     -0.1231
    128  CA       -26.6830   82.8870  -35.5180 C.3   118  LEU118      0.1693
    129  C        -25.7690   83.8270  -34.7370 C.2   118  LEU118      0.2592
    130  O        -24.6190   83.4840  -34.4560 O.2   118  LEU118     -0.2718
    131  CB       -26.7540   83.3230  -36.9830 C.3   118  LEU118      0.0284
    132  CG       -26.7440   82.2170  -38.0390 C.3   118  LEU118      0.0019
    133  CD1      -28.0950   81.5220  -38.1310 C.3   118  LEU118      0.0001
    134  CD2      -26.3440   82.7930  -39.3890 C.3   118  LEU118      0.0001
    135  N        -26.2860   85.0060  -34.3870 N.am  119  SER119     -0.1952
    136  CA       -25.5350   85.9760  -33.5890 C.3   119  SER119      0.1924
    137  C        -25.2310   85.4160  -32.2020 C.2   119  SER119      0.2314
    138  O        -24.2080   85.7500  -31.6030 O.2   119  SER119     -0.2863
    139  CB       -26.2880   87.3040  -33.4840 C.3   119  SER119      0.2116
    140  OG       -27.5440   87.1350  -32.8550 O.3   119  SER119     -0.2180
    141  N        -22.3880   82.9070  -32.8680 N.3   122  PHE122     -0.1241
    142  CA       -21.1440   83.6530  -33.0450 C.3   122  PHE122      0.1605
    143  C        -20.5800   84.1390  -31.7130 C.2   122  PHE122      0.2264
    144  O        -19.3860   84.4380  -31.6100 O.2   122  PHE122     -0.2867
    145  CB       -21.3520   84.8520  -33.9790 C.3   122  PHE122      0.0534
    146  CG       -21.2830   84.5100  -35.4430 C.ar  122  PHE122     -0.0203
    147  CD1      -20.1110   84.0100  -36.0040 C.ar  122  PHE122     -0.0042
    148  CD2      -22.3820   84.7160  -36.2690 C.ar  122  PHE122     -0.0042
    149  CE1      -20.0460   83.7010  -37.3540 C.ar  122  PHE122     -0.0003
    150  CE2      -22.3220   84.4110  -37.6210 C.ar  122  PHE122     -0.0003
    151  CZ       -21.1520   83.9040  -38.1650 C.ar  122  PHE122     -0.0000
    152  N        -17.5770   82.3870  -28.4770 N.3   126  LEU126     -0.1245
    153  CA       -16.7400   83.5120  -28.0780 C.3   126  LEU126      0.1561
    154  C        -17.3090   84.1910  -26.8350 C.2   126  LEU126      0.2260
    155  O        -17.7050   85.3580  -26.8740 O.2   126  LEU126     -0.2867
    156  CB       -16.5880   84.5110  -29.2340 C.3   126  LEU126      0.0270
    157  CG       -15.7420   84.0810  -30.4410 C.3   126  LEU126      0.0019
    158  CD1      -16.0250   84.9720  -31.6420 C.3   126  LEU126      0.0001
    159  CD2      -14.2530   84.0860  -30.1110 C.3   126  LEU126      0.0001
@<TRIPOS>BOND
     1    19    18    2
     2    18    17    1
     3    11    10    2
     4    17    16    1
     5    17    20    1
     6    95    94    1
     7    22    20    1
     8    10     9    1
     9    20    21    1
    10    93    94   ar
    11    93    91   ar
    12    94    92   ar
    13    12     9    1
    14    12    13    1
    15     9     8    1
    16    99    98    2
    17    15    13    1
    18    91    89   ar
    19    14    13    1
    20    21    23    1
    21   102   101   ar
    22    98    97    1
    23    92    90   ar
    24     4     3    2
    25     8     3   am
    26    89    90   ar
    27    89    88    1
    28     3     2    1
    29   101   100    1
    30   101   103   ar
    31    97   100    1
    32    97    96    1
    33    87    86    2
    34    88    85    1
    35     1     2    1
    36     1     7    1
    37     2     5    1
    38    96    86   am
    39    86    85    1
    40    85    84    1
    41     7     6    1
    42     5     6    1
    43    76    75    1
    44    77    75    1
    45    59    57    1
    46    75    72    1
    47    84    80   am
    48    74    73    2
    49    80    81    2
    50    80    79    1
    51    69    68    1
    52    73    72    1
    53    73    78   am
    54    72    71    1
    55    57    56    1
    56    58    56    1
    57    63    62    2
    58    56    53    1
    59    66    65    1
    60    66    67    1
    61    64    65    1
    62    64    61    1
    63   110   109    1
    64    79    78    1
    65    79    82    1
    66    68    67    2
    67    68    70    1
    68    62    61    1
    69    60    61    1
    70    60    54   am
    71    53    52    1
    72    53    54    1
    73    52    46   am
    74    54    55    2
    75   109   108    1
    76   109   111    1
    77   108   105    1
    78    82    83    1
    79   104   105    1
    80   105   106    1
    81    45    44    1
    82    45    46    1
    83    45    48    1
    84    46    47    2
    85    49    48    1
    86    49    51    1
    87    50    48    1
    88    35    34    2
    89   106   107    2
    90    34    33    1
    91   126   125    1
    92   120   118   am
    93    39    41   ar
    94    39    37   ar
    95    41    42   ar
    96   112   113    1
    97    33    36    1
    98    33    32    1
    99   117   118    1
   100   117   116    1
   101    36    37    1
   102   118   119    2
   103    27    26    2
   104   134   132    1
   105    37    38   ar
   106    32    26   am
   107    26    25    1
   108   113   116    1
   109   113   114    1
   110    24    25    1
   111   125   122    1
   112    25    28    1
   113    42    43    1
   114    42    40   ar
   115   151   150   ar
   116   151   149   ar
   117   133   132    1
   118   132   131    1
   119   121   122    1
   120   122   123    1
   121    38    40   ar
   122   150   148   ar
   123   114   115    2
   124   149   147   ar
   125    28    29    1
   126   131   128    1
   127    29    30    1
   128    29    31    1
   129   123   124    2
   130   148   146   ar
   131   147   146   ar
   132   128   127    1
   133   128   129    1
   134   146   145    1
   135   129   130    2
   136   129   135   am
   137   135   136    1
   138   145   142    1
   139   136   139    1
   140   136   137    1
   141   139   140    1
   142   142   141    1
   143   142   143    1
   144   137   138    2
   145   143   144    2
   146   158   157    1
   147   157   159    1
   148   157   156    1
   149   156   153    1
   150   152   153    1
   151   153   154    1
   152   155   154    2
