@<TRIPOS>MOLECULE
tmp/4dx9B00.pdb
 159 152 0 0 0
SMALL
GASTEIGER

@<TRIPOS>ATOM
      1  N         45.5660   96.5500  -18.7240 N.3    14  PRO14      -0.2102
      2  CA        44.5640   97.2940  -19.4880 C.3    14  PRO14       0.1504
      3  C         43.2560   97.5130  -18.7150 C.2    14  PRO14       0.2575
      4  O         42.6080   98.5510  -18.8840 O.2    14  PRO14      -0.2718
      5  CB        44.3220   96.4050  -20.7120 C.3    14  PRO14       0.0282
      6  CG        44.6660   95.0270  -20.2630 C.3    14  PRO14       0.0208
      7  CD        45.7610   95.1810  -19.2450 C.3    14  PRO14       0.0893
      8  N         42.8860   96.5450  -17.8760 N.am   15  LEU15      -0.1980
      9  CA        41.6170   96.5760  -17.1410 C.3    15  LEU15       0.1596
     10  C         41.8040   96.6610  -15.6280 C.2    15  LEU15       0.2287
     11  O         40.8870   97.0520  -14.9020 O.2    15  LEU15      -0.2864
     12  CB        40.7440   95.3700  -17.5150 C.3    15  LEU15       0.0297
     13  CG        41.3520   93.9630  -17.5340 C.3    15  LEU15       0.0022
     14  CD1       41.2950   93.3010  -16.1620 C.3    15  LEU15       0.0001
     15  CD2       40.6250   93.1140  -18.5630 C.3    15  LEU15       0.0001
     16  N         41.5370  100.0940  -14.9830 N.3    18  ILE18      -0.1245
     17  CA        40.1370  100.5250  -15.0060 C.3    18  ILE18       0.1561
     18  C         39.5270  100.4790  -13.6050 C.2    18  ILE18       0.2260
     19  O         38.9580  101.4690  -13.1380 O.2    18  ILE18      -0.2867
     20  CB        39.2890   99.6790  -15.9880 C.3    18  ILE18       0.0252
     21  CG1       39.7040   99.9560  -17.4370 C.3    18  ILE18       0.0019
     22  CG2       37.8020   99.9500  -15.7990 C.3    18  ILE18       0.0019
     23  CD1       39.0410   99.0630  -18.4660 C.3    18  ILE18       0.0001
     24  N         54.3460  113.4210  -24.5550 N.3    57  LEU57      -0.1231
     25  CA        54.3220  112.0690  -25.1190 C.3    57  LEU57       0.1693
     26  C         55.3600  111.1440  -24.4870 C.2    57  LEU57       0.2592
     27  O         55.1650  109.9260  -24.4340 O.2    57  LEU57      -0.2718
     28  CB        54.5210  112.1220  -26.6370 C.3    57  LEU57       0.0284
     29  CG        54.0440  110.9290  -27.4720 C.3    57  LEU57       0.0019
     30  CD1       52.5250  110.9120  -27.5870 C.3    57  LEU57       0.0001
     31  CD2       54.6820  110.9500  -28.8530 C.3    57  LEU57       0.0001
     32  N         56.4600  111.7270  -24.0150 N.am   58  TYR58      -0.1976
     33  CA        57.4930  110.9810  -23.3020 C.3    58  TYR58       0.1639
     34  C         56.9940  110.4870  -21.9420 C.2    58  TYR58       0.2290
     35  O         57.5020  109.4960  -21.4100 O.2    58  TYR58      -0.2864
     36  CB        58.7460  111.8440  -23.1200 C.3    58  TYR58       0.0560
     37  CG        59.4580  112.2040  -24.4090 C.ar   58  TYR58      -0.0198
     38  CD1       60.3790  111.3310  -24.9890 C.ar   58  TYR58      -0.0009
     39  CD2       59.2220  113.4260  -25.0420 C.ar   58  TYR58      -0.0009
     40  CE1       61.0370  111.6590  -26.1650 C.ar   58  TYR58       0.0417
     41  CE2       59.8760  113.7620  -26.2200 C.ar   58  TYR58       0.0417
     42  CZ        60.7820  112.8760  -26.7760 C.ar   58  TYR58       0.1957
     43  OH        61.4370  113.2000  -27.9430 O.3    58  TYR58      -0.2866
     44  N         53.5690  109.9540  -21.3920 N.3    60  ILE60      -0.1231
     45  CA        52.4260  109.0900  -21.6840 C.3    60  ILE60       0.1692
     46  C         52.9070  107.6570  -21.9300 C.2    60  ILE60       0.2592
     47  O         53.9270  107.4470  -22.5900 O.2    60  ILE60      -0.2718
     48  CB        51.6180  109.6180  -22.8940 C.3    60  ILE60       0.0266
     49  CG1       51.0670  111.0170  -22.5950 C.3    60  ILE60       0.0019
     50  CG2       50.4780  108.6690  -23.2540 C.3    60  ILE60       0.0020
     51  CD1       50.7560  111.8390  -23.8280 C.3    60  ILE60       0.0001
     52  N         52.1780  106.6830  -21.3840 N.am   61  ILE61      -0.1966
     53  CA        52.5300  105.2630  -21.5320 C.3    61  ILE61       0.1727
     54  C         51.3630  104.3590  -21.9480 C.2    61  ILE61       0.2616
     55  O         51.4970  103.5600  -22.8760 O.2    61  ILE61      -0.2715
     56  CB        53.2160  104.6850  -20.2650 C.3    61  ILE61       0.0290
     57  CG1       52.4930  105.1350  -18.9850 C.3    61  ILE61       0.0022
     58  CG2       54.6930  105.0650  -20.2360 C.3    61  ILE61       0.0023
     59  CD1       52.8750  104.3580  -17.7420 C.3    61  ILE61       0.0001
     60  N         50.2260  104.4850  -21.2640 N.am   62  ARG62      -0.1977
     61  CA        49.0930  103.5860  -21.4840 C.3    62  ARG62       0.1597
     62  C         47.7530  104.3200  -21.3960 C.2    62  ARG62       0.2287
     63  O         47.3490  104.7690  -20.3210 O.2    62  ARG62      -0.2864
     64  CB        49.1430  102.4270  -20.4780 C.3    62  ARG62       0.0334
     65  CG        48.5830  101.1060  -20.9850 C.3    62  ARG62       0.0492
     66  CD        48.9650   99.9700  -20.0490 C.3    62  ARG62       0.2205
     67  NE        48.6780   98.6530  -20.6190 N.pl3  62  ARG62      -0.0865
     68  CZ        49.0140   97.4920  -20.0560 C.cat  62  ARG62       0.5346
     69  NH1       49.6580   97.4610  -18.8940 N.pl3  62  ARG62       0.1354
     70  NH2       48.7050   96.3510  -20.6590 N.pl3  62  ARG62       0.1354
     71  N         43.6660  104.1310  -21.9270 N.3    63  VAL63      -0.1231
     72  CA        42.5870  103.1440  -21.8900 C.3    63  VAL63       0.1692
     73  C         41.2290  103.8250  -22.0640 C.2    63  VAL63       0.2592
     74  O         40.9070  104.7670  -21.3400 O.2    63  VAL63      -0.2718
     75  CB        42.6010  102.3380  -20.5640 C.3    63  VAL63       0.0266
     76  CG1       41.4190  101.3820  -20.4910 C.3    63  VAL63       0.0020
     77  CG2       43.9030  101.5650  -20.4060 C.3    63  VAL63       0.0020
     78  N         40.4440  103.3440  -23.0280 N.am   64  CYS64      -0.1956
     79  CA        39.0640  103.7960  -23.2090 C.3    64  CYS64       0.1843
     80  C         38.0980  102.6170  -23.2040 C.2    64  CYS64       0.2625
     81  O         38.3420  101.5990  -23.8590 O.2    64  CYS64      -0.2714
     82  CB        38.9120  104.6010  -24.4990 C.3    64  CYS64       0.0997
     83  SG        39.2840  103.6980  -26.0210 S.3    64  CYS64      -0.0797
     84  N         37.0060  102.7590  -22.4560 N.am   65  TYR65      -0.1960
     85  CA        36.0080  101.6950  -22.3250 C.3    65  TYR65       0.1771
     86  C         34.5930  102.2460  -22.1810 C.2    65  TYR65       0.2619
     87  O         34.4030  103.4350  -21.9050 O.2    65  TYR65      -0.2715
     88  CB        36.3530  100.7680  -21.1520 C.3    65  TYR65       0.0574
     89  CG        36.2420  101.3930  -19.7760 C.ar   65  TYR65      -0.0198
     90  CD1       37.2510  102.2140  -19.2740 C.ar   65  TYR65      -0.0009
     91  CD2       35.1390  101.1380  -18.9650 C.ar   65  TYR65      -0.0009
     92  CE1       37.1540  102.7770  -18.0120 C.ar   65  TYR65       0.0417
     93  CE2       35.0320  101.6970  -17.7020 C.ar   65  TYR65       0.0417
     94  CZ        36.0400  102.5150  -17.2310 C.ar   65  TYR65       0.1957
     95  OH        35.9360  103.0660  -15.9730 O.3    65  TYR65      -0.2866
     96  N         33.6040  101.3760  -22.3720 N.am   66  ASP66      -0.1971
     97  CA        32.2070  101.7790  -22.2840 C.3    66  ASP66       0.1709
     98  C         31.7930  102.0320  -20.8390 C.2    66  ASP66       0.2293
     99  O         32.1280  101.2580  -19.9410 O.2    66  ASP66      -0.2864
    100  CB        31.2900  100.7390  -22.9340 C.3    66  ASP66       0.1436
    101  CG        29.9120  101.2980  -23.2550 C.2    66  ASP66       0.3671
    102  OD1       29.1240  101.5310  -22.3140 O.co2  66  ASP66      -0.2456
    103  OD2       29.6150  101.5030  -24.4510 O.co2  66  ASP66      -0.2456
    104  N         32.0340  105.8250  -28.6900 N.3    89  LEU89      -0.1245
    105  CA        33.0520  104.8200  -28.3890 C.3    89  LEU89       0.1561
    106  C         34.0760  104.7610  -29.5170 C.2    89  LEU89       0.2260
    107  O         35.2770  104.6170  -29.2700 O.2    89  LEU89      -0.2867
    108  CB        32.4140  103.4440  -28.1550 C.3    89  LEU89       0.0270
    109  CG        33.2150  102.4140  -27.3450 C.3    89  LEU89       0.0019
    110  CD1       32.2820  101.5540  -26.5020 C.3    89  LEU89       0.0001
    111  CD2       34.1020  101.5470  -28.2300 C.3    89  LEU89       0.0001
    112  N         38.3260  105.5530  -29.8020 N.3    93  GLN93      -0.1245
    113  CA        39.2820  104.6910  -30.5020 C.3    93  GLN93       0.1566
    114  C         40.1400  105.4890  -31.4790 C.2    93  GLN93       0.2260
    115  O         41.3000  105.1500  -31.7220 O.2    93  GLN93      -0.2867
    116  CB        38.5620  103.5590  -31.2410 C.3    93  GLN93       0.0367
    117  CG        37.9600  102.4970  -30.3300 C.3    93  GLN93       0.0905
    118  CD        37.5420  101.2340  -31.0670 C.2    93  GLN93       0.2608
    119  OE1       37.5650  101.1700  -32.2970 O.2    93  GLN93      -0.2717
    120  NE2       37.1540  100.2170  -30.3080 N.am   93  GLN93      -0.0878
    121  N         42.8880  107.1310  -29.5100 N.3    96  CYS96      -0.1235
    122  CA        43.8650  106.0870  -29.2130 C.3    96  CYS96       0.1677
    123  C         44.6920  105.7070  -30.4370 C.2    96  CYS96       0.2270
    124  O         45.8970  105.4670  -30.3220 O.2    96  CYS96      -0.2867
    125  CB        43.1660  104.8540  -28.6420 C.3    96  CYS96       0.0956
    126  SG        42.3440  105.1330  -27.0570 S.3    96  CYS96      -0.0801
    127  N         47.2500  108.3020  -31.2230 N.3    99  LEU99      -0.1231
    128  CA        48.2830  108.1540  -30.2040 C.3    99  LEU99       0.1693
    129  C         49.2220  106.9860  -30.5280 C.2    99  LEU99       0.2592
    130  O         50.4140  107.0450  -30.2220 O.2    99  LEU99      -0.2718
    131  CB        47.6550  107.9640  -28.8220 C.3    99  LEU99       0.0284
    132  CG        48.5630  108.1770  -27.6060 C.3    99  LEU99       0.0019
    133  CD1       48.6390  109.6460  -27.2190 C.3    99  LEU99       0.0001
    134  CD2       48.0810  107.3490  -26.4280 C.3    99  LEU99       0.0001
    135  N         48.6820  105.9360  -31.1510 N.am  100  SER100     -0.1952
    136  CA        49.4760  104.7610  -31.5240 C.3   100  SER100      0.1924
    137  C         50.5790  105.1140  -32.5210 C.2   100  SER100      0.2314
    138  O         51.7530  104.8100  -32.2910 O.2   100  SER100     -0.2863
    139  CB        48.5850  103.6460  -32.0840 C.3   100  SER100      0.2116
    140  OG        47.7350  103.1120  -31.0850 O.3   100  SER100     -0.2180
    141  N         53.4740  107.2880  -31.0790 N.3   103  PHE103     -0.1241
    142  CA        54.5100  106.4900  -30.4290 C.3   103  PHE103      0.1605
    143  C         55.2970  105.6510  -31.4330 C.2   103  PHE103      0.2264
    144  O         56.5040  105.4540  -31.2680 O.2   103  PHE103     -0.2867
    145  CB        53.9060  105.5910  -29.3480 C.3   103  PHE103      0.0534
    146  CG        53.6060  106.3050  -28.0590 C.ar  103  PHE103     -0.0203
    147  CD1       54.6190  106.5600  -27.1370 C.ar  103  PHE103     -0.0042
    148  CD2       52.3120  106.7140  -27.7590 C.ar  103  PHE103     -0.0042
    149  CE1       54.3460  107.2170  -25.9460 C.ar  103  PHE103     -0.0003
    150  CE2       52.0330  107.3690  -26.5700 C.ar  103  PHE103     -0.0003
    151  CZ        53.0520  107.6210  -25.6630 C.ar  103  PHE103     -0.0000
    152  N         59.8210  106.5700  -31.8980 N.3   107  LEU107     -0.1245
    153  CA        60.8160  105.5350  -31.6200 C.3   107  LEU107      0.1561
    154  C         61.5750  105.1300  -32.8920 C.2   107  LEU107      0.2260
    155  O         61.2350  104.1400  -33.5500 O.2   107  LEU107     -0.2867
    156  CB        60.1680  104.3150  -30.9480 C.3   107  LEU107      0.0270
    157  CG        60.0370  104.3010  -29.4190 C.3   107  LEU107      0.0019
    158  CD1       58.8870  105.1750  -28.9350 C.3   107  LEU107      0.0001
    159  CD2       59.8670  102.8740  -28.9160 C.3   107  LEU107      0.0001
@<TRIPOS>BOND
     1   155   154    2
     2   154   153    1
     3   137   138    2
     4   137   136    1
     5   119   118    2
     6   139   136    1
     7   139   140    1
     8   152   153    1
     9   115   114    2
    10   153   156    1
    11   136   135    1
    12   114   113    1
    13   143   144    2
    14   143   142    1
    15   116   113    1
    16   116   117    1
    17   127   128    1
    18   135   129   am
    19   141   142    1
    20   118   117    1
    21   118   120   am
    22   156   157    1
    23   129   130    2
    24   129   128    1
    25   113   112    1
    26   123   124    2
    27   123   122    1
    28   142   145    1
    29   128   131    1
    30   106   107    2
    31   106   105    1
    32   121   122    1
    33   157   158    1
    34   157   159    1
    35   145   146    1
    36   122   125    1
    37    31    29    1
    38   131   132    1
    39   104   105    1
    40   125   126    1
    41   105   108    1
    42   111   109    1
    43   108   109    1
    44   146   148   ar
    45   146   147   ar
    46    43    42    1
    47   148   150   ar
    48   132   133    1
    49   132   134    1
    50    30    29    1
    51    29    28    1
    52   109   110    1
    53   147   149   ar
    54    42    41   ar
    55    42    40   ar
    56    28    25    1
    57   150   151   ar
    58    41    39   ar
    59    40    38   ar
    60    83    82    1
    61   149   151   ar
    62    25    24    1
    63    25    26    1
    64    39    37   ar
    65    38    37   ar
    66    82    79    1
    67    26    27    2
    68    26    32   am
    69   103   101   ar
    70    37    36    1
    71    32    33    1
    72    81    80    2
    73    51    49    1
    74    33    36    1
    75    33    34    1
    76   101   100    1
    77   101   102   ar
    78    50    48    1
    79    79    80    1
    80    79    78    1
    81    80    84   am
    82    78    73   am
    83   100    97    1
    84    48    49    1
    85    48    45    1
    86    55    54    2
    87    47    46    2
    88    84    85    1
    89    96    97    1
    90    96    86   am
    91    85    86    1
    92    85    88    1
    93    97    98    1
    94    86    87    2
    95    73    72    1
    96    73    74    2
    97    54    53    1
    98    54    60   am
    99    34    35    2
   100    46    45    1
   101    46    52   am
   102    71    72    1
   103    72    75    1
   104    45    44    1
   105    53    52    1
   106    53    56    1
   107    61    62    1
   108    61    60    1
   109    61    64    1
   110    62    63    2
   111    88    89    1
   112    65    64    1
   113    65    66    1
   114    98    99    2
   115     5     6    1
   116     5     2    1
   117    70    68    1
   118    67    68    2
   119    67    66    1
   120    75    76    1
   121    75    77    1
   122    56    58    1
   123    56    57    1
   124     6     7    1
   125    68    69    1
   126    89    90   ar
   127    89    91   ar
   128     2     1    1
   129     2     3    1
   130    90    92   ar
   131     7     1    1
   132    57    59    1
   133    91    93   ar
   134     4     3    2
   135     3     8   am
   136    15    13    1
   137    23    21    1
   138    92    94   ar
   139     8     9    1
   140    93    94   ar
   141    13    12    1
   142    13    14    1
   143    12     9    1
   144    21    20    1
   145    94    95    1
   146     9    10    1
   147    20    22    1
   148    20    17    1
   149    10    11    2
   150    17    16    1
   151    17    18    1
   152    18    19    2
