@<TRIPOS>MOLECULE
tmp/4dx9A01.pdb
 151 145 0 0 0
SMALL
GASTEIGER

@<TRIPOS>ATOM
      1  N         29.3330   84.8950  -70.8300 N.3    16  PRO16      -0.2116
      2  CA        28.3080   85.6650  -71.5330 C.3    16  PRO16       0.1372
      3  C         27.1110   86.0010  -70.6410 C.2    16  PRO16       0.2244
      4  O         26.3330   86.9020  -70.9640 O.2    16  PRO16      -0.2868
      5  CB        27.8820   84.7240  -72.6610 C.3    16  PRO16       0.0268
      6  CG        28.1090   83.3580  -72.1130 C.3    16  PRO16       0.0207
      7  CD        29.2860   83.4610  -71.1830 C.3    16  PRO16       0.0892
      8  N         24.6180   89.7750  -70.3160 N.3    20  ILE20      -0.1245
      9  CA        23.1590   89.8760  -70.3190 C.3    20  ILE20       0.1561
     10  C         22.6740   90.7520  -69.1610 C.2    20  ILE20       0.2260
     11  O         21.7570   91.5570  -69.3300 O.2    20  ILE20      -0.2867
     12  CB        22.5010   88.4780  -70.2550 C.3    20  ILE20       0.0252
     13  CG1       22.9960   87.6070  -71.4180 C.3    20  ILE20       0.0019
     14  CG2       20.9790   88.5870  -70.2650 C.3    20  ILE20       0.0019
     15  CD1       22.6830   86.1310  -71.2820 C.3    20  ILE20       0.0001
     16  N         37.6790   93.0340  -85.9450 N.3    55  LEU55      -0.1231
     17  CA        37.5710   91.5810  -85.8400 C.3    55  LEU55       0.1693
     18  C         38.5570   91.0260  -84.8120 C.2    55  LEU55       0.2592
     19  O         38.3780   89.9150  -84.3020 O.2    55  LEU55      -0.2718
     20  CB        37.7970   90.9300  -87.2070 C.3    55  LEU55       0.0284
     21  CG        37.2810   89.5060  -87.4260 C.3    55  LEU55       0.0019
     22  CD1       35.7590   89.4760  -87.4710 C.3    55  LEU55       0.0001
     23  CD2       37.8630   88.9250  -88.7040 C.3    55  LEU55       0.0001
     24  N         39.5980   91.8020  -84.5170 N.am   56  TYR56      -0.1976
     25  CA        40.5870   91.4330  -83.5090 C.3    56  TYR56       0.1639
     26  C         40.1340   91.9210  -82.1340 C.2    56  TYR56       0.2290
     27  O         40.2740   91.2100  -81.1370 O.2    56  TYR56      -0.2864
     28  CB        41.9570   92.0290  -83.8600 C.3    56  TYR56       0.0560
     29  CG        43.1370   91.3800  -83.1590 C.ar   56  TYR56      -0.0198
     30  CD1       43.4290   91.6670  -81.8230 C.ar   56  TYR56      -0.0009
     31  CD2       43.9750   90.4970  -83.8400 C.ar   56  TYR56      -0.0009
     32  CE1       44.5100   91.0810  -81.1830 C.ar   56  TYR56       0.0417
     33  CE2       45.0600   89.9080  -83.2090 C.ar   56  TYR56       0.0417
     34  CZ        45.3230   90.2030  -81.8810 C.ar   56  TYR56       0.1957
     35  OH        46.3980   89.6190  -81.2490 O.3    56  TYR56      -0.2866
     36  N         37.0390   92.6540  -81.1940 N.3    58  ILE58      -0.1231
     37  CA        35.7740   92.0330  -80.7910 C.3    58  ILE58       0.1692
     38  C         36.0460   90.7860  -79.9430 C.2    58  ILE58       0.2592
     39  O         36.9950   90.0430  -80.2070 O.2    58  ILE58      -0.2718
     40  CB        34.8590   91.7230  -82.0080 C.3    58  ILE58       0.0266
     41  CG1       33.4470   91.3210  -81.5620 C.3    58  ILE58       0.0019
     42  CG2       35.4610   90.6560  -82.9110 C.3    58  ILE58       0.0020
     43  CD1       32.5850   92.4790  -81.1090 C.3    58  ILE58       0.0001
     44  N         35.2260   90.5800  -78.9140 N.am   59  ILE59      -0.1966
     45  CA        35.4440   89.4910  -77.9620 C.3    59  ILE59       0.1727
     46  C         34.2790   88.4980  -77.9240 C.2    59  ILE59       0.2616
     47  O         34.4830   87.2950  -78.1130 O.2    59  ILE59      -0.2715
     48  CB        35.7390   90.0270  -76.5330 C.3    59  ILE59       0.0290
     49  CG1       36.8830   91.0570  -76.5410 C.3    59  ILE59       0.0022
     50  CG2       36.0370   88.8870  -75.5650 C.3    59  ILE59       0.0023
     51  CD1       38.2270   90.5410  -77.0230 C.3    59  ILE59       0.0001
     52  N         33.0670   89.0010  -77.6940 N.am   60  ARG60      -0.1977
     53  CA        31.9220   88.1350  -77.4070 C.3    60  ARG60       0.1597
     54  C         30.6240   88.6010  -78.0640 C.2    60  ARG60       0.2287
     55  O         30.3930   89.8010  -78.2270 O.2    60  ARG60      -0.2864
     56  CB        31.7260   88.0360  -75.8930 C.3    60  ARG60       0.0334
     57  CG        31.2830   86.6700  -75.4010 C.3    60  ARG60       0.0492
     58  CD        31.6470   86.5050  -73.9360 C.3    60  ARG60       0.2205
     59  NE        31.6940   85.1040  -73.5250 N.pl3  60  ARG60      -0.0865
     60  CZ        32.4620   84.6350  -72.5450 C.cat  60  ARG60       0.5346
     61  NH1       33.2680   85.4480  -71.8740 N.pl3  60  ARG60       0.1354
     62  NH2       32.4370   83.3440  -72.2440 N.pl3  60  ARG60       0.1354
     63  N         26.4030   87.7610  -77.7510 N.3    61  VAL61      -0.1231
     64  CA        25.3460   87.0970  -76.9870 C.3    61  VAL61       0.1692
     65  C         23.9780   87.3520  -77.6240 C.2    61  VAL61       0.2592
     66  O         23.6930   88.4610  -78.0840 O.2    61  VAL61      -0.2718
     67  CB        25.3220   87.5510  -75.5050 C.3    61  VAL61       0.0266
     68  CG1       24.4480   86.6240  -74.6740 C.3    61  VAL61       0.0020
     69  CG2       26.7270   87.5940  -74.9180 C.3    61  VAL61       0.0020
     70  N         23.1430   86.3160  -77.6520 N.am   62  CYS62      -0.1956
     71  CA        21.7770   86.4290  -78.1560 C.3    62  CYS62       0.1843
     72  C         20.8060   85.5920  -77.3300 C.2    62  CYS62       0.2625
     73  O         21.0290   84.4030  -77.1100 O.2    62  CYS62      -0.2714
     74  CB        21.7030   86.0480  -79.6380 C.3    62  CYS62       0.0997
     75  SG        22.5220   84.5010  -80.0800 S.3    62  CYS62      -0.0797
     76  N         19.7320   86.2310  -76.8740 N.am   63  TYR63      -0.1960
     77  CA        18.7420   85.5860  -76.0160 C.3    63  TYR63       0.1771
     78  C         17.3250   86.0540  -76.3450 C.2    63  TYR63       0.2619
     79  O         17.0720   86.5320  -77.4500 O.2    63  TYR63      -0.2715
     80  CB        19.0770   85.8150  -74.5370 C.3    63  TYR63       0.0574
     81  CG        19.3030   87.2560  -74.1410 C.ar   63  TYR63      -0.0198
     82  CD1       20.5450   87.8660  -74.3240 C.ar   63  TYR63      -0.0009
     83  CD2       18.2830   88.0060  -73.5600 C.ar   63  TYR63      -0.0009
     84  CE1       20.7580   89.1860  -73.9570 C.ar   63  TYR63       0.0417
     85  CE2       18.4880   89.3240  -73.1850 C.ar   63  TYR63       0.0417
     86  CZ        19.7250   89.9090  -73.3880 C.ar   63  TYR63       0.1957
     87  OH        19.9300   91.2170  -73.0160 O.3    63  TYR63      -0.2866
     88  N         16.4060   85.8990  -75.3940 N.am   64  ASP64      -0.1971
     89  CA        15.0090   86.2890  -75.5940 C.3    64  ASP64       0.1709
     90  C         14.5700   87.3270  -74.5540 C.2    64  ASP64       0.2293
     91  O         13.7440   87.0440  -73.6810 O.2    64  ASP64      -0.2864
     92  CB        14.0940   85.0560  -75.5780 C.3    64  ASP64       0.1436
     93  CG        12.7790   85.2900  -76.3110 C.2    64  ASP64       0.3671
     94  OD1       11.9350   86.0710  -75.8130 O.co2  64  ASP64      -0.2456
     95  OD2       12.5850   84.6810  -77.3860 O.co2  64  ASP64      -0.2456
     96  N         15.0330   84.3250  -82.6350 N.3    87  LEU87      -0.1245
     97  CA        16.1890   83.7350  -81.9660 C.3    87  LEU87       0.1561
     98  C         17.0820   82.9800  -82.9480 C.2    87  LEU87       0.2260
     99  O         18.3090   83.0590  -82.8580 O.2    87  LEU87      -0.2867
    100  CB        15.7470   82.8160  -80.8190 C.3    87  LEU87       0.0270
    101  CG        16.8180   82.2520  -79.8750 C.3    87  LEU87       0.0019
    102  CD1       17.3920   83.3280  -78.9620 C.3    87  LEU87       0.0001
    103  CD2       16.2490   81.1060  -79.0510 C.3    87  LEU87       0.0001
    104  N         20.9280   83.6180  -83.5640 N.3    91  GLN91      -0.1245
    105  CA        21.9100   82.5540  -83.3870 C.3    91  GLN91       0.1566
    106  C         22.6890   82.3170  -84.6770 C.2    91  GLN91       0.2260
    107  O         23.8530   81.9190  -84.6410 O.2    91  GLN91      -0.2867
    108  CB        21.2260   81.2620  -82.9320 C.3    91  GLN91       0.0367
    109  CG        20.6510   81.3250  -81.5220 C.3    91  GLN91       0.0905
    110  CD        19.7860   80.1290  -81.1720 C.2    91  GLN91       0.2608
    111  OE1       19.1390   79.5340  -82.0350 O.2    91  GLN91      -0.2717
    112  NE2       19.7650   79.7760  -79.8930 N.am   91  GLN91      -0.0878
    113  N         25.9340   84.4420  -85.0590 N.3    94  CYS94      -0.1235
    114  CA        27.0600   83.8150  -84.3630 C.3    94  CYS94       0.1677
    115  C         27.7930   82.8230  -85.2580 C.2    94  CYS94       0.2270
    116  O         29.0260   82.8020  -85.2910 O.2    94  CYS94      -0.2867
    117  CB        26.5890   83.1070  -83.0950 C.3    94  CYS94       0.0956
    118  SG        26.3780   84.1890  -81.6670 S.3    94  CYS94      -0.0801
    119  N         30.2710   84.4230  -87.4680 N.3    97  LEU97      -0.1231
    120  CA        31.4480   84.8010  -86.6860 C.3    97  LEU97       0.1693
    121  C         32.2980   83.5930  -86.2940 C.2    97  LEU97       0.2592
    122  O         33.4700   83.7400  -85.9530 O.2    97  LEU97      -0.2718
    123  CB        31.0360   85.5800  -85.4320 C.3    97  LEU97       0.0284
    124  CG        30.8920   87.1030  -85.5260 C.3    97  LEU97       0.0019
    125  CD1       29.5910   87.5070  -86.2000 C.3    97  LEU97       0.0001
    126  CD2       30.9740   87.7170  -84.1370 C.3    97  LEU97       0.0001
    127  N         31.6980   82.4050  -86.3430 N.am   98  SER98      -0.1952
    128  CA        32.3880   81.1640  -86.0020 C.3    98  SER98       0.1924
    129  C         33.4970   80.8340  -87.0040 C.2    98  SER98       0.2314
    130  O         34.5460   80.3120  -86.6210 O.2    98  SER98      -0.2863
    131  CB        31.3910   80.0070  -85.9030 C.3    98  SER98       0.2116
    132  OG        32.0000   78.8440  -85.3710 O.3    98  SER98      -0.2180
    133  N         36.1040   84.2680  -87.7290 N.3   101  PHE101     -0.1227
    134  CA        37.2150   84.2540  -86.7820 C.3   101  PHE101      0.1736
    135  C         38.3260   83.3360  -87.2880 C.2   101  PHE101      0.2595
    136  O         39.5090   83.6720  -87.1930 O.2   101  PHE101     -0.2718
    137  CB        36.7320   83.8030  -85.3980 C.3   101  PHE101      0.0547
    138  CG        36.2510   84.9270  -84.5180 C.ar  101  PHE101     -0.0202
    139  CD1       35.4440   85.9430  -85.0240 C.ar  101  PHE101     -0.0042
    140  CD2       36.5960   84.9610  -83.1720 C.ar  101  PHE101     -0.0042
    141  CE1       35.0010   86.9740  -84.2090 C.ar  101  PHE101     -0.0003
    142  CE2       36.1540   85.9870  -82.3520 C.ar  101  PHE101     -0.0003
    143  CZ        35.3570   86.9950  -82.8710 C.ar  101  PHE101     -0.0000
    144  N         37.9320   82.1870  -87.8380 N.am  102  ASP102     -0.1974
    145  CA        38.8690   81.2280  -88.4300 C.3   102  ASP102      0.1709
    146  C         39.3470   81.6790  -89.8140 C.2   102  ASP102      0.2293
    147  O         40.2000   81.0310  -90.4280 O.2   102  ASP102     -0.2864
    148  CB        38.2300   79.8360  -88.5150 C.3   102  ASP102      0.1436
    149  CG        37.9350   79.2370  -87.1460 C.2   102  ASP102      0.3671
    150  OD1       37.6030   79.9990  -86.2120 O.co2 102  ASP102     -0.2456
    151  OD2       38.0250   77.9980  -87.0060 O.co2 102  ASP102     -0.2456
@<TRIPOS>BOND
     1   147   146    2
     2   146   145    1
     3    23    21    1
     4   148   145    1
     5   148   149    1
     6   145   144    1
     7   144   135   am
     8   133   134    1
     9    22    21    1
    10   119   120    1
    11    21    20    1
    12   135   136    2
    13   135   134    1
    14    20    17    1
    15   149   151   ar
    16   149   150   ar
    17   129   130    2
    18   129   128    1
    19   134   137    1
    20   120   121    1
    21   120   123    1
    22   127   121   am
    23   127   128    1
    24   121   122    2
    25   125   124    1
    26   128   131    1
    27    16    17    1
    28   131   132    1
    29    17    18    1
    30   124   123    1
    31   124   126    1
    32   137   138    1
    33   116   115    2
    34   115   114    1
    35   113   114    1
    36   139   138   ar
    37   139   141   ar
    38    18    24   am
    39    18    19    2
    40   106   107    2
    41   106   105    1
    42   138   140   ar
    43    24    25    1
    44   114   117    1
    45   141   143   ar
    46    28    25    1
    47    28    29    1
    48    31    33   ar
    49    31    29   ar
    50   104   105    1
    51    25    26    1
    52   105   108    1
    53    33    34   ar
    54   140   142   ar
    55    29    30   ar
    56   117   118    1
    57    98    99    2
    58    98    97    1
    59   108   109    1
    60    42    40    1
    61   143   142   ar
    62    96    97    1
    63    26    27    2
    64   111   110    2
    65    40    41    1
    66    40    37    1
    67    97   100    1
    68    34    35    1
    69    34    32   ar
    70    30    32   ar
    71    41    43    1
    72   109   110    1
    73    36    37    1
    74   110   112   am
    75   100   101    1
    76    37    38    1
    77    39    38    2
    78    75    74    1
    79    38    44   am
    80   101   103    1
    81   101   102    1
    82    74    71    1
    83    44    45    1
    84    55    54    2
    85    71    70    1
    86    71    72    1
    87    47    46    2
    88    66    65    2
    89    54    53    1
    90    45    46    1
    91    45    48    1
    92    46    52   am
    93    63    64    1
    94    52    53    1
    95    70    65   am
    96    65    64    1
    97    79    78    2
    98    53    56    1
    99    95    93   ar
   100    72    73    2
   101    72    76   am
   102    51    49    1
   103    64    67    1
   104    76    77    1
   105    49    48    1
   106    48    50    1
   107    78    77    1
   108    78    88   am
   109    93    94   ar
   110    93    92    1
   111    77    80    1
   112    56    57    1
   113    89    92    1
   114    89    88    1
   115    89    90    1
   116    67    69    1
   117    67    68    1
   118    57    58    1
   119    90    91    2
   120    80    81    1
   121    82    81   ar
   122    82    84   ar
   123    81    83   ar
   124    84    86   ar
   125    58    59    1
   126    83    85   ar
   127    59    60    2
   128    86    85   ar
   129    86    87    1
   130     5     6    1
   131     5     2    1
   132    60    62    1
   133    60    61    1
   134     6     7    1
   135     2     1    1
   136     2     3    1
   137    13    15    1
   138    13    12    1
   139     7     1    1
   140     4     3    2
   141     9     8    1
   142     9    12    1
   143     9    10    1
   144    14    12    1
   145    11    10    2
