@<TRIPOS>MOLECULE
tmp/4dx9G00.pdb
 80 76 0 0 0
SMALL
GASTEIGER

@<TRIPOS>ATOM
      1  N        -40.3180   96.2530  -51.1820 N.3    14  PRO14      -0.2116
      2  CA       -39.1990   97.0410  -50.6640 C.3    14  PRO14       0.1372
      3  C        -37.9890   96.9820  -51.6000 C.2    14  PRO14       0.2244
      4  O        -37.4220   98.0250  -51.9390 O.2    14  PRO14      -0.2868
      5  CB       -38.8920   96.3820  -49.3140 C.3    14  PRO14       0.0268
      6  CG       -39.3780   94.9800  -49.4500 C.3    14  PRO14       0.0207
      7  CD       -40.5410   95.0180  -50.4020 C.3    14  PRO14       0.0892
      8  N        -35.9760   99.6770  -54.1940 N.3    18  ILE18      -0.1245
      9  CA       -34.5190   99.8540  -54.2190 C.3    18  ILE18       0.1561
     10  C        -33.9790   99.6390  -55.6320 C.2    18  ILE18       0.2260
     11  O        -33.2780  100.4940  -56.1710 O.2    18  ILE18      -0.2867
     12  CB       -33.7860   98.8950  -53.2490 C.3    18  ILE18       0.0252
     13  CG1      -34.3410   99.0120  -51.8240 C.3    18  ILE18       0.0019
     14  CG2      -32.2890   99.1790  -53.2510 C.3    18  ILE18       0.0019
     15  CD1      -33.9690   97.8560  -50.9170 C.3    18  ILE18       0.0001
     16  N        -38.7110  103.1900  -47.6970 N.3    65  VAL65      -0.1231
     17  CA       -37.6370  102.2030  -47.6410 C.3    65  VAL65       0.1692
     18  C        -36.2880  102.9220  -47.5890 C.2    65  VAL65       0.2592
     19  O        -35.9700  103.7210  -48.4740 O.2    65  VAL65      -0.2718
     20  CB       -37.6970  101.2420  -48.8530 C.3    65  VAL65       0.0266
     21  CG1      -36.4750  100.3320  -48.9100 C.3    65  VAL65       0.0020
     22  CG2      -38.9740  100.4130  -48.8180 C.3    65  VAL65       0.0020
     23  N        -35.5060  102.6400  -46.5480 N.am   66  CYS66      -0.1956
     24  CA       -34.1790  103.2370  -46.3900 C.3    66  CYS66       0.1843
     25  C        -33.0740  102.1830  -46.3800 C.2    66  CYS66       0.2625
     26  O        -33.2080  101.1370  -45.7450 O.2    66  CYS66      -0.2714
     27  CB       -34.1130  104.1060  -45.1300 C.3    66  CYS66       0.0997
     28  SG       -34.3670  103.2330  -43.5690 S.3    66  CYS66      -0.0797
     29  N        -31.9830  102.4750  -47.0850 N.am   67  TYR67      -0.1960
     30  CA       -30.8870  101.5240  -47.2740 C.3    67  TYR67       0.1771
     31  C        -29.5640  102.2400  -47.5410 C.2    67  TYR67       0.2619
     32  O        -29.5520  103.3520  -48.0590 O.2    67  TYR67      -0.2715
     33  CB       -31.2070  100.5820  -48.4400 C.3    67  TYR67       0.0574
     34  CG       -31.3280  101.2750  -49.7860 C.ar   67  TYR67      -0.0198
     35  CD1      -32.5440  101.8080  -50.2160 C.ar   67  TYR67      -0.0009
     36  CD2      -30.2260  101.3920  -50.6310 C.ar   67  TYR67      -0.0009
     37  CE1      -32.6530  102.4390  -51.4470 C.ar   67  TYR67       0.0417
     38  CE2      -30.3260  102.0200  -51.8600 C.ar   67  TYR67       0.0417
     39  CZ       -31.5380  102.5430  -52.2640 C.ar   67  TYR67       0.1957
     40  OH       -31.6310  103.1660  -53.4880 O.3    67  TYR67      -0.2866
     41  N        -28.4530  101.5910  -47.1980 N.am   68  ASP68      -0.1971
     42  CA       -27.1260  102.1230  -47.4980 C.3    68  ASP68       0.1709
     43  C        -26.8380  101.9690  -48.9890 C.2    68  ASP68       0.2293
     44  O        -27.2470  100.9810  -49.6040 O.2    68  ASP68      -0.2864
     45  CB       -26.0560  101.4110  -46.6640 C.3    68  ASP68       0.1436
     46  CG       -24.7400  102.1770  -46.6150 C.2    68  ASP68       0.3671
     47  OD1      -24.4090  102.7140  -45.5350 O.co2  68  ASP68      -0.2456
     48  OD2      -24.0380  102.2510  -47.6500 O.co2  68  ASP68      -0.2456
     49  N        -26.9420  104.3300  -41.6020 N.3   100  LEU100     -0.1245
     50  CA       -28.1940  103.5760  -41.6460 C.3   100  LEU100      0.1561
     51  C        -29.0530  103.8220  -40.4020 C.2   100  LEU100      0.2260
     52  O        -30.2730  103.9850  -40.5100 O.2   100  LEU100     -0.2867
     53  CB       -27.9170  102.0810  -41.8250 C.3   100  LEU100      0.0270
     54  CG       -29.0540  101.1800  -42.3170 C.3   100  LEU100      0.0019
     55  CD1      -29.4520  101.5000  -43.7520 C.3   100  LEU100      0.0001
     56  CD2      -28.6450   99.7210  -42.1970 C.3   100  LEU100      0.0001
     57  N        -33.0000  104.9830  -40.2140 N.3   104  GLN104     -0.1245
     58  CA       -33.9480  104.1950  -39.4280 C.3   104  GLN104      0.1566
     59  C        -34.8270  105.1000  -38.5640 C.2   104  GLN104      0.2260
     60  O        -36.0330  104.8760  -38.4520 O.2   104  GLN104     -0.2867
     61  CB       -33.2090  103.1880  -38.5410 C.3   104  GLN104      0.0367
     62  CG       -32.5360  102.0360  -39.2810 C.3   104  GLN104      0.0905
     63  CD       -33.4860  100.9080  -39.6490 C.2   104  GLN104      0.2608
     64  OE1      -33.2450  100.1740  -40.6090 O.2   104  GLN104     -0.2717
     65  NE2      -34.5680  100.7590  -38.8840 N.am  104  GLN104     -0.0878
     66  N        -37.9170  106.4700  -40.3320 N.3   107  CYS107     -0.1221
     67  CA       -38.9330  105.4180  -40.4740 C.3   107  CYS107      0.1808
     68  C        -39.7200  105.1950  -39.1810 C.2   107  CYS107      0.2601
     69  O        -40.9260  104.9300  -39.2160 O.2   107  CYS107     -0.2717
     70  CB       -38.2920  104.1020  -40.9220 C.3   107  CYS107      0.0970
     71  SG       -37.6660  104.0980  -42.6190 S.3   107  CYS107     -0.0800
     72  N        -39.0270  105.3060  -38.0490 N.am  108  LYS108     -0.1979
     73  CA       -39.6490  105.1870  -36.7340 C.3   108  LYS108      0.1596
     74  C        -40.6450  106.3210  -36.4930 C.2   108  LYS108      0.2287
     75  O        -41.7970  106.0700  -36.1280 O.2   108  LYS108     -0.2864
     76  CB       -38.5870  105.1620  -35.6280 C.3   108  LYS108      0.0298
     77  CG       -37.5610  104.0420  -35.7500 C.3   108  LYS108      0.0038
     78  CD       -38.1210  102.6820  -35.3450 C.3   108  LYS108      0.0206
     79  CE       -37.2190  101.5440  -35.8050 C.3   108  LYS108      0.1093
     80  NZ       -35.8860  101.5490  -35.1390 N.3   108  LYS108     -0.1314
@<TRIPOS>BOND
     1    11    10    2
     2    10     9    1
     3     9     8    1
     4     9    12    1
     5    40    39    1
     6    14    12    1
     7    12    13    1
     8    39    38   ar
     9    39    37   ar
    10     4     3    2
    11    38    36   ar
    12    13    15    1
    13     3     2    1
    14    37    35   ar
    15     1     2    1
    16     1     7    1
    17     2     5    1
    18    36    34   ar
    19     7     6    1
    20    35    34   ar
    21    34    33    1
    22    44    43    2
    23     6     5    1
    24    43    42    1
    25    21    20    1
    26    20    22    1
    27    20    17    1
    28    19    18    2
    29    33    30    1
    30    32    31    2
    31    16    17    1
    32    48    46   ar
    33    17    18    1
    34    18    23   am
    35    31    30    1
    36    31    41   am
    37    42    41    1
    38    42    45    1
    39    30    29    1
    40    29    25   am
    41    45    46    1
    42    46    47   ar
    43    23    24    1
    44    24    25    1
    45    24    27    1
    46    25    26    2
    47    27    28    1
    48    55    54    1
    49    71    70    1
    50    54    56    1
    51    54    53    1
    52    53    50    1
    53    50    49    1
    54    50    51    1
    55    70    67    1
    56    64    63    2
    57    52    51    2
    58    67    66    1
    59    67    68    1
    60    57    58    1
    61    63    62    1
    62    63    65   am
    63    58    59    1
    64    58    61    1
    65    62    61    1
    66    69    68    2
    67    68    72   am
    68    59    60    2
    69    72    73    1
    70    73    74    1
    71    73    76    1
    72    74    75    2
    73    79    78    1
    74    79    80    1
    75    77    76    1
    76    77    78    1
