@<TRIPOS>MOLECULE
tmp/4dxdA01.pdb
 165 152 0 0 0
SMALL
GASTEIGER

@<TRIPOS>ATOM
      1  N         -4.1170   31.0670   15.2700 N.3   178  VAL178     -0.1245
      2  CA        -5.3900   30.8040   15.9350 C.3   178  VAL178      0.1561
      3  C         -5.4040   31.5620   17.2610 C.2   178  VAL178      0.2260
      4  O         -6.3150   32.3660   17.5140 O.2   178  VAL178     -0.2867
      5  CB        -5.6540   29.2870   16.1510 C.3   178  VAL178      0.0252
      6  CG1       -6.9840   29.0560   16.8530 C.3   178  VAL178      0.0019
      7  CG2       -5.6130   28.5280   14.8320 C.3   178  VAL178      0.0019
      8  N         -4.7170   35.6730   16.7920 N.3   181  GLN181     -0.1231
      9  CA        -5.9070   36.4100   16.3160 C.3   181  GLN181      0.1698
     10  C         -6.9630   36.5170   17.4050 C.2   181  GLN181      0.2592
     11  O         -7.5880   37.5700   17.5520 O.2   181  GLN181     -0.2718
     12  CB        -6.5130   35.7700   15.0520 C.3   181  GLN181      0.0381
     13  CG        -5.6430   35.8700   13.7940 C.3   181  GLN181      0.0905
     14  CD        -5.9440   34.7840   12.7830 C.2   181  GLN181      0.2608
     15  OE1       -6.4490   33.6930   13.1040 O.2   181  GLN181     -0.2717
     16  NE2       -5.6470   35.0620   11.5230 N.am  181  GLN181     -0.0878
     17  N         -7.1450   35.4260   18.1520 N.am  182  GLY182     -0.1957
     18  CA        -8.0830   35.3550   19.2640 C.3   182  GLY182      0.1869
     19  C         -7.6880   36.3350   20.3510 C.2   182  GLY182      0.2309
     20  O         -8.5340   37.0780   20.8520 O.2   182  GLY182     -0.2863
     21  N         -7.7780   40.0850   18.9470 N.3   185  GLY185     -0.1210
     22  CA        -9.1930   40.3590   18.7400 C.3   185  GLY185      0.1956
     23  C         -9.9430   40.6520   20.0150 C.2   185  GLY185      0.2611
     24  O        -10.7280   41.6060   20.0700 O.2   185  GLY185     -0.2717
     25  N         -9.6880   39.8570   21.0650 N.am  186  ILE186     -0.1979
     26  CA       -10.3320   40.0730   22.3610 C.3   186  ILE186      0.1595
     27  C         -9.8440   41.3860   22.9940 C.2   186  ILE186      0.2287
     28  O        -10.6700   42.1920   23.4450 O.2   186  ILE186     -0.2864
     29  CB       -10.2800   38.8400   23.2740 C.3   186  ILE186      0.0276
     30  CG1      -11.2160   37.7360   22.7110 C.3   186  ILE186      0.0022
     31  CG2      -10.6530   39.2030   24.7250 C.3   186  ILE186      0.0022
     32  CD1      -10.9300   36.3200   23.2030 C.3   186  ILE186      0.0001
     33  N         -8.7250   44.0610   21.4910 N.3   188  ASP188     -0.1225
     34  CA        -9.3150   45.1240   20.6920 C.3   188  ASP188      0.1805
     35  C        -10.7710   45.3630   21.0950 C.2   188  ASP188      0.2597
     36  O        -11.1670   46.5110   21.2640 O.2   188  ASP188     -0.2718
     37  CB        -9.1920   44.7930   19.1980 C.3   188  ASP188      0.1424
     38  CG        -7.7830   44.9480   18.6310 C.2   188  ASP188      0.3668
     39  OD1       -6.8550   45.2760   19.4110 O.co2 188  ASP188     -0.2456
     40  OD2       -7.6080   44.7380   17.4160 O.co2 188  ASP188     -0.2456
     41  N        -11.5520   44.2730   21.2660 N.am  189  LEU189     -0.1979
     42  CA       -12.9460   44.2920   21.6950 C.3   189  LEU189      0.1596
     43  C        -13.0460   45.0600   23.0450 C.2   189  LEU189      0.2287
     44  O        -13.8870   45.9380   23.1900 O.2   189  LEU189     -0.2864
     45  CB       -13.4320   42.8310   21.8380 C.3   189  LEU189      0.0297
     46  CG       -14.8600   42.5760   22.2300 C.3   189  LEU189      0.0022
     47  CD1      -15.3350   41.2740   21.6540 C.3   189  LEU189      0.0001
     48  CD2      -15.0110   42.5200   23.7560 C.3   189  LEU189      0.0001
     49  N        -11.8030   49.0600   22.5160 N.3   192  VAL192     -0.1245
     50  CA       -12.6070   49.9220   21.6560 C.3   192  VAL192      0.1561
     51  C        -14.0930   49.8520   21.9940 C.2   192  VAL192      0.2260
     52  O        -14.6390   48.7630   22.1680 O.2   192  VAL192     -0.2867
     53  CB       -12.3470   49.5680   20.1570 C.3   192  VAL192      0.0252
     54  CG1      -13.0390   50.5500   19.2180 C.3   192  VAL192      0.0019
     55  CG2      -10.8480   49.4980   19.8440 C.3   192  VAL192      0.0019
     56  N        -17.4300   49.9690   20.5270 N.3   194  GLY194     -0.1225
     57  CA       -17.9970   49.8320   19.1900 C.3   194  GLY194      0.1811
     58  C        -19.3040   50.5730   19.0690 C.2   194  GLY194      0.2280
     59  O        -19.9310   50.8680   20.0880 O.2   194  GLY194     -0.2866
     60  N        -21.9200   49.2790   18.1650 N.3   196  VAL196     -0.1231
     61  CA       -22.7840   48.2870   18.7970 C.3   196  VAL196      0.1692
     62  C        -21.7360   47.5780   19.6210 C.2   196  VAL196      0.2592
     63  O        -21.0000   46.6920   19.1360 O.2   196  VAL196     -0.2718
     64  CB       -23.5950   47.3920   17.8410 C.3   196  VAL196      0.0266
     65  CG1      -24.3290   46.2870   18.6260 C.3   196  VAL196      0.0020
     66  CG2      -24.5980   48.2410   17.0560 C.3   196  VAL196      0.0020
     67  N        -21.5970   48.0680   20.8620 N.am  197  ASN197     -0.1960
     68  CA       -20.5620   47.6120   21.7590 C.3   197  ASN197      0.1819
     69  C        -20.6260   46.2170   22.3350 C.2   197  ASN197      0.2621
     70  O        -21.6670   45.7660   22.7900 O.2   197  ASN197     -0.2715
     71  CB       -20.2510   48.6570   22.8360 C.3   197  ASN197      0.1195
     72  CG       -18.9420   48.3570   23.5320 C.2   197  ASN197      0.2630
     73  OD1      -17.8840   48.4710   22.9360 O.2   197  ASN197     -0.2716
     74  ND2      -18.9880   47.9310   24.7860 N.am  197  ASN197     -0.0877
     75  N        -19.4550   45.5520   22.3430 N.am  198  LEU198     -0.1977
     76  CA       -19.2250   44.2560   22.9670 C.3   198  LEU198      0.1596
     77  C        -18.1130   44.5020   23.9990 C.2   198  LEU198      0.2287
     78  O        -17.1540   45.2010   23.6960 O.2   198  LEU198     -0.2864
     79  CB       -18.8060   43.1980   21.9400 C.3   198  LEU198      0.0297
     80  CG       -19.8770   42.7670   20.9310 C.3   198  LEU198      0.0022
     81  CD1      -19.3970   41.6140   20.1110 C.3   198  LEU198      0.0001
     82  CD2      -21.1740   42.3750   21.6110 C.3   198  LEU198      0.0001
     83  N        -12.8640   29.7040   17.0900 N.3   215  MET215     -0.1230
     84  CA       -12.4740   31.1090   17.0130 C.3   215  MET215      0.1702
     85  C        -12.0430   31.3140   15.5720 C.2   215  MET215      0.2593
     86  O        -11.3660   30.4490   14.9930 O.2   215  MET215     -0.2718
     87  CB       -11.3270   31.4400   17.9600 C.3   215  MET215      0.0401
     88  CG       -11.7560   31.6360   19.3860 C.3   215  MET215      0.0596
     89  SD       -10.3920   32.3440   20.3180 S.3   215  MET215     -0.1393
     90  CE       -11.1390   33.7570   20.8950 C.3   215  MET215      0.0692
     91  N        -12.4580   32.4270   14.9970 N.am  216  GLY216     -0.1942
     92  CA       -12.1250   32.7250   13.6150 C.3   216  GLY216      0.2014
     93  C        -12.2890   34.1700   13.2220 C.2   216  GLY216      0.2638
     94  O        -13.0250   34.9310   13.8540 O.2   216  GLY216     -0.2714
     95  N        -11.5850   34.5310   12.1580 N.am  217  ILE217     -0.1977
     96  CA       -11.5490   35.8520   11.5660 C.3   217  ILE217      0.1596
     97  C        -11.4960   35.7070   10.0440 C.2   217  ILE217      0.2287
     98  O        -10.8270   34.8110    9.5060 O.2   217  ILE217     -0.2864
     99  CB       -10.3780   36.7100   12.1520 C.3   217  ILE217      0.0276
    100  CG1      -10.3330   38.1350   11.5420 C.3   217  ILE217      0.0022
    101  CG2       -9.0180   35.9940   12.0070 C.3   217  ILE217      0.0022
    102  CD1       -9.3920   39.1790   12.2860 C.3   217  ILE217      0.0001
    103  N        -20.3960   34.9070   19.5180 N.3   250  LEU250     -0.1245
    104  CA       -20.0670   36.3040   19.7480 C.3   250  LEU250      0.1561
    105  C        -19.5470   36.6840   18.3540 C.2   250  LEU250      0.2260
    106  O        -18.5820   36.0970   17.8560 O.2   250  LEU250     -0.2867
    107  CB       -18.9980   36.5460   20.8200 C.3   250  LEU250      0.0270
    108  CG       -18.6980   38.0460   21.0660 C.3   250  LEU250      0.0019
    109  CD1      -18.4130   38.3290   22.5020 C.3   250  LEU250      0.0001
    110  CD2      -17.5180   38.5360   20.2230 C.3   250  LEU250      0.0001
    111  N        -18.5540   39.9290   15.7200 N.3   252  ASN252     -0.1240
    112  CA       -18.3220   41.3370   15.4950 C.3   252  ASN252      0.1653
    113  C        -18.0680   41.6060   14.0350 C.2   252  ASN252      0.2266
    114  O        -17.3880   40.8200   13.3760 O.2   252  ASN252     -0.2867
    115  CB       -17.0960   41.8500   16.2800 C.3   252  ASN252      0.1155
    116  CG       -16.9220   43.3380   16.0900 C.2   252  ASN252      0.2627
    117  OD1      -17.7500   44.1490   16.5490 O.2   252  ASN252     -0.2716
    118  ND2      -15.8790   43.7310   15.3800 N.am  252  ASN252     -0.0877
    119  N        -16.4020   44.5770   11.6580 N.3   254  THR254     -0.1218
    120  CA       -15.6620   45.8370   11.6100 C.3   254  THR254      0.1862
    121  C        -15.6320   46.2480   10.1540 C.2   254  THR254      0.2287
    122  O        -15.3320   45.4230    9.2810 O.2   254  THR254     -0.2866
    123  CB       -14.2600   45.7450   12.2700 C.3   254  THR254      0.1770
    124  OG1      -14.4260   45.2980   13.6140 O.3   254  THR254     -0.2211
    125  CG2      -13.5280   47.1090   12.3200 C.3   254  THR254      0.0375
    126  N        -21.9270   42.3920   17.5650 N.3   284  GLY284     -0.1210
    127  CA       -21.1850   43.6390   17.6710 C.3   284  GLY284      0.1956
    128  C        -20.8580   44.2530   16.3300 C.2   284  GLY284      0.2613
    129  O        -20.8380   43.5650   15.3080 O.2   284  GLY284     -0.2717
    130  N        -20.5990   45.5660   16.3370 N.am  285  THR285     -0.1938
    131  CA       -20.2480   46.3440   15.1510 C.3   285  THR285      0.2028
    132  C        -19.3170   47.4940   15.5420 C.2   285  THR285      0.2642
    133  O        -19.5350   48.1400   16.5600 O.2   285  THR285     -0.2714
    134  CB       -21.5260   46.8490   14.4370 C.3   285  THR285      0.1808
    135  OG1      -22.1700   45.7460   13.8030 O.3   285  THR285     -0.2208
    136  CG2      -21.2420   47.9140   13.4020 C.3   285  THR285      0.0379
    137  N        -18.2870   47.7310   14.7120 N.am  286  VAL286     -0.1977
    138  CA       -17.2930   48.7980   14.8610 C.3   286  VAL286      0.1596
    139  C        -17.1460   49.5000   13.5350 C.2   286  VAL286      0.2287
    140  O        -16.9970   48.8440   12.5100 O.2   286  VAL286     -0.2864
    141  CB       -15.8960   48.2760   15.2860 C.3   286  VAL286      0.0276
    142  CG1      -15.0530   49.3940   15.9080 C.3   286  VAL286      0.0022
    143  CG2      -16.0200   47.1170   16.2410 C.3   286  VAL286      0.0022
    144  N        -15.3930   38.6890   12.7930 N.3   298  THR298     -0.1203
    145  CA       -14.7860   37.8640   13.8280 C.3   298  THR298      0.1994
    146  C        -15.8500   37.0570   14.5530 C.2   298  THR298      0.2618
    147  O        -16.9570   37.5570   14.8020 O.2   298  THR298     -0.2717
    148  CB       -13.9110   38.6710   14.7280 C.3   298  THR298      0.1784
    149  OG1      -14.7080   39.6160   15.4360 O.3   298  THR298     -0.2211
    150  CG2      -12.7670   39.3390   13.9710 C.3   298  THR298      0.0376
    151  N        -15.5410   35.7860   14.8280 N.am  299  VAL299     -0.1965
    152  CA       -16.4770   34.8630   15.4720 C.3   299  VAL299      0.1727
    153  C        -15.8220   34.0600   16.5970 C.2   299  VAL299      0.2616
    154  O        -14.7070   33.5520   16.4320 O.2   299  VAL299     -0.2715
    155  CB       -17.1220   33.9230   14.3860 C.3   299  VAL299      0.0290
    156  CG1      -17.6270   32.6140   14.9670 C.3   299  VAL299      0.0023
    157  CG2      -18.2300   34.6230   13.6030 C.3   299  VAL299      0.0023
    158  N        -16.5570   33.9210   17.7260 N.am  300  ILE300     -0.1977
    159  CA       -16.2430   33.0720   18.8700 C.3   300  ILE300      0.1596
    160  C        -17.5060   32.2370   18.9450 C.2   300  ILE300      0.2287
    161  O        -18.5890   32.7910   19.1790 O.2   300  ILE300     -0.2864
    162  CB       -15.9240   33.8020   20.2130 C.3   300  ILE300      0.0276
    163  CG1      -14.6670   34.6760   20.0690 C.3   300  ILE300      0.0022
    164  CG2      -15.7500   32.7530   21.3460 C.3   300  ILE300      0.0022
    165  CD1      -14.4250   35.7350   21.1630 C.3   300  ILE300      0.0001
@<TRIPOS>BOND
     1   122   121    2
     2    98    97    2
     3    97    96    1
     4   121   120    1
     5    16    14   am
     6   100    99    1
     7   100   102    1
     8    96    99    1
     9    96    95    1
    10   120   119    1
    11   120   123    1
    12   101    99    1
    13    95    93   am
    14   123   125    1
    15   123   124    1
    16   140   139    2
    17    14    15    2
    18    14    13    1
    19   144   145    1
    20    93    92    1
    21    93    94    2
    22   114   113    2
    23   136   134    1
    24   139   138    1
    25   157   155    1
    26    92    91    1
    27    13    12    1
    28   135   134    1
    29   145   146    1
    30   145   148    1
    31   150   148    1
    32   113   112    1
    33   155   156    1
    34   155   152    1
    35   134   131    1
    36   146   147    2
    37   146   151   am
    38   137   138    1
    39   137   132   am
    40   148   149    1
    41   151   152    1
    42     7     5    1
    43   138   141    1
    44    86    85    2
    45    91    85   am
    46    12     9    1
    47   131   132    1
    48   131   130    1
    49     1     2    1
    50   141   142    1
    51   141   143    1
    52   129   128    2
    53   118   116   am
    54   152   153    1
    55   112   111    1
    56   112   115    1
    57   132   133    2
    58    85    84    1
    59     2     5    1
    60     2     3    1
    61   116   115    1
    62   116   117    2
    63     5     6    1
    64     9     8    1
    65     9    10    1
    66   128   130   am
    67   128   127    1
    68   154   153    2
    69   153   158   am
    70    84    83    1
    71    84    87    1
    72    66    64    1
    73     3     4    2
    74    10    11    2
    75    10    17   am
    76    40    38   ar
    77   126   127    1
    78   158   159    1
    79    64    65    1
    80    64    61    1
    81   106   105    2
    82    87    88    1
    83    17    18    1
    84    60    61    1
    85   105   104    1
    86    38    37    1
    87    38    39   ar
    88    22    21    1
    89    22    23    1
    90    61    62    1
    91   159   160    1
    92   159   162    1
    93   160   161    2
    94    58    57    1
    95    58    59    2
    96    63    62    2
    97    57    56    1
    98    37    34    1
    99    54    53    1
   100    18    19    1
   101    88    89    1
   102   103   104    1
   103    62    67   am
   104   104   107    1
   105    55    53    1
   106    23    24    2
   107    23    25   am
   108   163   162    1
   109   163   165    1
   110    81    80    1
   111    53    50    1
   112   162   164    1
   113   110   108    1
   114    89    90    1
   115    19    20    2
   116    34    35    1
   117    34    33    1
   118   107   108    1
   119    67    68    1
   120    80    82    1
   121    80    79    1
   122    25    26    1
   123   108   109    1
   124    35    36    2
   125    35    41   am
   126    41    42    1
   127    47    46    1
   128    50    51    1
   129    50    49    1
   130    42    45    1
   131    42    43    1
   132    68    69    1
   133    68    71    1
   134    45    46    1
   135    79    76    1
   136    51    52    2
   137    46    48    1
   138    69    75   am
   139    69    70    2
   140    75    76    1
   141    26    27    1
   142    26    29    1
   143    30    32    1
   144    30    29    1
   145    71    72    1
   146    73    72    2
   147    76    77    1
   148    27    28    2
   149    43    44    2
   150    29    31    1
   151    72    74   am
   152    78    77    2
