@<TRIPOS>MOLECULE
tmp/4dxgA00.pdb
 111 103 0 0 0
SMALL
GASTEIGER

@<TRIPOS>ATOM
      1  N        -18.0170  -17.5020   35.5780 N.3    53  LYS53      -0.1245
      2  CA       -17.6320  -18.2170   36.8090 C.3    53  LYS53       0.1561
      3  C        -17.1880  -17.3590   37.9850 C.2    53  LYS53       0.2260
      4  O        -17.0180  -17.8840   39.0870 O.2    53  LYS53      -0.2867
      5  CB       -16.5350  -19.2270   36.5080 C.3    53  LYS53       0.0271
      6  CG       -17.0220  -20.4120   35.7090 C.3    53  LYS53       0.0035
      7  CD       -15.8510  -21.3660   35.4670 C.3    53  LYS53       0.0206
      8  CE       -16.3430  -22.6710   34.7980 C.3    53  LYS53       0.1093
      9  NZ       -15.2980  -23.2040   33.8510 N.3    53  LYS53      -0.1314
     10  N         -8.8900  -14.8180   29.7960 N.3   128  LEU128     -0.1245
     11  CA        -9.0290  -14.8570   28.3590 C.3   128  LEU128      0.1561
     12  C         -9.3310  -13.4440   27.8260 C.2   128  LEU128      0.2260
     13  O         -8.9470  -13.1190   26.7230 O.2   128  LEU128     -0.2867
     14  CB       -10.0690  -15.8740   27.9280 C.3   128  LEU128      0.0270
     15  CG        -9.9320  -17.2730   28.4890 C.3   128  LEU128      0.0019
     16  CD1      -11.1080  -18.0250   27.9200 C.3   128  LEU128      0.0001
     17  CD2       -8.6110  -17.9730   28.1020 C.3   128  LEU128      0.0001
     18  N         -0.0990  -28.6890   28.0160 N.3   160  ASN160     -0.1240
     19  CA        -0.8050  -29.9740   28.1450 C.3   160  ASN160      0.1653
     20  C         -1.6340  -30.4170   26.9110 C.2   160  ASN160      0.2266
     21  O         -2.2870  -31.4590   26.9320 O.2   160  ASN160     -0.2867
     22  CB        -1.6840  -29.9670   29.4080 C.3   160  ASN160      0.1155
     23  CG        -2.8960  -29.0640   29.2740 C.2   160  ASN160      0.2627
     24  OD1       -3.1170  -28.4300   28.2210 O.2   160  ASN160     -0.2716
     25  ND2       -3.7070  -29.0020   30.3430 N.am  160  ASN160     -0.0877
     26  N         -4.2980  -28.6900   25.8020 N.3   162  GLY162     -0.1210
     27  CA        -5.5420  -27.9310   25.8130 C.3   162  GLY162      0.1956
     28  C         -5.4090  -26.7030   24.9070 C.2   162  GLY162      0.2612
     29  O         -4.3060  -26.3840   24.4250 O.2   162  GLY162     -0.2717
     30  N         -6.5310  -26.0160   24.6670 N.am  163  LYS163     -0.1965
     31  CA        -6.5880  -24.8350   23.7970 C.3   163  LYS163      0.1728
     32  C         -7.7610  -23.9180   24.1460 C.2   163  LYS163      0.2616
     33  O         -8.7100  -24.3350   24.8330 O.2   163  LYS163     -0.2715
     34  CB        -6.6970  -25.2520   22.3320 C.3   163  LYS163      0.0311
     35  CG        -8.0510  -25.8970   21.9810 C.3   163  LYS163      0.0038
     36  CD        -8.1630  -26.2210   20.5230 C.3   163  LYS163      0.0206
     37  CE        -9.3190  -27.1760   20.2980 C.3   163  LYS163      0.1093
     38  NZ       -10.0370  -26.7570   19.0530 N.3   163  LYS163     -0.1314
     39  N         -7.6830  -22.6770   23.6520 N.am  164  TYR164     -0.1960
     40  CA        -8.7050  -21.6380   23.8610 C.3   164  TYR164      0.1771
     41  C         -8.8280  -20.8370   22.5960 C.2   164  TYR164      0.2620
     42  O         -7.8500  -20.2930   22.1140 O.2   164  TYR164     -0.2715
     43  CB        -8.3140  -20.7250   25.0190 C.3   164  TYR164      0.0574
     44  CG        -8.1170  -21.5000   26.3130 C.ar  164  TYR164     -0.0198
     45  CD1       -6.8700  -21.9920   26.6590 C.ar  164  TYR164     -0.0009
     46  CD2       -9.1950  -21.7680   27.1670 C.ar  164  TYR164     -0.0009
     47  CE1       -6.6820  -22.7160   27.8250 C.ar  164  TYR164      0.0417
     48  CE2       -9.0220  -22.4800   28.3340 C.ar  164  TYR164      0.0417
     49  CZ        -7.7520  -22.9550   28.6660 C.ar  164  TYR164      0.1957
     50  OH        -7.5360  -23.6720   29.8370 O.3   164  TYR164     -0.2866
     51  N        -10.0320  -20.7990   22.0470 N.am  165  THR165     -0.1951
     52  CA       -10.2720  -20.3010   20.7180 C.3   165  THR165      0.1897
     53  C        -11.0690  -19.0290   20.8200 C.2   165  THR165      0.2313
     54  O        -12.1010  -19.0070   21.5210 O.2   165  THR165     -0.2863
     55  CB       -11.1150  -21.3470   19.8800 C.3   165  THR165      0.1794
     56  OG1      -10.4360  -22.6020   19.8330 O.3   165  THR165     -0.2208
     57  CG2      -11.3030  -20.8810   18.4470 C.3   165  THR165      0.0378
     58  N        -13.1250  -16.6370   18.2350 N.3   167  GLU167     -0.1245
     59  CA       -13.6040  -16.3760   16.9050 C.3   167  GLU167      0.1567
     60  C        -13.6460  -14.8760   16.6190 C.2   167  GLU167      0.2260
     61  O        -14.2090  -14.0870   17.3760 O.2   167  GLU167     -0.2867
     62  CB       -14.9650  -17.0200   16.7090 C.3   167  GLU167      0.0388
     63  CG       -15.0040  -18.5260   17.0010 C.3   167  GLU167      0.1160
     64  CD       -16.4400  -19.0320   17.0390 C.2   167  GLU167      0.3649
     65  OE1      -16.8860  -19.5380   15.9660 O.co2 167  GLU167     -0.2457
     66  OE2      -17.1320  -18.8780   18.1020 O.co2 167  GLU167     -0.2457
     67  N        -16.9530  -11.9170   15.8290 N.3   170  LYS170     -0.1245
     68  CA       -17.7130  -11.3030   16.9430 C.3   170  LYS170      0.1561
     69  C        -16.8180  -11.1510   18.2070 C.2   170  LYS170      0.2260
     70  O        -15.7200  -11.7810   18.2910 O.2   170  LYS170     -0.2867
     71  CB       -18.9270  -12.1640   17.3070 C.3   170  LYS170      0.0271
     72  CG       -18.5400  -13.5520   17.8400 C.3   170  LYS170      0.0035
     73  CD       -19.7240  -14.4500   17.9660 C.3   170  LYS170      0.0206
     74  CE       -19.2410  -15.8470   18.2770 C.3   170  LYS170      0.1093
     75  NZ       -20.3860  -16.7910   18.3610 N.3   170  LYS170     -0.1314
     76  N        -17.3030  -13.8860   24.0250 N.3   173  GLN173     -0.1245
     77  CA       -18.5670  -13.9400   24.7350 C.3   173  GLN173      0.1566
     78  C        -18.2760  -13.5260   26.1660 C.2   173  GLN173      0.2260
     79  O        -17.2950  -13.9480   26.7700 O.2   173  GLN173     -0.2867
     80  CB       -19.2390  -15.3220   24.6440 C.3   173  GLN173      0.0367
     81  CG       -19.3070  -15.8980   23.1930 C.3   173  GLN173      0.0905
     82  CD       -18.0540  -16.7140   22.8260 C.2   173  GLN173      0.2608
     83  OE1      -16.9440  -16.3510   23.2010 O.2   173  GLN173     -0.2717
     84  NE2      -18.2420  -17.8260   22.1020 N.am  173  GLN173     -0.0878
     85  N        -19.2580  -14.1610   29.1400 N.3   175  ASN175     -0.1225
     86  CA       -19.0120  -15.1220   30.2150 C.3   175  ASN175      0.1785
     87  C        -17.5330  -15.5620   30.2590 C.2   175  ASN175      0.2597
     88  O        -16.9650  -15.8360   31.3340 O.2   175  ASN175     -0.2718
     89  CB       -20.0100  -16.3140   30.1400 C.3   175  ASN175      0.1169
     90  CG       -19.7780  -17.2420   28.9360 C.2   175  ASN175      0.2627
     91  OD1      -19.8830  -16.8430   27.7770 O.2   175  ASN175     -0.2716
     92  ND2      -19.5000  -18.5000   29.2240 N.am  175  ASN175     -0.0877
     93  N        -16.9170  -15.5680   29.0840 N.am  176  ARG176     -0.1979
     94  CA       -15.5720  -16.0580   28.9000 C.3   176  ARG176      0.1597
     95  C        -14.5540  -15.0390   29.3680 C.2   176  ARG176      0.2287
     96  O        -13.4190  -15.3760   29.6790 O.2   176  ARG176     -0.2864
     97  CB       -15.3660  -16.4130   27.4230 C.3   176  ARG176      0.0334
     98  CG       -16.2510  -17.5650   26.9600 C.3   176  ARG176      0.0492
     99  CD       -15.9070  -17.9950   25.5820 C.3   176  ARG176      0.2205
    100  NE       -14.5680  -18.6200   25.4890 N.pl3 176  ARG176     -0.0865
    101  CZ       -13.8410  -18.6310   24.3790 C.cat 176  ARG176      0.5346
    102  NH1      -14.2910  -18.0370   23.2570 N.pl3 176  ARG176      0.1354
    103  NH2      -12.6730  -19.2520   24.3700 N.pl3 176  ARG176      0.1354
    104  N        -13.0210  -16.2100   32.4560 N.3   179  ASP179     -0.1239
    105  CA       -12.2440  -17.4360   32.4460 C.3   179  ASP179      0.1674
    106  C        -10.7650  -17.1160   32.6560 C.2   179  ASP179      0.2266
    107  O        -10.2490  -16.1450   32.1060 O.2   179  ASP179     -0.2867
    108  CB       -12.4790  -18.2320   31.1490 C.3   179  ASP179      0.1410
    109  CG       -13.8430  -18.9790   31.1310 C.2   179  ASP179      0.3668
    110  OD1      -14.3530  -19.4510   32.1850 O.co2 179  ASP179     -0.2456
    111  OD2      -14.4190  -19.1110   30.0320 O.co2 179  ASP179     -0.2456
@<TRIPOS>BOND
     1    67    68    1
     2    65    64   ar
     3    60    59    1
     4    60    61    2
     5    62    59    1
     6    62    63    1
     7    59    58    1
     8    68    71    1
     9    68    69    1
    10    63    64    1
    11    64    66   ar
    12    71    72    1
    13    72    73    1
    14    73    74    1
    15    69    70    2
    16    74    75    1
    17    57    55    1
    18    38    37    1
    19    56    55    1
    20    55    52    1
    21    37    36    1
    22    36    35    1
    23    52    53    1
    24    52    51    1
    25    53    54    2
    26    35    34    1
    27    51    41   am
    28    84    82   am
    29    42    41    2
    30    34    31    1
    31    41    40    1
    32    82    81    1
    33    82    83    2
    34    81    80    1
    35   102   101    1
    36    39    40    1
    37    39    32   am
    38    31    32    1
    39    31    30    1
    40    40    43    1
    41    76    77    1
    42    32    33    2
    43   103   101    1
    44   101   100    2
    45    29    28    2
    46    80    77    1
    47    30    28   am
    48    77    78    1
    49    28    27    1
    50    43    44    1
    51   100    99    1
    52    99    98    1
    53    26    27    1
    54    78    79    2
    55    44    45   ar
    56    44    46   ar
    57    45    47   ar
    58    13    12    2
    59    20    21    2
    60    20    19    1
    61    98    97    1
    62    46    48   ar
    63    97    94    1
    64    91    90    2
    65    47    49   ar
    66    12    11    1
    67    16    15    1
    68    14    11    1
    69    14    15    1
    70    18    19    1
    71    17    15    1
    72    19    22    1
    73    24    23    2
    74    48    49   ar
    75    11    10    1
    76    49    50    1
    77    94    93    1
    78    94    95    1
    79    90    92   am
    80    90    89    1
    81    93    87   am
    82    85    86    1
    83    23    22    1
    84    23    25   am
    85    95    96    2
    86   111   109   ar
    87    89    86    1
    88    86    87    1
    89    87    88    2
    90   109   108    1
    91   109   110   ar
    92   108   105    1
    93   107   106    2
    94   105   104    1
    95   105   106    1
    96     9     8    1
    97     8     7    1
    98     7     6    1
    99     1     2    1
   100     6     5    1
   101     5     2    1
   102     2     3    1
   103     3     4    2
