@<TRIPOS>MOLECULE
tmp/4dxjA02.pdb
 98 97 0 0 0
SMALL
GASTEIGER

@<TRIPOS>ATOM
      1  N         44.9800   41.8240  189.4270 N.3    42  THR42      -0.1203
      2  CA        46.0960   41.8640  190.3760 C.3    42  THR42       0.1994
      3  C         45.7340   42.6840  191.6190 C.2    42  THR42       0.2618
      4  O         45.8960   42.2090  192.7320 O.2    42  THR42      -0.2717
      5  CB        47.3860   42.4220  189.7340 C.3    42  THR42       0.1784
      6  OG1       47.5860   41.8140  188.4490 O.3    42  THR42      -0.2211
      7  CG2       48.5870   42.1270  190.6220 C.3    42  THR42       0.0376
      8  N         45.2040   43.8880  191.4080 N.am   43  THR43      -0.1952
      9  CA        44.9110   44.8280  192.4880 C.3    43  THR43       0.1897
     10  C         43.5620   44.5940  193.1900 C.2    43  THR43       0.2313
     11  O         43.3720   45.0610  194.3070 O.2    43  THR43      -0.2863
     12  CB        44.9800   46.2960  191.9980 C.3    43  THR43       0.1794
     13  OG1       43.8790   46.5620  191.1210 O.3    43  THR43      -0.2208
     14  CG2       46.2890   46.5690  191.2680 C.3    43  THR43       0.0378
     15  N         45.3870   50.7650  197.9940 N.3    95  LEU95      -0.1231
     16  CA        46.5780   49.9280  198.1140 C.3    95  LEU95       0.1693
     17  C         47.5980   50.2320  197.0260 C.2    95  LEU95       0.2591
     18  O         48.8000   50.2690  197.3030 O.2    95  LEU95      -0.2718
     19  CB        46.2330   48.4350  198.1380 C.3    95  LEU95       0.0284
     20  CG        45.2730   47.9920  199.2540 C.3    95  LEU95       0.0019
     21  CD1       45.0780   46.4670  199.2450 C.3    95  LEU95       0.0001
     22  CD2       45.6980   48.4820  200.6670 C.3    95  LEU95       0.0001
     23  N         47.1240   50.4780  195.8000 N.am   96  VAL96      -0.1980
     24  CA        48.0360   50.8540  194.7090 C.3    96  VAL96       0.1595
     25  C         48.8400   52.1170  195.0200 C.2    96  VAL96       0.2287
     26  O         50.0740   52.1080  194.9410 O.2    96  VAL96      -0.2864
     27  CB        47.3260   50.9690  193.3380 C.3    96  VAL96       0.0276
     28  CG1       48.2540   51.5960  192.2980 C.3    96  VAL96       0.0022
     29  CG2       46.8720   49.5950  192.8680 C.3    96  VAL96       0.0022
     30  N         51.1300   51.7330  198.3530 N.3    99  ASP99      -0.1239
     31  CA        52.3720   50.9870  198.2130 C.3    99  ASP99       0.1674
     32  C         53.4730   51.8490  197.6210 C.2    99  ASP99       0.2266
     33  O         54.6250   51.7390  198.0350 O.2    99  ASP99      -0.2867
     34  CB        52.1670   49.6940  197.4130 C.3    99  ASP99       0.1410
     35  CG        51.4890   48.6130  198.2290 C.2    99  ASP99       0.3668
     36  OD1       51.5880   48.6500  199.4650 O.co2  99  ASP99      -0.2456
     37  OD2       50.8430   47.7250  197.6500 O.co2  99  ASP99      -0.2456
     38  N         52.7780   42.8790  197.9670 N.3   107  ARG107     -0.1231
     39  CA        51.3890   42.9610  198.3650 C.3   107  ARG107      0.1694
     40  C         50.7000   41.6770  197.9090 C.2   107  ARG107      0.2591
     41  O         50.7810   41.3030  196.7360 O.2   107  ARG107     -0.2718
     42  CB        50.7280   44.1950  197.7320 C.3   107  ARG107      0.0321
     43  CG        49.2050   44.2340  197.8150 C.3   107  ARG107      0.0489
     44  CD        48.7330   44.6570  199.2000 C.3   107  ARG107      0.2205
     45  NE        49.1830   46.0070  199.5240 N.pl3 107  ARG107     -0.0865
     46  CZ        49.0100   46.6010  200.7010 C.cat 107  ARG107      0.5346
     47  NH1       48.3830   45.9720  201.6950 N.pl3 107  ARG107      0.1354
     48  NH2       49.4700   47.8300  200.8840 N.pl3 107  ARG107      0.1354
     49  N         50.0470   41.0130  198.8640 N.am  108  ARG108     -0.1980
     50  CA        49.2730   39.7820  198.6500 C.3   108  ARG108      0.1597
     51  C         50.0620   38.6410  197.9660 C.2   108  ARG108      0.2287
     52  O         49.5190   37.8770  197.1690 O.2   108  ARG108     -0.2864
     53  CB        47.9310   40.0890  197.9600 C.3   108  ARG108      0.0334
     54  CG        47.2370   41.3430  198.5130 C.3   108  ARG108      0.0492
     55  CD        45.7220   41.2910  198.4560 C.3   108  ARG108      0.2205
     56  NE        45.1600   41.6310  197.1540 N.pl3 108  ARG108     -0.0865
     57  CZ        44.2520   42.5830  196.9290 C.cat 108  ARG108      0.5346
     58  NH1       43.7710   43.3320  197.9140 N.pl3 108  ARG108      0.1354
     59  NH2       43.8160   42.7810  195.6920 N.pl3 108  ARG108      0.1354
     60  N         54.6570   40.9910  193.7110 N.3   111  PRO111     -0.2102
     61  CA        55.1550   42.3540  193.8380 C.3   111  PRO111      0.1504
     62  C         54.0070   43.3560  193.8830 C.2   111  PRO111      0.2576
     63  O         52.9250   43.0980  193.3360 O.2   111  PRO111     -0.2718
     64  CB        55.9890   42.5540  192.5660 C.3   111  PRO111      0.0282
     65  CG        56.3910   41.1610  192.1560 C.3   111  PRO111      0.0208
     66  CD        55.2250   40.2970  192.5380 C.3   111  PRO111      0.0893
     67  N         54.2460   44.4760  194.5610 N.am  112  CYS112     -0.1957
     68  CA        53.3550   45.6160  194.5060 C.3   112  CYS112      0.1843
     69  C         53.2030   45.9750  193.0460 C.2   112  CYS112      0.2625
     70  O         54.1700   45.8690  192.2900 O.2   112  CYS112     -0.2714
     71  CB        53.9440   46.7970  195.2730 C.3   112  CYS112      0.0997
     72  SG        54.0140   46.5420  197.0410 S.3   112  CYS112     -0.0797
     73  N         51.9930   46.3970  192.6660 N.am  113  TRP113     -0.1960
     74  CA        51.6470   46.6720  191.2780 C.3   113  TRP113      0.1771
     75  C         52.6590   47.5770  190.6070 C.2   113  TRP113      0.2619
     76  O         53.0130   47.3460  189.4520 O.2   113  TRP113     -0.2715
     77  CB        50.2210   47.2510  191.1380 C.3   113  TRP113      0.0590
     78  CG        49.8560   47.5780  189.7010 C.ar  113  TRP113      0.0006
     79  CD1       49.6470   48.8170  189.1750 C.ar  113  TRP113      0.0946
     80  CD2       49.6820   46.6510  188.6170 C.ar  113  TRP113      0.0152
     81  NE1       49.3450   48.7250  187.8410 N.ar  113  TRP113     -0.2442
     82  CE2       49.3690   47.4060  187.4690 C.ar  113  TRP113      0.0810
     83  CE3       49.7660   45.2570  188.5060 C.ar  113  TRP113      0.0012
     84  CZ2       49.1370   46.8170  186.2200 C.ar  113  TRP113      0.0191
     85  CZ3       49.5300   44.6660  187.2550 C.ar  113  TRP113      0.0001
     86  CH2       49.2130   45.4500  186.1350 C.ar  113  TRP113      0.0015
     87  N         53.1310   48.5880  191.3340 N.am  114  TYR114     -0.1974
     88  CA        54.0290   49.5800  190.7670 C.3   114  TYR114      0.1639
     89  C         55.4270   49.0080  190.5230 C.2   114  TYR114      0.2290
     90  O         56.2600   49.6450  189.8760 O.2   114  TYR114     -0.2864
     91  CB        54.0840   50.8370  191.6460 C.3   114  TYR114      0.0560
     92  CG        55.0460   50.7730  192.8170 C.ar  114  TYR114     -0.0198
     93  CD1       54.6670   50.2010  194.0370 C.ar  114  TYR114     -0.0009
     94  CD2       56.3350   51.3010  192.7090 C.ar  114  TYR114     -0.0009
     95  CE1       55.5580   50.1470  195.1140 C.ar  114  TYR114      0.0417
     96  CE2       57.2250   51.2470  193.7720 C.ar  114  TYR114      0.0417
     97  CZ        56.8320   50.6770  194.9690 C.ar  114  TYR114      0.1957
     98  OH        57.7290   50.6280  196.0090 O.3   114  TYR114     -0.2866
@<TRIPOS>BOND
     1    86    84   ar
     2    86    85   ar
     3    84    82   ar
     4    85    83   ar
     5    82    81   ar
     6    82    80   ar
     7    81    79   ar
     8     6     5    1
     9    83    80   ar
    10    80    78   ar
    11    79    78   ar
    12     1     2    1
    13    76    75    2
    14    78    77    1
    15     5     2    1
    16     5     7    1
    17    90    89    2
    18     2     3    1
    19    89    88    1
    20    75    74    1
    21    75    87   am
    22    88    87    1
    23    88    91    1
    24    13    12    1
    25    77    74    1
    26    14    12    1
    27    74    73    1
    28     8     3   am
    29     8     9    1
    30     3     4    2
    31    91    92    1
    32    12     9    1
    33    65    66    1
    34    65    64    1
    35    70    69    2
    36    28    27    1
    37     9    10    1
    38    66    60    1
    39    64    61    1
    40    73    69   am
    41    94    92   ar
    42    94    96   ar
    43    92    93   ar
    44    29    27    1
    45    69    68    1
    46    10    11    2
    47    63    62    2
    48    27    24    1
    49    60    61    1
    50    96    97   ar
    51    61    62    1
    52    62    67   am
    53    93    95   ar
    54    68    67    1
    55    68    71    1
    56    24    25    1
    57    24    23    1
    58    26    25    2
    59    97    95   ar
    60    97    98    1
    61    71    72    1
    62    59    57    1
    63    23    17   am
    64    41    40    2
    65    57    56    2
    66    57    58    1
    67    17    18    2
    68    17    16    1
    69    56    55    1
    70    52    51    2
    71    34    31    1
    72    34    35    1
    73    32    33    2
    74    32    31    1
    75    37    35   ar
    76    42    43    1
    77    42    39    1
    78    43    44    1
    79    40    39    1
    80    40    49   am
    81    53    54    1
    82    53    50    1
    83    51    50    1
    84    38    39    1
    85    15    16    1
    86    16    19    1
    87    19    20    1
    88    31    30    1
    89    35    36   ar
    90    55    54    1
    91    50    49    1
    92    44    45    1
    93    21    20    1
    94    20    22    1
    95    45    46    2
    96    46    48    1
    97    46    47    1
