@<TRIPOS>MOLECULE
tmp/4dxjC02.pdb
 88 82 0 0 0
SMALL
GASTEIGER

@<TRIPOS>ATOM
      1  N         30.4750    3.1120  185.5940 N.3   155  LEU155     -0.1245
      2  CA        31.3160    3.8150  184.6290 C.3   155  LEU155      0.1561
      3  C         32.7450    4.0330  185.1420 C.2   155  LEU155      0.2260
      4  O         33.7070    3.7630  184.4280 O.2   155  LEU155     -0.2867
      5  CB        30.6950    5.1370  184.1740 C.3   155  LEU155      0.0270
      6  CG        31.5390    5.8020  183.0750 C.3   155  LEU155      0.0019
      7  CD1       31.6370    4.9190  181.8020 C.3   155  LEU155      0.0001
      8  CD2       31.0300    7.1570  182.7460 C.3   155  LEU155      0.0001
      9  N         34.7500    0.7670  184.8890 N.3   158  LYS158     -0.1231
     10  CA        35.1430    0.5380  183.4820 C.3   158  LYS158      0.1693
     11  C         36.3240    1.4100  183.0490 C.2   158  LYS158      0.2591
     12  O         37.3210    0.9140  182.5220 O.2   158  LYS158     -0.2718
     13  CB        33.9630    0.7880  182.5450 C.3   158  LYS158      0.0285
     14  CG        33.3130   -0.4740  181.9980 C.3   158  LYS158      0.0035
     15  CD        32.1510   -0.9590  182.8300 C.3   158  LYS158      0.0206
     16  CE        31.4970   -2.1870  182.1700 C.3   158  LYS158      0.1093
     17  NZ        32.4710   -3.3110  181.8570 N.3   158  LYS158     -0.1314
     18  N         36.1910    2.7090  183.2980 N.am  159  VAL159     -0.1980
     19  CA        37.2090    3.6940  182.9980 C.3   159  VAL159      0.1595
     20  C         38.5250    3.3640  183.6890 C.2   159  VAL159      0.2287
     21  O         39.5860    3.4320  183.0770 O.2   159  VAL159     -0.2864
     22  CB        36.7320    5.0990  183.4070 C.3   159  VAL159      0.0276
     23  CG1       37.9150    6.0620  183.5600 C.3   159  VAL159      0.0022
     24  CG2       35.7380    5.6330  182.3870 C.3   159  VAL159      0.0022
     25  N         40.0100    7.5900  178.2880 N.3   210  PHE210     -0.1241
     26  CA        38.8200    7.2640  179.0770 C.3   210  PHE210      0.1605
     27  C         38.7320    8.1190  180.3300 C.2   210  PHE210      0.2264
     28  O         37.6590    8.6100  180.6700 O.2   210  PHE210     -0.2867
     29  CB        38.7640    5.7870  179.4570 C.3   210  PHE210      0.0534
     30  CG        38.4620    4.8710  178.3160 C.ar  210  PHE210     -0.0203
     31  CD1       39.4790    4.4140  177.4860 C.ar  210  PHE210     -0.0042
     32  CD2       37.1660    4.4290  178.0900 C.ar  210  PHE210     -0.0042
     33  CE1       39.2100    3.5570  176.4290 C.ar  210  PHE210     -0.0003
     34  CE2       36.8900    3.5660  177.0350 C.ar  210  PHE210     -0.0003
     35  CZ        37.9160    3.1310  176.2000 C.ar  210  PHE210     -0.0000
     36  N         36.3840   11.0900  178.5780 N.3   214  LEU214     -0.1245
     37  CA        35.0830   10.4380  178.6830 C.3   214  LEU214      0.1561
     38  C         34.5120   10.5950  180.0830 C.2   214  LEU214      0.2260
     39  O         33.3750   11.0760  180.2530 O.2   214  LEU214     -0.2867
     40  CB        35.1260    8.9580  178.2800 C.3   214  LEU214      0.0270
     41  CG        33.7510    8.2770  178.3270 C.3   214  LEU214      0.0019
     42  CD1       32.9200    8.6080  177.0840 C.3   214  LEU214      0.0001
     43  CD2       33.8750    6.7730  178.4920 C.3   214  LEU214      0.0001
     44  N         31.0240   12.4630  180.9480 N.3   218  VAL218     -0.1245
     45  CA        29.8820   11.6380  181.3660 C.3   218  VAL218      0.1561
     46  C         29.5110   11.9300  182.8170 C.2   218  VAL218      0.2260
     47  O         28.3310   11.9810  183.1510 O.2   218  VAL218     -0.2867
     48  CB        30.1060   10.1190  181.1170 C.3   218  VAL218      0.0252
     49  CG1       28.8610    9.3230  181.5030 C.3   218  VAL218      0.0019
     50  CG2       30.4170    9.8710  179.6590 C.3   218  VAL218      0.0019
     51  N         25.9540   12.8550  184.3510 N.3   222  PHE222     -0.1241
     52  CA        25.3750   12.1300  185.4780 C.3   222  PHE222      0.1605
     53  C         24.8250   13.0450  186.5480 C.2   222  PHE222      0.2264
     54  O         23.7000   12.8610  187.0090 O.2   222  PHE222     -0.2867
     55  CB        26.3820   11.1610  186.1020 C.3   222  PHE222      0.0534
     56  CG        26.5170    9.8520  185.3610 C.ar  222  PHE222     -0.0203
     57  CD1       27.6140    9.0280  185.5840 C.ar  222  PHE222     -0.0042
     58  CD2       25.5510    9.4460  184.4360 C.ar  222  PHE222     -0.0042
     59  CE1       27.7490    7.8130  184.9040 C.ar  222  PHE222     -0.0003
     60  CE2       25.6770    8.2270  183.7440 C.ar  222  PHE222     -0.0003
     61  CZ        26.7800    7.4130  183.9790 C.ar  222  PHE222     -0.0000
     62  N         25.2310    9.0130  173.3080 N.3   232  MET232     -0.1245
     63  CA        26.4430    8.5940  174.0400 C.3   232  MET232      0.1570
     64  C         27.5880    8.1320  173.1280 C.2   232  MET232      0.2261
     65  O         28.7670    8.3290  173.4560 O.2   232  MET232     -0.2867
     66  CB        26.1150    7.5410  175.1160 C.3   232  MET232      0.0387
     67  CG        27.2290    7.2880  176.1560 C.3   232  MET232      0.0595
     68  SD        27.7800    8.7220  177.1310 S.3   232  MET232     -0.1393
     69  CE        26.3540    8.9740  178.1910 C.3   232  MET232      0.0692
     70  N         31.4710    9.4040  173.3410 N.3   236  GLU236     -0.1245
     71  CA        32.6010    8.4670  173.2720 C.3   236  GLU236      0.1567
     72  C         33.5630    8.8160  172.1480 C.2   236  GLU236      0.2260
     73  O         34.7810    8.9420  172.3750 O.2   236  GLU236     -0.2867
     74  CB        32.1320    7.0190  173.1030 C.3   236  GLU236      0.0388
     75  CG        31.4660    6.4150  174.3370 C.3   236  GLU236      0.1160
     76  CD        30.7230    5.1100  174.0530 C.2   236  GLU236      0.3649
     77  OE1       30.8100    4.5720  172.9290 O.co2 236  GLU236     -0.2457
     78  OE2       30.0380    4.6140  174.9620 O.co2 236  GLU236     -0.2457
     79  N         37.5480   10.1720  172.6330 N.3   240  HIS240     -0.1241
     80  CA        38.7330    9.4190  172.2200 C.3   240  HIS240      0.1621
     81  C         39.5390   10.2130  171.2220 C.2   240  HIS240      0.2264
     82  O         40.7660   10.1560  171.2170 O.2   240  HIS240     -0.2867
     83  CB        38.3670    8.0350  171.6650 C.3   240  HIS240      0.0745
     84  CG        37.6580    7.1610  172.6580 C.ar  240  HIS240      0.0817
     85  ND1       38.1840    6.8670  173.8990 N.ar  240  HIS240     -0.2268
     86  CD2       36.4590    6.5330  172.6000 C.ar  240  HIS240      0.1154
     87  CE1       37.3400    6.1000  174.5630 C.ar  240  HIS240      0.1986
     88  NE2       36.2830    5.8840  173.8000 N.ar  240  HIS240     -0.2212
@<TRIPOS>BOND
     1    82    81    2
     2    81    80    1
     3    83    80    1
     4    83    84    1
     5    72    73    2
     6    72    71    1
     7    80    79    1
     8    86    84   ar
     9    86    88   ar
    10    84    85   ar
    11    77    76   ar
    12    74    71    1
    13    74    75    1
    14    64    65    2
    15    64    63    1
    16    71    70    1
    17    62    63    1
    18    88    87   ar
    19    85    87   ar
    20    63    66    1
    21    76    75    1
    22    76    78   ar
    23    66    67    1
    24    67    68    1
    25    35    33   ar
    26    35    34   ar
    27    33    31   ar
    28    34    32   ar
    29    42    41    1
    30    68    69    1
    31    31    30   ar
    32    32    30   ar
    33    40    41    1
    34    40    37    1
    35    25    26    1
    36    30    29    1
    37    41    43    1
    38    36    37    1
    39    37    38    1
    40    26    29    1
    41    26    27    1
    42    50    48    1
    43    38    39    2
    44    27    28    2
    45    44    45    1
    46    48    45    1
    47    48    49    1
    48    45    46    1
    49     7     6    1
    50    17    16    1
    51    14    13    1
    52    14    15    1
    53    16    15    1
    54    24    22    1
    55    12    11    2
    56    13    10    1
    57     8     6    1
    58    46    47    2
    59    19    18    1
    60    19    22    1
    61    19    20    1
    62    11    18   am
    63    11    10    1
    64     6     5    1
    65    21    20    2
    66    22    23    1
    67    10     9    1
    68    60    61   ar
    69    60    58   ar
    70    61    59   ar
    71     5     2    1
    72    51    52    1
    73     4     3    2
    74    58    56   ar
    75     2     3    1
    76     2     1    1
    77    59    57   ar
    78    56    57   ar
    79    56    55    1
    80    52    55    1
    81    52    53    1
    82    53    54    2
