@<TRIPOS>MOLECULE
tmp/4dxjA00.pdb
 181 166 0 0 0
SMALL
GASTEIGER

@<TRIPOS>ATOM
      1  N         39.4710   49.9590  197.7360 N.3    91  GLN91      -0.1245
      2  CA        40.6700   49.5460  198.4260 C.3    91  GLN91       0.1566
      3  C         41.7810   49.2520  197.4390 C.2    91  GLN91       0.2260
      4  O         42.9210   49.6430  197.6770 O.2    91  GLN91      -0.2867
      5  CB        40.4230   48.3510  199.3210 C.3    91  GLN91       0.0367
      6  CG        41.3700   48.3610  200.5150 C.3    91  GLN91       0.0905
      7  CD        41.8020   46.9930  200.8980 C.2    91  GLN91       0.2608
      8  OE1       41.1670   46.0040  200.5370 O.2    91  GLN91      -0.2717
      9  NE2       42.8880   46.9120  201.6400 N.am   91  GLN91      -0.0878
     10  N         43.3030   52.4170  196.8570 N.3    94  TYR94      -0.1227
     11  CA        44.1160   52.8560  197.9930 C.3    94  TYR94       0.1736
     12  C         45.4360   52.0990  198.1030 C.2    94  TYR94       0.2595
     13  O         46.4800   52.7270  198.2360 O.2    94  TYR94      -0.2718
     14  CB        43.3050   52.9070  199.3200 C.3    94  TYR94       0.0548
     15  CG        42.5450   54.2140  199.3840 C.ar   94  TYR94      -0.0200
     16  CD1       41.1510   54.2660  199.4280 C.ar   94  TYR94      -0.0009
     17  CD2       43.2430   55.4150  199.3000 C.ar   94  TYR94      -0.0009
     18  CE1       40.4850   55.5140  199.4130 C.ar   94  TYR94       0.0417
     19  CE2       42.6070   56.6280  199.2920 C.ar   94  TYR94       0.0417
     20  CZ        41.2420   56.6890  199.3440 C.ar   94  TYR94       0.1957
     21  OH        40.6910   57.9700  199.3290 O.3    94  TYR94      -0.2866
     22  N         45.3870   50.7650  197.9940 N.am   95  LEU95      -0.1980
     23  CA        46.5780   49.9280  198.1140 C.3    95  LEU95       0.1596
     24  C         47.5980   50.2320  197.0260 C.2    95  LEU95       0.2287
     25  O         48.8000   50.2690  197.3030 O.2    95  LEU95      -0.2864
     26  CB        46.2330   48.4350  198.1380 C.3    95  LEU95       0.0297
     27  CG        45.2730   47.9920  199.2540 C.3    95  LEU95       0.0022
     28  CD1       45.0780   46.4670  199.2450 C.3    95  LEU95       0.0001
     29  CD2       45.6980   48.4820  200.6670 C.3    95  LEU95       0.0001
     30  N         49.0600   53.6090  197.9650 N.3    98  ASP98      -0.1225
     31  CA        49.6800   53.4640  199.2740 C.3    98  ASP98       0.1805
     32  C         51.0330   52.7490  199.2110 C.2    98  ASP98       0.2597
     33  O         51.9760   53.1250  199.9330 O.2    98  ASP98      -0.2718
     34  CB        48.7380   52.7490  200.2450 C.3    98  ASP98       0.1424
     35  CG        49.3590   52.5410  201.6040 C.2    98  ASP98       0.3668
     36  OD1       49.2740   53.4630  202.4400 O.co2  98  ASP98      -0.2456
     37  OD2       49.9350   51.4520  201.8500 O.co2  98  ASP98      -0.2456
     38  N         51.1300   51.7330  198.3530 N.am   99  ASP99      -0.1974
     39  CA        52.3720   50.9870  198.2130 C.3    99  ASP99       0.1709
     40  C         53.4730   51.8490  197.6210 C.2    99  ASP99       0.2293
     41  O         54.6250   51.7390  198.0350 O.2    99  ASP99      -0.2864
     42  CB        52.1670   49.6940  197.4130 C.3    99  ASP99       0.1436
     43  CG        51.4890   48.6130  198.2290 C.2    99  ASP99       0.3671
     44  OD1       51.5880   48.6500  199.4650 O.co2  99  ASP99      -0.2456
     45  OD2       50.8430   47.7250  197.6500 O.co2  99  ASP99      -0.2456
     46  N         54.3550   54.3960  200.4180 N.3   102  ASP102     -0.1239
     47  CA        55.1030   53.8040  201.5200 C.3   102  ASP102      0.1674
     48  C         56.3820   53.0990  201.0490 C.2   102  ASP102      0.2266
     49  O         57.1040   52.5280  201.8580 O.2   102  ASP102     -0.2867
     50  CB        54.2140   52.8480  202.3210 C.3   102  ASP102      0.1410
     51  CG        53.0100   53.5450  202.9500 C.2   102  ASP102      0.3668
     52  OD1       52.9440   54.7970  202.9140 O.co2 102  ASP102     -0.2456
     53  OD2       52.1250   52.8430  203.5030 O.co2 102  ASP102     -0.2456
     54  N         56.7440   50.3020  199.3760 N.3   104  SER104     -0.1217
     55  CA        56.6350   48.8660  199.6710 C.3   104  SER104      0.1889
     56  C         57.0470   47.9930  198.4780 C.2   104  SER104      0.2288
     57  O         57.1180   48.4720  197.3410 O.2   104  SER104     -0.2866
     58  CB        55.2070   48.5100  200.1000 C.3   104  SER104      0.2089
     59  OG        54.8670   49.1120  201.3350 O.3   104  SER104     -0.2183
     60  N         52.7780   42.8790  197.9670 N.3   107  ARG107     -0.1245
     61  CA        51.3890   42.9610  198.3650 C.3   107  ARG107      0.1563
     62  C         50.7000   41.6770  197.9090 C.2   107  ARG107      0.2260
     63  O         50.7810   41.3030  196.7360 O.2   107  ARG107     -0.2867
     64  CB        50.7280   44.1950  197.7320 C.3   107  ARG107      0.0307
     65  CG        49.2050   44.2340  197.8150 C.3   107  ARG107      0.0489
     66  CD        48.7330   44.6570  199.2000 C.3   107  ARG107      0.2205
     67  NE        49.1830   46.0070  199.5240 N.pl3 107  ARG107     -0.0865
     68  CZ        49.0100   46.6010  200.7010 C.cat 107  ARG107      0.5346
     69  NH1       48.3830   45.9720  201.6950 N.pl3 107  ARG107      0.1354
     70  NH2       49.4700   47.8300  200.8840 N.pl3 107  ARG107      0.1354
     71  N         39.1120   59.0300  203.9890 N.3   163  THR163     -0.1218
     72  CA        40.2750   58.1720  203.7810 C.3   163  THR163      0.1862
     73  C         41.4630   58.9400  203.1600 C.2   163  THR163      0.2287
     74  O         42.6180   58.7220  203.5420 O.2   163  THR163     -0.2866
     75  CB        39.9140   56.9600  202.8920 C.3   163  THR163      0.1770
     76  OG1       38.7260   56.3390  203.3970 O.3   163  THR163     -0.2211
     77  CG2       41.0580   55.9460  202.8520 C.3   163  THR163      0.0375
     78  N         45.0040   59.4340  204.9840 N.3   167  GLN167     -0.1245
     79  CA        46.2590   59.0870  204.3370 C.3   167  GLN167      0.1566
     80  C         47.2530   60.2360  204.4670 C.2   167  GLN167      0.2260
     81  O         48.4610   60.0150  204.6190 O.2   167  GLN167     -0.2867
     82  CB        46.0440   58.7160  202.8670 C.3   167  GLN167      0.0367
     83  CG        45.5140   57.2800  202.6210 C.3   167  GLN167      0.0905
     84  CD        46.4490   56.1850  203.1380 C.2   167  GLN167      0.2608
     85  OE1       46.5600   55.9670  204.3460 O.2   167  GLN167     -0.2717
     86  NE2       47.1130   55.4940  202.2260 N.am  167  GLN167     -0.0878
     87  N         48.4680   60.0610  207.9110 N.3   170  ASP170     -0.1239
     88  CA        49.4060   58.9450  207.9880 C.3   170  ASP170      0.1674
     89  C         50.7560   59.2900  207.3870 C.2   170  ASP170      0.2266
     90  O         51.7920   59.0810  208.0080 O.2   170  ASP170     -0.2867
     91  CB        48.8580   57.6740  207.3290 C.3   170  ASP170      0.1410
     92  CG        49.8900   56.5420  207.3030 C.2   170  ASP170      0.3668
     93  OD1       49.7650   55.5950  208.1100 O.co2 170  ASP170     -0.2456
     94  OD2       50.8430   56.6100  206.4900 O.co2 170  ASP170     -0.2456
     95  N         42.1530   57.0670  208.0220 N.3   207  LYS207     -0.1231
     96  CA        42.7840   56.2870  206.9540 C.3   207  LYS207      0.1693
     97  C         42.1200   54.9150  206.7590 C.2   207  LYS207      0.2592
     98  O         42.1200   54.3960  205.6440 O.2   207  LYS207     -0.2718
     99  CB        44.3100   56.1680  207.1190 C.3   207  LYS207      0.0285
    100  CG        44.7900   55.0330  207.9940 C.3   207  LYS207      0.0035
    101  CD        46.3250   54.9260  207.9880 C.3   207  LYS207      0.0206
    102  CE        46.8060   53.8960  209.0090 C.3   207  LYS207      0.1093
    103  NZ        48.2640   53.4990  208.8400 N.3   207  LYS207     -0.1314
    104  N         41.5170   54.3700  207.8190 N.am  208  THR208     -0.1953
    105  CA        41.1190   52.9720  207.8200 C.3   208  THR208      0.1897
    106  C         39.6460   52.6690  208.1300 C.2   208  THR208      0.2313
    107  O         38.9910   51.9590  207.3580 O.2   208  THR208     -0.2863
    108  CB        42.0190   52.1430  208.7690 C.3   208  THR208      0.1794
    109  OG1       43.3600   52.1410  208.2650 O.3   208  THR208     -0.2208
    110  CG2       41.5160   50.7000  208.8820 C.3   208  THR208      0.0378
    111  N         36.3290   53.3670  205.5050 N.3   211  TYR211     -0.1241
    112  CA        36.1640   52.5260  204.3230 C.3   211  TYR211      0.1605
    113  C         36.2500   51.0240  204.6230 C.2   211  TYR211      0.2264
    114  O         35.7450   50.2180  203.8380 O.2   211  TYR211     -0.2867
    115  CB        37.1310   52.9310  203.2070 C.3   211  TYR211      0.0534
    116  CG        38.4580   52.2140  203.2280 C.ar  211  TYR211     -0.0201
    117  CD1       38.6330   51.0170  202.5410 C.ar  211  TYR211     -0.0009
    118  CD2       39.5440   52.7410  203.9100 C.ar  211  TYR211     -0.0009
    119  CE1       39.8470   50.3610  202.5500 C.ar  211  TYR211      0.0417
    120  CE2       40.7710   52.0850  203.9180 C.ar  211  TYR211      0.0417
    121  CZ        40.9100   50.9000  203.2380 C.ar  211  TYR211      0.1957
    122  OH        42.1160   50.2490  203.2460 O.3   211  TYR211     -0.2866
    123  N         43.5180   48.0310  212.4840 N.3   247  GLN247     -0.1245
    124  CA        44.7680   48.7220  212.1570 C.3   247  GLN247      0.1566
    125  C         45.8860   48.4530  213.1630 C.2   247  GLN247      0.2260
    126  O         47.0620   48.3860  212.7890 O.2   247  GLN247     -0.2867
    127  CB        44.5120   50.2240  212.0640 C.3   247  GLN247      0.0367
    128  CG        45.6530   51.0090  211.4320 C.3   247  GLN247      0.0905
    129  CD        46.0030   50.5250  210.0330 C.2   247  GLN247      0.2608
    130  OE1       45.1300   50.3950  209.1670 O.2   247  GLN247     -0.2717
    131  NE2       47.2820   50.2690  209.8030 N.am  247  GLN247     -0.0878
    132  N         47.1620   45.2560  212.1080 N.3   250  ASP250     -0.1225
    133  CA        47.9690   45.5220  210.9210 C.3   250  ASP250      0.1805
    134  C         49.3780   46.0480  211.2550 C.2   250  ASP250      0.2597
    135  O         50.3720   45.6030  210.6600 O.2   250  ASP250     -0.2718
    136  CB        47.2590   46.5190  210.0110 C.3   250  ASP250      0.1424
    137  CG        48.0070   46.7400  208.7080 C.2   250  ASP250      0.3668
    138  OD1       47.9600   45.8480  207.8240 O.co2 250  ASP250     -0.2456
    139  OD2       48.6690   47.7880  208.5750 O.co2 250  ASP250     -0.2456
    140  N         49.4340   47.0090  212.1880 N.am  251  ASP251     -0.1974
    141  CA        50.6770   47.6040  212.6790 C.3   251  ASP251      0.1709
    142  C         51.5600   46.5790  213.3770 C.2   251  ASP251      0.2293
    143  O         52.7820   46.5450  213.1570 O.2   251  ASP251     -0.2864
    144  CB        50.3710   48.7360  213.6590 C.3   251  ASP251      0.1436
    145  CG        49.8390   49.9820  212.9800 C.2   251  ASP251      0.3671
    146  OD1       49.6510   49.9900  211.7400 O.co2 251  ASP251     -0.2456
    147  OD2       49.6220   50.9730  213.6990 O.co2 251  ASP251     -0.2456
    148  N         52.8430   44.0470  210.7510 N.3   254  ASP254     -0.1239
    149  CA        53.8700   44.6990  209.9380 C.3   254  ASP254      0.1674
    150  C         55.2710   44.3980  210.4550 C.2   254  ASP254      0.2266
    151  O         56.2140   44.2850  209.6840 O.2   254  ASP254     -0.2867
    152  CB        53.6780   46.2140  209.9390 C.3   254  ASP254      0.1410
    153  CG        54.5610   46.9120  208.9180 C.2   254  ASP254      0.3668
    154  OD1       54.1760   46.9270  207.7290 O.co2 254  ASP254     -0.2456
    155  OD2       55.6330   47.4430  209.2980 O.co2 254  ASP254     -0.2456
    156  N         52.8440   40.6080  202.6330 N.3   264  LYS264     -0.1245
    157  CA        53.4870   41.8980  202.3800 C.3   264  LYS264      0.1561
    158  C         54.7680   42.0250  203.2040 C.2   264  LYS264      0.2260
    159  O         54.9780   41.2480  204.1280 O.2   264  LYS264     -0.2867
    160  CB        52.5170   43.0620  202.6310 C.3   264  LYS264      0.0271
    161  CG        51.6980   42.9580  203.9020 C.3   264  LYS264      0.0035
    162  CD        50.6240   44.0370  203.9250 C.3   264  LYS264      0.0206
    163  CE        50.1810   44.3390  205.3450 C.3   264  LYS264      0.1093
    164  NZ        48.9570   45.1860  205.3680 N.3   264  LYS264     -0.1314
    165  N         56.9580   49.9360  208.2040 N.3   268  ASP268     -0.1239
    166  CA        56.5550   50.9220  209.2110 C.3   268  ASP268      0.1674
    167  C         57.7400   51.5470  209.9460 C.2   268  ASP268      0.2266
    168  O         57.7930   52.7720  210.1090 O.2   268  ASP268     -0.2867
    169  CB        55.5220   50.3510  210.1950 C.3   268  ASP268      0.1410
    170  CG        54.1090   50.3190  209.6170 C.2   268  ASP268      0.3668
    171  OD1       53.8720   50.8920  208.5340 O.co2 268  ASP268     -0.2456
    172  OD2       53.2220   49.7130  210.2510 O.co2 268  ASP268     -0.2456
    173  N         56.8050   55.5710  210.6310 N.3   273  LYS273     -0.1245
    174  CA        55.3580   55.6630  210.7960 C.3   273  LYS273      0.1561
    175  C         54.9390   55.7570  212.2560 C.2   273  LYS273      0.2260
    176  O         55.5250   55.1230  213.1290 O.2   273  LYS273     -0.2867
    177  CB        54.6650   54.4580  210.1440 C.3   273  LYS273      0.0271
    178  CG        54.6650   54.4830  208.6190 C.3   273  LYS273      0.0035
    179  CD        53.6950   55.5330  208.0740 C.3   273  LYS273      0.0206
    180  CE        54.1170   56.0210  206.7040 C.3   273  LYS273      0.1093
    181  NZ        54.0500   54.9610  205.6760 N.3   273  LYS273     -0.1314
@<TRIPOS>BOND
     1    63    62    2
     2    10    11    1
     3    24    25    2
     4    24    23    1
     5    57    56    2
     6    42    39    1
     7    42    43    1
     8     3     4    2
     9     3     2    1
    10    40    41    2
    11    40    39    1
    12    45    43   ar
    13    64    65    1
    14    64    61    1
    15     1     2    1
    16    65    66    1
    17    62    61    1
    18    30    31    1
    19    60    61    1
    20    11    12    1
    21    11    14    1
    22    22    12   am
    23    22    23    1
    24    12    13    2
    25    23    26    1
    26    26    27    1
    27    39    38    1
    28    43    44   ar
    29    38    32   am
    30     2     5    1
    31    56    55    1
    32    66    67    1
    33    32    31    1
    34    32    33    2
    35    28    27    1
    36    27    29    1
    37    31    34    1
    38    19    17   ar
    39    19    20   ar
    40    17    15   ar
    41    14    15    1
    42     5     6    1
    43    21    20    1
    44    20    18   ar
    45    54    55    1
    46    15    16   ar
    47    18    16   ar
    48    67    68    2
    49    55    58    1
    50    58    59    1
    51    34    35    1
    52    46    47    1
    53     6     7    1
    54     8     7    2
    55    68    70    1
    56    68    69    1
    57     7     9   am
    58    48    47    1
    59    48    49    2
    60    47    50    1
    61    35    37   ar
    62    35    36   ar
    63    86    84   am
    64    50    51    1
    65   157   160    1
    66   157   156    1
    67   157   158    1
    68   117   119   ar
    69   117   116   ar
    70   119   121   ar
    71    83    82    1
    72    83    84    1
    73   160   161    1
    74    77    75    1
    75    82    79    1
    76    75    76    1
    77    75    72    1
    78    52    51   ar
    79    51    53   ar
    80    84    85    2
    81    73    74    2
    82    73    72    1
    83   158   159    2
    84   115   116    1
    85   115   112    1
    86   116   118   ar
    87   121   122    1
    88   121   120   ar
    89    72    71    1
    90   114   113    2
    91   161   162    1
    92   118   120   ar
    93   162   163    1
    94   112   113    1
    95   112   111    1
    96    79    80    1
    97    79    78    1
    98    80    81    2
    99   163   164    1
   100    98    97    2
   101   181   180    1
   102    94    92   ar
   103   180   179    1
   104    97    96    1
   105    97   104   am
   106    96    99    1
   107    96    95    1
   108    99   100    1
   109    92    91    1
   110    92    93   ar
   111    91    88    1
   112   107   106    2
   113    89    88    1
   114    89    90    2
   115   154   153   ar
   116   104   105    1
   117   105   106    1
   118   105   108    1
   119   138   137   ar
   120    87    88    1
   121   101   100    1
   122   101   102    1
   123   179   178    1
   124   165   166    1
   125   109   108    1
   126   171   170   ar
   127   139   137   ar
   128   178   177    1
   129   137   136    1
   130   108   110    1
   131   103   102    1
   132   153   155   ar
   133   153   152    1
   134   130   129    2
   135   166   167    1
   136   166   169    1
   137   170   169    1
   138   170   172   ar
   139   151   150    2
   140   131   129   am
   141   149   152    1
   142   149   150    1
   143   149   148    1
   144   167   168    2
   145   136   133    1
   146   129   128    1
   147   177   174    1
   148   173   174    1
   149   135   134    2
   150   174   175    1
   151   133   134    1
   152   133   132    1
   153   134   140   am
   154   128   127    1
   155   146   145   ar
   156   127   124    1
   157   124   123    1
   158   124   125    1
   159   140   141    1
   160   175   176    2
   161   141   142    1
   162   141   144    1
   163   126   125    2
   164   145   144    1
   165   145   147   ar
   166   143   142    2
