@<TRIPOS>MOLECULE
tmp/4dxlA00.pdb
 96 94 0 0 0
SMALL
GASTEIGER

@<TRIPOS>ATOM
      1  N        -26.9480   10.2500   -6.9780 N.3    31  GLY31      -0.1210
      2  CA       -26.6960   11.6710   -7.3380 C.3    31  GLY31       0.1956
      3  C        -25.2980   11.9700   -7.9150 C.2    31  GLY31       0.2612
      4  O        -24.9820   13.1220   -8.2610 O.2    31  GLY31      -0.2717
      5  N        -24.4600   10.9350   -8.0020 N.am   32  TYR32      -0.1962
      6  CA       -23.0830   11.0580   -8.5160 C.3    32  TYR32       0.1771
      7  C        -23.0330   10.5520   -9.9460 C.2    32  TYR32       0.2619
      8  O        -23.9610    9.8740  -10.4080 O.2    32  TYR32      -0.2715
      9  CB       -22.1040   10.2620   -7.6560 C.3    32  TYR32       0.0574
     10  CG       -21.8340   10.9050   -6.3230 C.ar   32  TYR32      -0.0198
     11  CD1      -20.7610   11.7510   -6.1510 C.ar   32  TYR32      -0.0009
     12  CD2      -22.6820   10.6850   -5.2340 C.ar   32  TYR32      -0.0009
     13  CE1      -20.5120   12.3560   -4.9260 C.ar   32  TYR32       0.0417
     14  CE2      -22.4460   11.2780   -3.9990 C.ar   32  TYR32       0.0417
     15  CZ       -21.3660   12.1310   -3.8560 C.ar   32  TYR32       0.1957
     16  OH       -21.1320   12.7390   -2.6400 O.3    32  TYR32      -0.2866
     17  N        -21.9550   10.8840  -10.6480 N.am   33  HIS33      -0.1973
     18  CA       -21.7390   10.3660  -11.9920 C.3    33  HIS33       0.1656
     19  C        -20.7920    9.2180  -11.9310 C.2    33  HIS33       0.2291
     20  O        -19.8070    9.2360  -11.1640 O.2    33  HIS33      -0.2864
     21  CB       -21.1670   11.4390  -12.9100 C.3    33  HIS33       0.0771
     22  CG       -22.0980   12.5890  -13.1420 C.ar   33  HIS33       0.0820
     23  ND1      -22.4230   13.4660  -12.1710 N.ar   33  HIS33      -0.2267
     24  CD2      -22.8010   12.9840  -14.2800 C.ar   33  HIS33       0.1154
     25  CE1      -23.2800   14.3770  -12.6620 C.ar   33  HIS33       0.1986
     26  NE2      -23.5290   14.0720  -13.9430 N.ar   33  HIS33      -0.2212
     27  N        -17.7030    7.4610  -13.3510 N.3    35  LEU35      -0.1245
     28  CA       -16.4820    7.9700  -13.9550 C.3    35  LEU35       0.1561
     29  C        -15.5950    6.8180  -14.3960 C.2    35  LEU35       0.2260
     30  O        -15.6840    5.7140  -13.8440 O.2    35  LEU35      -0.2867
     31  CB       -15.6740    8.7920  -12.9420 C.3    35  LEU35       0.0270
     32  CG       -16.3030   10.0250  -12.3020 C.3    35  LEU35       0.0019
     33  CD1      -15.2130   10.8420  -11.6150 C.3    35  LEU35       0.0001
     34  CD2      -17.0250   10.8620  -13.3520 C.3    35  LEU35       0.0001
     35  N        -15.4710   10.5590    2.6960 N.3   141  LEU141     -0.1231
     36  CA       -15.2590   11.9940    2.7850 C.3   141  LEU141      0.1693
     37  C        -15.4820   12.6830    1.4510 C.2   141  LEU141      0.2593
     38  O        -16.0310   13.7900    1.4100 O.2   141  LEU141     -0.2718
     39  CB       -13.8840   12.3070    3.3470 C.3   141  LEU141      0.0284
     40  CG       -13.7080   12.0000    4.8320 C.3   141  LEU141      0.0019
     41  CD1      -12.2350   11.8890    5.2200 C.3   141  LEU141      0.0001
     42  CD2      -14.4570   13.0630    5.6490 C.3   141  LEU141      0.0001
     43  N        -15.0920   12.0340    0.3590 N.am  142  GLY142     -0.1942
     44  CA       -15.3340   12.5780   -0.9830 C.3   142  GLY142      0.2014
     45  C        -14.6410   11.7190   -2.0310 C.2   142  GLY142      0.2640
     46  O        -13.6960   11.0130   -1.7030 O.2   142  GLY142     -0.2714
     47  N        -15.0860   11.8330   -3.2810 N.am  143  SER143     -0.1935
     48  CA       -14.6290   10.9980   -4.4290 C.3   143  SER143      0.2055
     49  C        -13.1470   11.0640   -4.7420 C.2   143  SER143      0.2643
     50  O        -12.5960   10.1070   -5.2780 O.2   143  SER143     -0.2714
     51  CB       -15.2990   11.4490   -5.7230 C.3   143  SER143      0.2130
     52  OG       -16.6520   11.6300   -5.5800 O.3   143  SER143     -0.2179
     53  N        -12.5260   12.2080   -4.4630 N.am  144  ASP144     -0.1971
     54  CA       -11.1100   12.4020   -4.7990 C.3   144  ASP144      0.1709
     55  C        -10.2140   12.1140   -3.5900 C.2   144  ASP144      0.2293
     56  O         -8.9870   12.1440   -3.7210 O.2   144  ASP144     -0.2864
     57  CB       -10.8480   13.8360   -5.2980 C.3   144  ASP144      0.1436
     58  CG       -11.4050   14.1060   -6.7080 C.2   144  ASP144      0.3671
     59  OD1      -11.5860   13.1780   -7.5190 O.co2 144  ASP144     -0.2456
     60  OD2      -11.6330   15.2800   -7.0090 O.co2 144  ASP144     -0.2456
     61  N        -17.5160    6.2790   -8.5840 N.3   159  ARG159     -0.1245
     62  CA       -17.4730    7.7610   -8.4620 C.3   159  ARG159      0.1563
     63  C        -16.0590    8.3330   -8.6550 C.2   159  ARG159      0.2260
     64  O        -15.8980    9.5500   -8.6470 O.2   159  ARG159     -0.2867
     65  CB       -17.9180    8.2590   -7.0530 C.3   159  ARG159      0.0307
     66  CG       -19.2500    7.7990   -6.4950 C.3   159  ARG159      0.0489
     67  CD       -19.4380    8.2320   -5.0240 C.3   159  ARG159      0.2205
     68  NE       -18.2310    8.0250   -4.1810 N.pl3 159  ARG159     -0.0865
     69  CZ       -17.6040    8.9530   -3.4190 C.cat 159  ARG159      0.5346
     70  NH1      -18.0530   10.2080   -3.3220 N.pl3 159  ARG159      0.1354
     71  NH2      -16.4870    8.6230   -2.7400 N.pl3 159  ARG159      0.1354
     72  N        -17.3360   22.3340   -8.1780 N.3   185  THR185     -0.1204
     73  CA       -17.3760   21.0380   -8.8480 C.3   185  THR185      0.1979
     74  C        -18.7830   20.5770   -9.2280 C.2   185  THR185      0.2459
     75  O        -18.9850   20.1360  -10.3690 O.2   185  THR185     -0.2732
     76  CB       -16.6660   19.9680   -8.0130 C.3   185  THR185      0.1783
     77  OG1      -15.2750   20.3150   -7.9410 O.3   185  THR185     -0.2211
     78  CG2      -16.8240   18.5530   -8.6370 C.3   185  THR185      0.0376
     79  N        -19.7470   20.6580   -8.2730 N.am  186  PRO186     -0.2728
     80  CA       -21.1160   20.3360   -8.6330 C.3   186  PRO186      0.1401
     81  C        -21.6770   21.1120   -9.8400 C.2   186  PRO186      0.2269
     82  O        -22.4130   20.5110  -10.6060 O.2   186  PRO186     -0.2865
     83  CB       -21.9190   20.6310   -7.3590 C.3   186  PRO186      0.0296
     84  CG       -21.0140   21.3640   -6.4400 C.3   186  PRO186      0.0237
     85  CD       -19.6160   21.0470   -6.8540 C.3   186  PRO186      0.0939
     86  N        -20.2540   19.4800  -13.1490 N.3   189  PHE189     -0.1241
     87  CA       -21.0210   18.2620  -13.4660 C.3   189  PHE189      0.1605
     88  C        -22.4440   18.5850  -13.9430 C.2   189  PHE189      0.2264
     89  O        -22.9330   17.9620  -14.8910 O.2   189  PHE189     -0.2867
     90  CB       -21.0620   17.3040  -12.2730 C.3   189  PHE189      0.0534
     91  CG       -19.8370   16.4400  -12.1460 C.ar  189  PHE189     -0.0203
     92  CD1      -19.6670   15.3240  -12.9610 C.ar  189  PHE189     -0.0042
     93  CD2      -18.8440   16.7400  -11.2050 C.ar  189  PHE189     -0.0042
     94  CE1      -18.5260   14.5170  -12.8340 C.ar  189  PHE189     -0.0003
     95  CE2      -17.7220   15.9340  -11.0850 C.ar  189  PHE189     -0.0003
     96  CZ       -17.5730   14.8290  -11.9040 C.ar  189  PHE189     -0.0000
@<TRIPOS>BOND
     1    89    88    2
     2    29    28    1
     3    29    30    2
     4    24    26   ar
     5    24    22   ar
     6    28    27    1
     7    28    31    1
     8    88    87    1
     9    26    25   ar
    10    87    86    1
    11    87    90    1
    12    34    32    1
    13    22    21    1
    14    22    23   ar
    15    92    94   ar
    16    92    91   ar
    17    31    32    1
    18    21    18    1
    19    94    96   ar
    20    25    23   ar
    21    32    33    1
    22    90    91    1
    23    91    93   ar
    24    18    19    1
    25    18    17    1
    26    19    20    2
    27    96    95   ar
    28    93    95   ar
    29    17     7   am
    30    82    81    2
    31     8     7    2
    32    75    74    2
    33     7     6    1
    34    81    80    1
    35    74    73    1
    36    74    79   am
    37    73    72    1
    38    73    76    1
    39    63    64    2
    40    63    62    1
    41    78    76    1
    42    80    79    1
    43    80    83    1
    44    61    62    1
    45     6     5    1
    46     6     9    1
    47    62    65    1
    48    79    85    1
    49     4     3    2
    50    76    77    1
    51     5     3   am
    52     3     2    1
    53     9    10    1
    54    59    58   ar
    55    83    84    1
    56     2     1    1
    57    65    66    1
    58    60    58   ar
    59    85    84    1
    60    58    57    1
    61    66    67    1
    62    10    11   ar
    63    10    12   ar
    64    11    13   ar
    65    51    52    1
    66    51    48    1
    67    57    54    1
    68    50    49    2
    69    12    14   ar
    70    67    68    1
    71    13    15   ar
    72    54    53    1
    73    54    55    1
    74    49    53   am
    75    49    48    1
    76    48    47    1
    77    68    69    2
    78    14    15   ar
    79    15    16    1
    80    56    55    2
    81    69    70    1
    82    69    71    1
    83    47    45   am
    84    45    46    2
    85    45    44    1
    86    44    43    1
    87    43    37   am
    88    38    37    2
    89    37    36    1
    90    35    36    1
    91    36    39    1
    92    39    40    1
    93    40    41    1
    94    40    42    1
