@<TRIPOS>MOLECULE
tmp/4dxlA01.pdb
 169 160 0 0 0
SMALL
GASTEIGER

@<TRIPOS>ATOM
      1  N         -3.7840   16.6310   -7.8350 N.3    17  LYS17      -0.1245
      2  CA        -3.9020   15.7640   -8.9830 C.3    17  LYS17       0.1561
      3  C         -4.2770   16.4980  -10.2590 C.2    17  LYS17       0.2260
      4  O         -4.8140   17.6260  -10.2300 O.2    17  LYS17      -0.2867
      5  CB        -4.9220   14.6730   -8.7220 C.3    17  LYS17       0.0271
      6  CG        -6.2990   15.1260   -8.3470 C.3    17  LYS17       0.0035
      7  CD        -7.1500   15.4930   -9.5330 C.3    17  LYS17       0.0206
      8  CE        -8.5970   15.7580   -9.1390 C.3    17  LYS17       0.1093
      9  NZ        -9.2730   16.4550  -10.2680 N.3    17  LYS17      -0.1314
     10  N         -9.1330   32.9440    2.8280 N.3    67  THR67      -0.1203
     11  CA       -10.3170   32.5720    2.0550 C.3    67  THR67       0.1994
     12  C        -10.9430   31.2770    2.5270 C.2    67  THR67       0.2618
     13  O        -12.1430   31.2030    2.7330 O.2    67  THR67      -0.2717
     14  CB        -9.8930   32.3600    0.5890 C.3    67  THR67       0.1784
     15  OG1       -9.6750   33.6290   -0.0260 O.3    67  THR67      -0.2211
     16  CG2      -10.9530   31.5430   -0.2120 C.3    67  THR67       0.0376
     17  N        -10.1230   30.2460    2.6350 N.am   68  VAL68      -0.1966
     18  CA       -10.5930   28.9260    3.0170 C.3    68  VAL68       0.1712
     19  C        -11.2330   28.8920    4.4340 C.2    68  VAL68       0.2458
     20  O        -10.5980   29.2920    5.4250 O.2    68  VAL68      -0.2730
     21  CB        -9.4470   27.8990    2.9000 C.3    68  VAL68       0.0289
     22  CG1       -9.8800   26.5280    3.3930 C.3    68  VAL68       0.0023
     23  CG2       -8.9680   27.8190    1.4510 C.3    68  VAL68       0.0023
     24  N        -12.4730   28.3770    4.5360 N.am   69  PRO69      -0.2727
     25  CA       -13.1120   28.2750    5.8880 C.3    69  PRO69       0.1402
     26  C        -12.3140   27.3830    6.8230 C.2    69  PRO69       0.2269
     27  O        -11.7480   26.3850    6.3670 O.2    69  PRO69      -0.2865
     28  CB       -14.4630   27.5870    5.6030 C.3    69  PRO69       0.0296
     29  CG       -14.6710   27.6850    4.1230 C.3    69  PRO69       0.0237
     30  CD       -13.3060   27.7520    3.4910 C.3    69  PRO69       0.0939
     31  N        -17.1640   23.6330    7.5640 N.3    73  ARG73      -0.1231
     32  CA       -17.0950   23.5610    6.0990 C.3    73  ARG73       0.1694
     33  C        -15.7920   22.9590    5.5780 C.2    73  ARG73       0.2592
     34  O        -15.7390   22.5410    4.4370 O.2    73  ARG73      -0.2718
     35  CB       -17.2350   24.9570    5.4670 C.3    73  ARG73       0.0321
     36  CG       -18.6220   25.5470    5.5990 C.3    73  ARG73       0.0489
     37  CD       -18.6280   27.0200    5.2660 C.3    73  ARG73       0.2205
     38  NE       -17.9560   27.8280    6.2900 N.pl3  73  ARG73      -0.0865
     39  CZ       -17.7730   29.1380    6.1850 C.cat  73  ARG73       0.5346
     40  NH1      -18.2310   29.7900    5.1100 N.pl3  73  ARG73       0.1354
     41  NH2      -17.1530   29.8170    7.1540 N.pl3  73  ARG73       0.1354
     42  N        -14.7220   22.9800    6.3730 N.am   74  ASN74      -0.1960
     43  CA       -13.4610   22.4500    5.8980 C.3    74  ASN74       0.1819
     44  C        -13.4860   20.8810    5.8360 C.2    74  ASN74       0.2621
     45  O        -13.9620   20.2410    6.7410 O.2    74  ASN74      -0.2715
     46  CB       -12.3170   22.9780    6.7600 C.3    74  ASN74       0.1195
     47  CG       -10.9800   22.8750    6.0630 C.2    74  ASN74       0.2630
     48  OD1      -10.5200   21.7740    5.7580 O.2    74  ASN74      -0.2716
     49  ND2      -10.3520   24.0220    5.8030 N.am   74  ASN74      -0.0877
     50  N        -13.0190   20.2920    4.7300 N.am   75  LEU75      -0.1977
     51  CA       -13.0480   18.8440    4.5620 C.3    75  LEU75       0.1596
     52  C        -12.1090   18.1880    5.5700 C.2    75  LEU75       0.2287
     53  O        -12.3330   17.0360    5.9520 O.2    75  LEU75      -0.2864
     54  CB       -12.7300   18.4180    3.1030 C.3    75  LEU75       0.0297
     55  CG       -13.0110   16.9450    2.7260 C.3    75  LEU75       0.0022
     56  CD1      -14.4760   16.5770    3.0400 C.3    75  LEU75       0.0001
     57  CD2      -12.6850   16.6170    1.2550 C.3    75  LEU75       0.0001
     58  N         -2.6390   23.7590    7.7520 N.3    97  ILE97      -0.1245
     59  CA        -2.5730   23.4530    6.2930 C.3    97  ILE97       0.1561
     60  C         -1.7720   24.5200    5.5750 C.2    97  ILE97       0.2260
     61  O         -2.1740   25.7130    5.5240 O.2    97  ILE97      -0.2867
     62  CB        -3.9790   23.3780    5.6890 C.3    97  ILE97       0.0252
     63  CG1       -4.8600   22.4700    6.5490 C.3    97  ILE97       0.0019
     64  CG2       -3.9170   22.8890    4.2190 C.3    97  ILE97       0.0019
     65  CD1       -6.3070   22.4180    6.1340 C.3    97  ILE97       0.0001
     66  N         -0.8490   25.3070    2.1040 N.3    99  LYS99      -0.1245
     67  CA        -1.4410   25.0000    0.7710 C.3    99  LYS99       0.1561
     68  C         -0.7030   25.5430   -0.4460 C.2    99  LYS99       0.2260
     69  O         -0.5480   26.7530   -0.6060 O.2    99  LYS99      -0.2867
     70  CB        -2.8640   25.5340    0.6710 C.3    99  LYS99       0.0271
     71  CG        -3.8950   24.7840    1.4860 C.3    99  LYS99       0.0035
     72  CD        -5.3390   25.1540    1.0990 C.3    99  LYS99       0.0206
     73  CE        -5.8730   24.4570   -0.1220 C.3    99  LYS99       0.1093
     74  NZ        -6.1130   22.9750   -0.0150 N.3    99  LYS99      -0.1314
     75  N         -4.2730   24.8880   -5.6100 N.3   102  PRO102     -0.2102
     76  CA        -5.2280   25.9960   -5.7620 C.3   102  PRO102      0.1504
     77  C         -6.6010   25.6870   -5.1900 C.2   102  PRO102      0.2576
     78  O         -7.0250   24.5400   -5.1920 O.2   102  PRO102     -0.2718
     79  CB        -5.3020   26.2240   -7.2590 C.3   102  PRO102      0.0282
     80  CG        -4.7040   25.0090   -7.8980 C.3   102  PRO102      0.0208
     81  CD        -3.7630   24.4010   -6.9090 C.3   102  PRO102      0.0893
     82  N         -7.2830   26.7140   -4.7230 N.am  103  VAL103     -0.1966
     83  CA        -8.6160   26.5410   -4.1390 C.3   103  VAL103      0.1727
     84  C         -9.6570   26.4550   -5.2600 C.2   103  VAL103      0.2616
     85  O         -9.6510   27.2730   -6.1530 O.2   103  VAL103     -0.2715
     86  CB        -8.9010   27.6930   -3.1530 C.3   103  VAL103      0.0290
     87  CG1      -10.2920   27.6040   -2.5390 C.3   103  VAL103      0.0023
     88  CG2       -7.8710   27.6990   -2.0220 C.3   103  VAL103      0.0023
     89  N        -10.5220   25.4440   -5.2300 N.am  104  ALA104     -0.1963
     90  CA       -11.6450   25.3450   -6.1870 C.3   104  ALA104      0.1728
     91  C        -11.1030   25.2940   -7.6430 C.2   104  ALA104      0.2617
     92  O        -11.6840   25.8500   -8.5750 O.2   104  ALA104     -0.2715
     93  CB       -12.6270   26.5370   -5.9890 C.3   104  ALA104      0.0334
     94  N         -9.9770   24.6050   -7.8040 N.am  105  GLY105     -0.1940
     95  CA        -9.1770   24.6680   -9.0280 C.3   105  GLY105      0.2014
     96  C         -9.1310   23.3840   -9.8410 C.2   105  GLY105      0.2639
     97  O         -8.5400   23.3850  -10.9090 O.2   105  GLY105     -0.2714
     98  N         -9.7640   22.3060   -9.3720 N.am  106  GLY106     -0.1939
     99  CA        -9.8140   21.0410  -10.1240 C.3   106  GLY106      0.2014
    100  C         -8.6490   20.1010   -9.8380 C.2   106  GLY106      0.2639
    101  O         -8.4730   19.0730  -10.4840 O.2   106  GLY106     -0.2714
    102  N         -7.8730   20.4380   -8.8270 N.am  107  MET107     -0.1963
    103  CA        -6.7290   19.6360   -8.4110 C.3   107  MET107      0.1736
    104  C         -6.9360   18.9460   -7.0360 C.2   107  MET107      0.2616
    105  O         -5.9900   18.3610   -6.4560 O.2   107  MET107     -0.2715
    106  CB        -5.4760   20.5560   -8.3960 C.3   107  MET107      0.0427
    107  CG        -5.0490   21.0520   -9.7820 C.3   107  MET107      0.0599
    108  SD        -3.4040   21.8680   -9.7850 S.3   107  MET107     -0.1393
    109  CE        -2.4350   20.3500   -9.7190 C.3   107  MET107      0.0692
    110  N         -8.1660   18.9870   -6.5360 N.am  108  ALA108     -0.1963
    111  CA        -8.5710   18.2660   -5.3160 C.3   108  ALA108      0.1728
    112  C         -7.6730   18.5960   -4.1120 C.2   108  ALA108      0.2617
    113  O         -7.0940   17.6900   -3.4640 O.2   108  ALA108     -0.2715
    114  CB        -8.6220   16.7310   -5.5810 C.3   108  ALA108      0.0334
    115  N         -7.5680   19.8950   -3.8050 N.am  109  GLY109     -0.1940
    116  CA        -6.7400   20.3720   -2.6980 C.3   109  GLY109      0.2014
    117  C         -7.3010   20.0940   -1.3250 C.2   109  GLY109      0.2639
    118  O         -6.5630   19.6730   -0.4080 O.2   109  GLY109     -0.2714
    119  N         -8.5960   20.2840   -1.1620 N.am  110  GLY110     -0.1939
    120  CA        -9.2710   19.9460    0.1010 C.3   110  GLY110      0.2014
    121  C         -9.2630   18.4520    0.3880 C.2   110  GLY110      0.2639
    122  O         -9.1860   18.0280    1.5660 O.2   110  GLY110     -0.2714
    123  N         -9.3290   17.6620   -0.6920 N.am  111  SER111     -0.1949
    124  CA        -9.2730   16.2230   -0.6260 C.3   111  SER111      0.1924
    125  C         -7.8590   15.7780   -0.2150 C.2   111  SER111      0.2314
    126  O         -7.6970   14.7930    0.4970 O.2   111  SER111     -0.2863
    127  CB        -9.6340   15.6240   -2.0000 C.3   111  SER111      0.2116
    128  OG       -11.0030   15.8890   -2.3490 O.3   111  SER111     -0.2180
    129  N         -5.9250   17.6460    1.6870 N.3   113  ASP113     -0.1239
    130  CA        -5.9210   18.0470    3.0850 C.3   113  ASP113      0.1674
    131  C         -6.5530   17.0250    4.0220 C.2   113  ASP113      0.2266
    132  O         -5.9890   16.7260    5.0970 O.2   113  ASP113     -0.2867
    133  CB        -6.5890   19.4110    3.2430 C.3   113  ASP113      0.1410
    134  CG        -5.8980   20.4830    2.4640 C.2   113  ASP113      0.3668
    135  OD1       -4.7590   20.2180    1.9670 O.co2 113  ASP113     -0.2456
    136  OD2       -6.5030   21.5920    2.3220 O.co2 113  ASP113     -0.2456
    137  N        -12.5260   12.2080   -4.4630 N.3   144  ASP144     -0.1239
    138  CA       -11.1100   12.4020   -4.7990 C.3   144  ASP144      0.1674
    139  C        -10.2140   12.1140   -3.5900 C.2   144  ASP144      0.2266
    140  O         -8.9870   12.1440   -3.7210 O.2   144  ASP144     -0.2867
    141  CB       -10.8480   13.8360   -5.2980 C.3   144  ASP144      0.1410
    142  CG       -11.4050   14.1060   -6.7080 C.2   144  ASP144      0.3668
    143  OD1      -11.5860   13.1780   -7.5190 O.co2 144  ASP144     -0.2456
    144  OD2      -11.6330   15.2800   -7.0090 O.co2 144  ASP144     -0.2456
    145  N        -14.0120   27.2980   -9.5980 N.3   183  LEU183     -0.1245
    146  CA       -15.2540   26.7210  -10.1150 C.3   183  LEU183      0.1561
    147  C        -15.7610   25.7570   -9.0730 C.2   183  LEU183      0.2260
    148  O        -14.9640   25.0590   -8.4930 O.2   183  LEU183     -0.2867
    149  CB       -14.9920   25.9530  -11.4310 C.3   183  LEU183      0.0270
    150  CG       -15.0670   26.7540  -12.7280 C.3   183  LEU183      0.0019
    151  CD1      -14.4530   26.0050  -13.9190 C.3   183  LEU183      0.0001
    152  CD2      -16.5350   27.1590  -12.9570 C.3   183  LEU183      0.0001
    153  N        -17.3360   22.3340   -8.1780 N.3   185  THR185     -0.1218
    154  CA       -17.3760   21.0380   -8.8480 C.3   185  THR185      0.1862
    155  C        -18.7830   20.5770   -9.2280 C.2   185  THR185      0.2287
    156  O        -18.9850   20.1360  -10.3690 O.2   185  THR185     -0.2866
    157  CB       -16.6660   19.9680   -8.0130 C.3   185  THR185      0.1770
    158  OG1      -15.2750   20.3150   -7.9410 O.3   185  THR185     -0.2211
    159  CG2      -16.8240   18.5530   -8.6370 C.3   185  THR185      0.0375
    160  N        -12.4550   19.4190  -12.7730 N.3   261  SER261     -0.1202
    161  CA       -13.5930   20.2880  -12.9720 C.3   261  SER261      0.2020
    162  C        -13.1120   21.7340  -13.2040 C.2   261  SER261      0.2619
    163  O        -13.9150   22.6300  -13.4230 O.2   261  SER261     -0.2717
    164  CB       -14.5460   20.1890  -11.7600 C.3   261  SER261      0.2103
    165  OG       -13.9220   20.6110  -10.5440 O.3   261  SER261     -0.2182
    166  N        -11.7930   21.9540  -13.2100 N.am  262  GLY262     -0.1956
    167  CA       -11.2620   23.2680  -13.5190 C.3   262  GLY262      0.1869
    168  C        -11.2850   24.2790  -12.3900 C.2   262  GLY262      0.2309
    169  O        -11.7060   23.9750  -11.2600 O.2   262  GLY262     -0.2863
@<TRIPOS>BOND
     1   151   150    1
     2   167   166    1
     3   167   168    1
     4   163   162    2
     5   166   162   am
     6   162   161    1
     7   161   160    1
     8   161   164    1
     9   152   150    1
    10   150   149    1
    11   168   169    2
    12   164   165    1
    13   149   146    1
    14    97    96    2
    15   101   100    2
    16   156   155    2
    17     9     8    1
    18     3     4    2
    19     3     2    1
    20    99   100    1
    21    99    98    1
    22   146   145    1
    23   146   147    1
    24    96    98   am
    25    96    95    1
    26   100   102   am
    27   108   107    1
    28   108   109    1
    29   107   106    1
    30     7     8    1
    31     7     6    1
    32   155   154    1
    33   147   148    2
    34    95    94    1
    35     2     5    1
    36     2     1    1
    37   154   153    1
    38   154   157    1
    39   102   103    1
    40     5     6    1
    41   159   157    1
    42    92    91    2
    43   103   106    1
    44   103   104    1
    45   157   158    1
    46    80    79    1
    47    80    81    1
    48    94    91   am
    49    91    90    1
    50   143   142   ar
    51    79    76    1
    52   104   110   am
    53   104   105    2
    54   144   142   ar
    55    81    75    1
    56   142   141    1
    57   110   111    1
    58    90    93    1
    59    90    89    1
    60    85    84    2
    61    76    75    1
    62    76    77    1
    63   114   111    1
    64   111   112    1
    65   141   138    1
    66    84    89   am
    67    84    83    1
    68    78    77    2
    69    77    82   am
    70   138   137    1
    71   138   139    1
    72    82    83    1
    73    83    86    1
    74   112   115   am
    75   112   113    2
    76   115   116    1
    77   140   139    2
    78    86    87    1
    79    86    88    1
    80   116   117    1
    81   128   127    1
    82   127   124    1
    83   117   119   am
    84   117   118    2
    85   119   120    1
    86   123   124    1
    87   123   121   am
    88   124   125    1
    89    69    68    2
    90    68    67    1
    91   125   126    2
    92    16    14    1
    93    73    74    1
    94    73    72    1
    95    15    14    1
    96   120   121    1
    97   121   122    2
    98    14    11    1
    99    70    67    1
   100    70    71    1
   101    67    66    1
   102    72    71    1
   103    57    55    1
   104    23    21    1
   105   129   130    1
   106   135   134   ar
   107    11    12    1
   108    11    10    1
   109   136   134   ar
   110   134   133    1
   111    12    17   am
   112    12    13    2
   113    17    18    1
   114    55    56    1
   115    55    54    1
   116    21    18    1
   117    21    22    1
   118    18    19    1
   119   130   133    1
   120   130   131    1
   121    54    51    1
   122    30    29    1
   123    30    24    1
   124   131   132    2
   125    29    28    1
   126    64    62    1
   127    19    24   am
   128    19    20    2
   129    34    33    2
   130    24    25    1
   131    51    50    1
   132    51    52    1
   133    50    44   am
   134    40    39    1
   135    37    36    1
   136    37    38    1
   137    35    36    1
   138    35    32    1
   139    61    60    2
   140    52    53    2
   141    60    59    1
   142    33    32    1
   143    33    42   am
   144    28    25    1
   145    62    59    1
   146    62    63    1
   147    48    47    2
   148    49    47   am
   149    44    43    1
   150    44    45    2
   151    25    26    1
   152    43    42    1
   153    43    46    1
   154    47    46    1
   155    32    31    1
   156    65    63    1
   157    39    38    2
   158    39    41    1
   159    59    58    1
   160    27    26    2
