@<TRIPOS>MOLECULE
tmp/4dxuA03.pdb
 99 99 0 0 0
SMALL
GASTEIGER

@<TRIPOS>ATOM
      1  N         18.4210   16.4080   10.3900 N.3    89  THR89      -0.1203
      2  CA        17.9920   14.9670   10.2050 C.3    89  THR89       0.1994
      3  C         16.5910   14.9290    9.5970 C.2    89  THR89       0.2618
      4  O         15.8180   15.8810    9.7860 O.2    89  THR89      -0.2717
      5  CB        18.0580   14.1060   11.4750 C.3    89  THR89       0.1784
      6  OG1       17.1010   14.5640   12.4390 O.3    89  THR89      -0.2211
      7  CG2       19.5350   14.0590   12.0640 C.3    89  THR89       0.0376
      8  N         16.2930   13.8940    8.7840 N.am   90  GLU90      -0.1965
      9  CA        14.9450   13.7010    8.3120 C.3    90  GLU90       0.1733
     10  C         14.5840   12.3250    8.9680 C.2    90  GLU90       0.2616
     11  O         15.3840   11.4070    8.8930 O.2    90  GLU90      -0.2715
     12  CB        14.9930   13.4840    6.8210 C.3    90  GLU90       0.0429
     13  CG        15.2740   14.8290    6.1240 C.3    90  GLU90       0.1163
     14  CD        15.7440   14.6670    4.6960 C.2    90  GLU90       0.3649
     15  OE1       14.9390   14.1810    3.8630 O.co2  90  GLU90      -0.2457
     16  OE2       16.9130   15.0540    4.4270 O.co2  90  GLU90      -0.2457
     17  N         13.5200   12.2460    9.6610 N.am   91  GLY91      -0.1955
     18  CA        13.1480   10.9340   10.3150 C.3    91  GLY91       0.1869
     19  C         13.0710    9.8430    9.2480 C.2    91  GLY91       0.2309
     20  O         12.9030   10.0820    8.0020 O.2    91  GLY91      -0.2863
     21  N          6.4400    8.6930   10.9950 N.3   250  VAL250     -0.1231
     22  CA         7.8000    9.0730   10.7490 C.3   250  VAL250      0.1692
     23  C          8.5080    9.0600   12.1000 C.2   250  VAL250      0.2592
     24  O          7.9900    9.5410   13.1500 O.2   250  VAL250     -0.2718
     25  CB         7.8380   10.5630   10.2900 C.3   250  VAL250      0.0266
     26  CG1        9.2900   11.0580   10.1880 C.3   250  VAL250      0.0020
     27  CG2        7.1170   10.6970    8.9540 C.3   250  VAL250      0.0020
     28  N          9.5830    8.2930   12.1990 N.am  251  ALA251     -0.1966
     29  CA        10.3770    8.0590   13.4570 C.3   251  ALA251      0.1713
     30  C         11.5340    8.9930   13.5230 C.2   251  ALA251      0.2458
     31  O         12.2020    9.3040   12.5450 O.2   251  ALA251     -0.2730
     32  CB        10.8840    6.6680   13.3690 C.3   251  ALA251      0.0333
     33  N         11.9240    9.4360   14.7640 N.am  252  PRO252     -0.2716
     34  CA        13.1340   10.2060   14.9630 C.3   252  PRO252      0.1536
     35  C         14.3560    9.3140   14.7490 C.2   252  PRO252      0.2598
     36  O         14.3500    8.0920   15.1430 O.2   252  PRO252     -0.2715
     37  CB        13.0200   10.6570   16.4440 C.3   252  PRO252      0.0310
     38  CG        12.2360    9.5440   17.0930 C.3   252  PRO252      0.0237
     39  CD        11.2390    9.0630   16.0390 C.3   252  PRO252      0.0939
     40  N         15.3910    9.7690   14.1060 N.am  253  ASN253     -0.1973
     41  CA        16.5710    8.9260   13.8280 C.3   253  ASN253      0.1688
     42  C         17.1800    8.3920   15.1070 C.2   253  ASN253      0.2292
     43  O         17.1550    8.9960   16.1970 O.2   253  ASN253     -0.2864
     44  CB        17.6480    9.6950   13.0290 C.3   253  ASN253      0.1181
     45  CG        17.2770    9.8970   11.5760 C.2   253  ASN253      0.2629
     46  OD1       16.4340    9.2090   11.0430 O.2   253  ASN253     -0.2716
     47  ND2       18.0570   10.6760   10.9120 N.am  253  ASN253     -0.0877
     48  N         13.8750   15.9390   21.3080 N.3   319  TYR319     -0.1227
     49  CA        14.4460   15.1620   20.2040 C.3   319  TYR319      0.1736
     50  C         13.3850   14.1370   19.6780 C.2   319  TYR319      0.2595
     51  O         13.2690   14.0340   18.4230 O.2   319  TYR319     -0.2718
     52  CB        15.7090   14.4320   20.7380 C.3   319  TYR319      0.0548
     53  CG        16.2950   13.6190   19.5960 C.ar  319  TYR319     -0.0200
     54  CD1       16.9820   14.2480   18.5970 C.ar  319  TYR319     -0.0009
     55  CD2       16.1010   12.2600   19.5030 C.ar  319  TYR319     -0.0009
     56  CE1       17.5450   13.6000   17.4750 C.ar  319  TYR319      0.0417
     57  CE2       16.5050   11.5970   18.3710 C.ar  319  TYR319      0.0417
     58  CZ        17.2680   12.2200   17.4190 C.ar  319  TYR319      0.1957
     59  OH        17.7200   11.6040   16.2680 O.3   319  TYR319     -0.2866
     60  N         12.7060   13.4490   20.5710 N.am  320  LEU320     -0.1966
     61  CA        11.7410   12.4360   20.1060 C.3   320  LEU320      0.1728
     62  C         10.4870   13.0810   19.5200 C.2   320  LEU320      0.2617
     63  O          9.8250   12.4720   18.6410 O.2   320  LEU320     -0.2715
     64  CB        11.2820   11.5620   21.2640 C.3   320  LEU320      0.0311
     65  CG        12.4500   10.6820   21.7720 C.3   320  LEU320      0.0022
     66  CD1       11.9560    9.8180   22.9170 C.3   320  LEU320      0.0001
     67  CD2       13.0370    9.7370   20.5970 C.3   320  LEU320      0.0001
     68  N         10.1400   14.2740   20.0260 N.am  321  GLY321     -0.1940
     69  CA         8.8850   14.9520   19.6660 C.3   321  GLY321      0.2014
     70  C          7.7970   14.6420   20.5890 C.2   321  GLY321      0.2640
     71  O          7.5690   13.4850   21.0530 O.2   321  GLY321     -0.2714
     72  N          7.0160   15.6770   20.9110 N.am  322  THR322     -0.1936
     73  CA         5.9650   15.5100   21.9080 C.3   322  THR322      0.2028
     74  C          4.8990   14.4320   21.6070 C.2   322  THR322      0.2642
     75  O          4.4790   13.6890   22.5030 O.2   322  THR322     -0.2714
     76  CB         5.1360   16.8600   22.1120 C.3   322  THR322      0.1808
     77  OG1        6.0620   17.8970   22.4290 O.3   322  THR322     -0.2208
     78  CG2        4.1410   16.7370   23.2590 C.3   322  THR322      0.0379
     79  N          4.5180   14.3960   20.3760 N.am  323  GLU323     -0.1963
     80  CA         3.5250   13.4410   19.8880 C.3   323  GLU323      0.1733
     81  C          4.0370   11.9960   20.0810 C.2   323  GLU323      0.2616
     82  O          3.2960   11.1640   20.5790 O.2   323  GLU323     -0.2715
     83  CB         3.2780   13.6490   18.4330 C.3   323  GLU323      0.0429
     84  CG         2.4760   14.9380   18.1650 C.3   323  GLU323      0.1163
     85  CD         1.6790   14.8810   16.8590 C.2   323  GLU323      0.3649
     86  OE1        1.8980   13.9420   16.0250 O.co2 323  GLU323     -0.2457
     87  OE2        0.8290   15.7940   16.6690 O.co2 323  GLU323     -0.2457
     88  N          5.3000   11.7680   19.7170 N.am  324  TYR324     -0.1974
     89  CA         5.8370   10.3890   19.8730 C.3   324  TYR324      0.1639
     90  C          5.9470   10.0460   21.3250 C.2   324  TYR324      0.2290
     91  O          5.6300    8.9630   21.7580 O.2   324  TYR324     -0.2864
     92  CB         7.1460   10.2140   19.1050 C.3   324  TYR324      0.0560
     93  CG         7.7560    8.8110   19.2220 C.ar  324  TYR324     -0.0198
     94  CD1        6.9500    7.6500   19.1350 C.ar  324  TYR324     -0.0009
     95  CD2        9.1600    8.6280   19.3240 C.ar  324  TYR324     -0.0009
     96  CE1        7.5310    6.3660   19.2450 C.ar  324  TYR324      0.0417
     97  CE2        9.7020    7.3530   19.4360 C.ar  324  TYR324      0.0417
     98  CZ         8.8820    6.2550   19.3730 C.ar  324  TYR324      0.1957
     99  OH         9.4340    5.0240   19.5650 O.3   324  TYR324     -0.2866
@<TRIPOS>BOND
     1    15    14   ar
     2    16    14   ar
     3    14    13    1
     4    13    12    1
     5    12     9    1
     6    20    19    2
     7     9     8    1
     8     9    10    1
     9     8     3   am
    10    11    10    2
    11    27    25    1
    12    10    17   am
    13    19    18    1
    14     3     4    2
    15     3     2    1
    16    17    18    1
    17    26    25    1
    18     2     1    1
    19     2     5    1
    20    25    22    1
    21    22    21    1
    22    22    23    1
    23    47    45   am
    24    46    45    2
    25     5     7    1
    26     5     6    1
    27    45    44    1
    28    23    28   am
    29    23    24    2
    30    28    29    1
    31    31    30    2
    32    44    41    1
    33    32    29    1
    34    29    30    1
    35    30    33   am
    36    41    40    1
    37    41    42    1
    38    40    35   am
    39    35    34    1
    40    35    36    2
    41    33    34    1
    42    33    39    1
    43    34    37    1
    44    42    43    2
    45    86    85   ar
    46    39    38    1
    47    59    58    1
    48    37    38    1
    49    87    85   ar
    50    85    84    1
    51    58    56   ar
    52    58    57   ar
    53    56    54   ar
    54    84    83    1
    55    57    55   ar
    56    51    50    2
    57    83    80    1
    58    54    53   ar
    59    63    62    2
    60    92    93    1
    61    92    89    1
    62    94    93   ar
    63    94    96   ar
    64    93    95   ar
    65    96    98   ar
    66    95    97   ar
    67    98    97   ar
    68    98    99    1
    69    55    53   ar
    70    62    68   am
    71    62    61    1
    72    53    52    1
    73    69    68    1
    74    69    70    1
    75    50    49    1
    76    50    60   am
    77    88    89    1
    78    88    81   am
    79    89    90    1
    80    80    81    1
    81    80    79    1
    82    81    82    2
    83    61    60    1
    84    61    64    1
    85    49    52    1
    86    49    48    1
    87    79    74   am
    88    70    72   am
    89    70    71    2
    90    67    65    1
    91    72    73    1
    92    64    65    1
    93    90    91    2
    94    74    73    1
    95    74    75    2
    96    65    66    1
    97    73    76    1
    98    76    77    1
    99    76    78    1
