@<TRIPOS>MOLECULE
tmp/4dxwB02.pdb
 88 82 0 0 0
SMALL
GASTEIGER

@<TRIPOS>ATOM
      1  N         49.2590  -48.9600   28.2050 N.3   130  SER130     -0.1217
      2  CA        49.5540  -49.9890   27.2050 C.3   130  SER130      0.1889
      3  C         49.1530  -51.4010   27.6480 C.2   130  SER130      0.2288
      4  O         48.7050  -52.2120   26.8220 O.2   130  SER130     -0.2866
      5  CB        51.0160  -49.9410   26.7640 C.3   130  SER130      0.2089
      6  OG        51.2230  -48.8590   25.8610 O.3   130  SER130     -0.2183
      7  N         45.2880  -51.4230   27.2530 N.3   133  LEU133     -0.1231
      8  CA        44.9850  -51.6320   25.8480 C.3   133  LEU133      0.1693
      9  C         45.1960  -53.0780   25.4800 C.2   133  LEU133      0.2592
     10  O         44.3730  -53.6780   24.7900 O.2   133  LEU133     -0.2718
     11  CB        45.8510  -50.7520   24.9560 C.3   133  LEU133      0.0284
     12  CG        45.3470  -49.3200   24.9660 C.3   133  LEU133      0.0019
     13  CD1       45.9280  -48.6030   23.7960 C.3   133  LEU133      0.0001
     14  CD2       43.8000  -49.3100   24.9280 C.3   133  LEU133      0.0001
     15  N         46.3010  -53.6590   25.9250 N.am  134  PHE134     -0.1976
     16  CA        46.4580  -55.0950   25.6980 C.3   134  PHE134      0.1639
     17  C         45.2400  -55.9190   26.1520 C.2   134  PHE134      0.2290
     18  O         44.7010  -56.7180   25.3920 O.2   134  PHE134     -0.2864
     19  CB        47.6990  -55.6600   26.3790 C.3   134  PHE134      0.0560
     20  CG        47.8110  -57.1520   26.2330 C.ar  134  PHE134     -0.0200
     21  CD1       47.5490  -57.9930   27.2970 C.ar  134  PHE134     -0.0042
     22  CD2       48.1390  -57.7200   25.0050 C.ar  134  PHE134     -0.0042
     23  CE1       47.6380  -59.3800   27.1480 C.ar  134  PHE134     -0.0003
     24  CE2       48.2320  -59.1020   24.8520 C.ar  134  PHE134     -0.0003
     25  CZ        47.9800  -59.9310   25.9200 C.ar  134  PHE134     -0.0000
     26  N         42.2660  -55.3390   23.7060 N.3   137  LEU137     -0.1245
     27  CA        42.5830  -56.0110   22.4610 C.3   137  LEU137      0.1561
     28  C         42.3690  -57.5240   22.5880 C.2   137  LEU137      0.2260
     29  O         41.9050  -58.1720   21.6700 O.2   137  LEU137     -0.2867
     30  CB        44.0370  -55.7040   22.0380 C.3   137  LEU137      0.0270
     31  CG        44.3560  -54.3660   21.3570 C.3   137  LEU137      0.0019
     32  CD1       45.3640  -54.5290   20.2300 C.3   137  LEU137      0.0001
     33  CD2       43.0840  -53.7340   20.8210 C.3   137  LEU137      0.0001
     34  N         43.7030  -66.9640   13.7470 N.3   158  ASP158     -0.1239
     35  CA        44.1030  -67.2960   15.1130 C.3   158  ASP158      0.1674
     36  C         44.0680  -66.0880   16.0320 C.2   158  ASP158      0.2266
     37  O         43.4410  -65.0820   15.7090 O.2   158  ASP158     -0.2867
     38  CB        45.4670  -67.9800   15.1540 C.3   158  ASP158      0.1410
     39  CG        46.4830  -67.3020   14.2970 C.2   158  ASP158      0.3668
     40  OD1       46.6170  -67.6880   13.1150 O.co2 158  ASP158     -0.2456
     41  OD2       47.1560  -66.3910   14.8100 O.co2 158  ASP158     -0.2456
     42  N         46.7670  -64.3070   17.2170 N.3   160  GLY160     -0.1210
     43  CA        47.7480  -63.3580   16.7180 C.3   160  GLY160      0.1956
     44  C         47.2460  -62.4150   15.6410 C.2   160  GLY160      0.2611
     45  O         47.3400  -61.1860   15.7950 O.2   160  GLY160     -0.2717
     46  N         46.7130  -62.9560   14.5460 N.am  161  ILE161     -0.1979
     47  CA        46.2070  -62.0690   13.5020 C.3   161  ILE161      0.1595
     48  C         44.9580  -61.3230   13.9330 C.2   161  ILE161      0.2287
     49  O         44.6490  -60.2700   13.3670 O.2   161  ILE161     -0.2864
     50  CB        45.9420  -62.7610   12.1770 C.3   161  ILE161      0.0276
     51  CG1       46.6230  -64.1370   12.1560 C.3   161  ILE161      0.0022
     52  CG2       46.4060  -61.8170   11.0320 C.3   161  ILE161      0.0022
     53  CD1       46.4650  -64.9370   10.8380 C.3   161  ILE161      0.0001
     54  N         44.6670  -59.9790   16.8700 N.3   163  LEU163     -0.1231
     55  CA        45.2210  -58.8130   17.5340 C.3   163  LEU163      0.1693
     56  C         45.8060  -57.8310   16.5400 C.2   163  LEU163      0.2591
     57  O         45.5640  -56.6350   16.6540 O.2   163  LEU163     -0.2718
     58  CB        46.2420  -59.2050   18.6050 C.3   163  LEU163      0.0284
     59  CG        45.7220  -59.9350   19.8600 C.3   163  LEU163      0.0019
     60  CD1       46.9120  -60.4110   20.6490 C.3   163  LEU163      0.0001
     61  CD2       44.7650  -59.0950   20.7540 C.3   163  LEU163      0.0001
     62  N         46.5720  -58.3110   15.5650 N.am  164  ILE164     -0.1980
     63  CA        47.0780  -57.3870   14.5500 C.3   164  ILE164      0.1595
     64  C         45.9270  -56.6510   13.8840 C.2   164  ILE164      0.2287
     65  O         45.9860  -55.4410   13.6430 O.2   164  ILE164     -0.2864
     66  CB        47.8820  -58.0960   13.4730 C.3   164  ILE164      0.0276
     67  CG1       49.3040  -58.3110   13.9600 C.3   164  ILE164      0.0022
     68  CG2       47.9250  -57.2380   12.2200 C.3   164  ILE164      0.0022
     69  CD1       50.0830  -59.2500   13.1090 C.3   164  ILE164      0.0001
     70  N         44.6420  -54.0030   16.0930 N.3   167  PHE167     -0.1241
     71  CA        45.5460  -52.8680   16.2140 C.3   167  PHE167      0.1605
     72  C         45.3630  -51.9950   14.9770 C.2   167  PHE167      0.2264
     73  O         45.3180  -50.7640   15.0590 O.2   167  PHE167     -0.2867
     74  CB        47.0110  -53.2870   16.3940 C.3   167  PHE167      0.0534
     75  CG        47.9160  -52.1470   16.8200 C.ar  167  PHE167     -0.0203
     76  CD1       47.7360  -51.5160   18.0340 C.ar  167  PHE167     -0.0042
     77  CD2       48.9300  -51.6960   16.0070 C.ar  167  PHE167     -0.0042
     78  CE1       48.5590  -50.4710   18.4210 C.ar  167  PHE167     -0.0003
     79  CE2       49.7550  -50.6370   16.4010 C.ar  167  PHE167     -0.0003
     80  CZ        49.5680  -50.0350   17.6000 C.ar  167  PHE167     -0.0000
     81  N         42.3690  -50.0450   15.7170 N.3   170  LEU170     -0.1245
     82  CA        42.5530  -49.1210   16.8350 C.3   170  LEU170      0.1561
     83  C         43.0350  -47.7890   16.3250 C.2   170  LEU170      0.2260
     84  O         42.6490  -46.7400   16.8300 O.2   170  LEU170     -0.2867
     85  CB        43.5830  -49.6930   17.8140 C.3   170  LEU170      0.0270
     86  CG        44.0800  -48.9010   19.0270 C.3   170  LEU170      0.0019
     87  CD1       44.5540  -49.8550   20.0780 C.3   170  LEU170      0.0001
     88  CD2       45.2190  -48.0090   18.6420 C.3   170  LEU170      0.0001
@<TRIPOS>BOND
     1    53    51    1
     2    52    50    1
     3    51    50    1
     4    50    47    1
     5    68    66    1
     6    69    67    1
     7    40    39   ar
     8    49    48    2
     9    66    67    1
    10    66    63    1
    11    47    48    1
    12    47    46    1
    13    65    64    2
    14    34    35    1
    15    64    63    1
    16    39    41   ar
    17    39    38    1
    18    46    44   am
    19    63    62    1
    20    72    73    2
    21    72    71    1
    22    35    38    1
    23    35    36    1
    24    62    56   am
    25    44    45    2
    26    44    43    1
    27    37    36    2
    28    81    82    1
    29    77    79   ar
    30    77    75   ar
    31    70    71    1
    32    71    74    1
    33    83    84    2
    34    83    82    1
    35    74    75    1
    36    79    80   ar
    37    56    57    2
    38    56    55    1
    39    43    42    1
    40    75    76   ar
    41    82    85    1
    42    54    55    1
    43    55    58    1
    44    80    78   ar
    45    85    86    1
    46    76    78   ar
    47    58    59    1
    48    88    86    1
    49    86    87    1
    50    59    60    1
    51    59    61    1
    52    32    31    1
    53    33    31    1
    54    31    30    1
    55    29    28    2
    56    30    27    1
    57    27    28    1
    58    27    26    1
    59    13    12    1
    60    10     9    2
    61    24    22   ar
    62    24    25   ar
    63    14    12    1
    64    11    12    1
    65    11     8    1
    66    22    20   ar
    67    18    17    2
    68     9     8    1
    69     9    15   am
    70    16    15    1
    71    16    17    1
    72    16    19    1
    73     8     7    1
    74     6     5    1
    75    25    23   ar
    76    20    19    1
    77    20    21   ar
    78     5     2    1
    79     4     3    2
    80    23    21   ar
    81     2     3    1
    82     2     1    1
