@<TRIPOS>MOLECULE
tmp/4dxwB01.pdb
 99 92 0 0 0
SMALL
GASTEIGER

@<TRIPOS>ATOM
      1  N         52.5190  -44.2310   29.8310 N.3   126  VAL126     -0.1245
      2  CA        52.2440  -44.8520   28.5440 C.3   126  VAL126      0.1561
      3  C         52.2900  -46.3720   28.6380 C.2   126  VAL126      0.2260
      4  O         51.5480  -47.0880   27.9520 O.2   126  VAL126     -0.2867
      5  CB        53.1100  -44.3090   27.4040 C.3   126  VAL126      0.0252
      6  CG1       52.9710  -45.1890   26.1660 C.3   126  VAL126      0.0019
      7  CG2       52.6890  -42.8770   27.0900 C.3   126  VAL126      0.0019
      8  N         48.9020  -47.7260   30.6260 N.3   129  VAL129     -0.1231
      9  CA        47.7920  -47.6620   29.6760 C.3   129  VAL129      0.1692
     10  C         48.0000  -48.6810   28.5440 C.2   129  VAL129      0.2592
     11  O         47.0320  -49.2170   28.0050 O.2   129  VAL129     -0.2718
     12  CB        47.5350  -46.2290   29.1290 C.3   129  VAL129      0.0266
     13  CG1       46.4790  -46.2450   28.0240 C.3   129  VAL129      0.0020
     14  CG2       47.0830  -45.3130   30.2540 C.3   129  VAL129      0.0020
     15  N         49.2590  -48.9600   28.2050 N.am  130  SER130     -0.1952
     16  CA        49.5540  -49.9890   27.2050 C.3   130  SER130      0.1924
     17  C         49.1530  -51.4010   27.6480 C.2   130  SER130      0.2314
     18  O         48.7050  -52.2120   26.8220 O.2   130  SER130     -0.2863
     19  CB        51.0160  -49.9410   26.7640 C.3   130  SER130      0.2116
     20  OG        51.2230  -48.8590   25.8610 O.3   130  SER130     -0.2180
     21  N         45.2880  -51.4230   27.2530 N.3   133  LEU133     -0.1245
     22  CA        44.9850  -51.6320   25.8480 C.3   133  LEU133      0.1561
     23  C         45.1960  -53.0780   25.4800 C.2   133  LEU133      0.2260
     24  O         44.3730  -53.6780   24.7900 O.2   133  LEU133     -0.2867
     25  CB        45.8510  -50.7520   24.9560 C.3   133  LEU133      0.0270
     26  CG        45.3470  -49.3200   24.9660 C.3   133  LEU133      0.0019
     27  CD1       45.9280  -48.6030   23.7960 C.3   133  LEU133      0.0001
     28  CD2       43.8000  -49.3100   24.9280 C.3   133  LEU133      0.0001
     29  N         44.6420  -54.0030   16.0930 N.3   167  PHE167     -0.1241
     30  CA        45.5460  -52.8680   16.2140 C.3   167  PHE167      0.1605
     31  C         45.3630  -51.9950   14.9770 C.2   167  PHE167      0.2264
     32  O         45.3180  -50.7640   15.0590 O.2   167  PHE167     -0.2867
     33  CB        47.0110  -53.2870   16.3940 C.3   167  PHE167      0.0534
     34  CG        47.9160  -52.1470   16.8200 C.ar  167  PHE167     -0.0203
     35  CD1       47.7360  -51.5160   18.0340 C.ar  167  PHE167     -0.0042
     36  CD2       48.9300  -51.6960   16.0070 C.ar  167  PHE167     -0.0042
     37  CE1       48.5590  -50.4710   18.4210 C.ar  167  PHE167     -0.0003
     38  CE2       49.7550  -50.6370   16.4010 C.ar  167  PHE167     -0.0003
     39  CZ        49.5680  -50.0350   17.6000 C.ar  167  PHE167     -0.0000
     40  N         42.3690  -50.0450   15.7170 N.3   170  LEU170     -0.1231
     41  CA        42.5530  -49.1210   16.8350 C.3   170  LEU170      0.1693
     42  C         43.0350  -47.7890   16.3250 C.2   170  LEU170      0.2593
     43  O         42.6490  -46.7400   16.8300 O.2   170  LEU170     -0.2718
     44  CB        43.5830  -49.6930   17.8140 C.3   170  LEU170      0.0284
     45  CG        44.0800  -48.9010   19.0270 C.3   170  LEU170      0.0019
     46  CD1       44.5540  -49.8550   20.0780 C.3   170  LEU170      0.0001
     47  CD2       45.2190  -48.0090   18.6420 C.3   170  LEU170      0.0001
     48  N         43.9020  -47.8550   15.3220 N.am  171  THR171     -0.1939
     49  CA        44.4470  -46.6750   14.6650 C.3   171  THR171      0.2028
     50  C         43.5340  -46.1650   13.5610 C.2   171  THR171      0.2642
     51  O         43.9000  -45.2350   12.8440 O.2   171  THR171     -0.2714
     52  CB        45.7950  -46.9830   14.0150 C.3   171  THR171      0.1808
     53  OG1       45.5880  -47.8400   12.8870 O.3   171  THR171     -0.2208
     54  CG2       46.6750  -47.6780   14.9930 C.3   171  THR171      0.0379
     55  N         42.3710  -46.7960   13.4100 N.am  172  LEU172     -0.1977
     56  CA        41.3520  -46.3870   12.4320 C.3   172  LEU172      0.1596
     57  C         41.7790  -46.5270   10.9390 C.2   172  LEU172      0.2287
     58  O         41.1910  -45.9190   10.0330 O.2   172  LEU172     -0.2864
     59  CB        40.8400  -44.9750   12.7660 C.3   172  LEU172      0.0297
     60  CG        40.3320  -44.8610   14.2060 C.3   172  LEU172      0.0022
     61  CD1       39.7950  -43.4910   14.5230 C.3   172  LEU172      0.0001
     62  CD2       39.2700  -45.9120   14.4800 C.3   172  LEU172      0.0001
     63  N         39.3080  -45.4920   22.2110 N.3   201  SER201     -0.1217
     64  CA        39.3530  -44.0340   22.1480 C.3   201  SER201      0.1889
     65  C         39.3590  -43.4080   23.5450 C.2   201  SER201      0.2288
     66  O         40.2190  -42.5860   23.8600 O.2   201  SER201     -0.2866
     67  CB        38.1750  -43.4950   21.3370 C.3   201  SER201      0.2089
     68  OG        38.2480  -42.0860   21.2030 O.3   201  SER201     -0.2183
     69  N         42.7940  -44.1830   25.4110 N.3   204  ILE204     -0.1231
     70  CA        43.8730  -43.3290   24.8840 C.3   204  ILE204      0.1692
     71  C         43.6930  -41.8610   25.3190 C.2   204  ILE204      0.2591
     72  O         44.6650  -41.1670   25.6690 O.2   204  ILE204     -0.2718
     73  CB        43.9510  -43.3780   23.3520 C.3   204  ILE204      0.0266
     74  CG1       44.7050  -44.6190   22.8840 C.3   204  ILE204      0.0019
     75  CG2       44.6120  -42.1150   22.8280 C.3   204  ILE204      0.0020
     76  CD1       44.7670  -44.6970   21.3660 C.3   204  ILE204      0.0001
     77  N         42.4370  -41.4110   25.3180 N.am  205  LEU205     -0.1980
     78  CA        42.1110  -40.0510   25.7060 C.3   205  LEU205      0.1596
     79  C         42.4990  -39.8090   27.1410 C.2   205  LEU205      0.2287
     80  O         43.1980  -38.8430   27.4700 O.2   205  LEU205     -0.2864
     81  CB        40.6180  -39.7720   25.5430 C.3   205  LEU205      0.0297
     82  CG        40.2710  -38.3700   26.0720 C.3   205  LEU205      0.0022
     83  CD1       40.7440  -37.2980   25.0990 C.3   205  LEU205      0.0001
     84  CD2       38.7720  -38.1880   26.4150 C.3   205  LEU205      0.0001
     85  N         44.5980  -41.2220   28.7700 N.3   207  LEU207     -0.1231
     86  CA        46.0530  -41.2950   28.8710 C.3   207  LEU207      0.1693
     87  C         46.6250  -39.9200   28.6150 C.2   207  LEU207      0.2591
     88  O         47.5000  -39.4290   29.3520 O.2   207  LEU207     -0.2718
     89  CB        46.6040  -42.2820   27.8350 C.3   207  LEU207      0.0284
     90  CG        48.0440  -42.7730   27.9750 C.3   207  LEU207      0.0019
     91  CD1       48.5350  -43.1920   26.6220 C.3   207  LEU207      0.0001
     92  CD2       48.9680  -41.7190   28.5280 C.3   207  LEU207      0.0001
     93  N         46.1450  -39.3040   27.5390 N.am  208  VAL208     -0.1980
     94  CA        46.6710  -38.0040   27.1410 C.3   208  VAL208      0.1595
     95  C         46.4330  -37.0010   28.2590 C.2   208  VAL208      0.2287
     96  O         47.3530  -36.3320   28.7200 O.2   208  VAL208     -0.2864
     97  CB        46.0280  -37.5030   25.8490 C.3   208  VAL208      0.0276
     98  CG1       46.2810  -36.0310   25.7070 C.3   208  VAL208      0.0022
     99  CG2       46.5900  -38.2660   24.6650 C.3   208  VAL208      0.0022
@<TRIPOS>BOND
     1    58    57    2
     2    57    56    1
     3    56    59    1
     4    56    55    1
     5    59    60    1
     6    51    50    2
     7    53    52    1
     8    55    50   am
     9    50    49    1
    10    52    49    1
    11    52    54    1
    12    60    62    1
    13    60    61    1
    14    49    48    1
    15    31    32    2
    16    31    30    1
    17    48    42   am
    18    40    41    1
    19    36    38   ar
    20    36    34   ar
    21    29    30    1
    22    30    33    1
    23    42    43    2
    24    42    41    1
    25    33    34    1
    26    38    39   ar
    27    34    35   ar
    28    41    44    1
    29    39    37   ar
    30    44    45    1
    31    35    37   ar
    32    47    45    1
    33    45    46    1
    34    68    67    1
    35    67    64    1
    36    76    74    1
    37    64    63    1
    38    64    65    1
    39    75    73    1
    40    74    73    1
    41    73    70    1
    42    65    66    2
    43    27    26    1
    44    99    97    1
    45    24    23    2
    46    70    71    1
    47    70    69    1
    48    28    26    1
    49    25    26    1
    50    25    22    1
    51    83    82    1
    52    77    71   am
    53    77    78    1
    54    71    72    2
    55    23    22    1
    56    81    78    1
    57    81    82    1
    58    78    79    1
    59    98    97    1
    60    22    21    1
    61    97    94    1
    62    20    19    1
    63    82    84    1
    64     6     5    1
    65    91    90    1
    66    19    16    1
    67    18    17    2
    68     7     5    1
    69    79    80    2
    70    94    93    1
    71    94    95    1
    72    16    17    1
    73    16    15    1
    74     5     2    1
    75    93    87   am
    76    89    90    1
    77    89    86    1
    78     4     3    2
    79    90    92    1
    80    11    10    2
    81    13    12    1
    82    15    10   am
    83    95    96    2
    84     2     3    1
    85     2     1    1
    86    10     9    1
    87    87    86    1
    88    87    88    2
    89    85    86    1
    90    12     9    1
    91    12    14    1
    92     9     8    1
