@<TRIPOS>MOLECULE
tmp/4dxyA01.pdb
 90 81 0 0 0
SMALL
GASTEIGER

@<TRIPOS>ATOM
      1  N        -14.4170  -13.9370  -18.7340 N.3    79  PHE79      -0.1241
      2  CA       -15.2590  -14.3400  -19.8980 C.3    79  PHE79       0.1605
      3  C        -14.4220  -14.2110  -21.1370 C.2    79  PHE79       0.2264
      4  O        -13.7620  -13.2330  -21.2800 O.2    79  PHE79      -0.2867
      5  CB       -16.5800  -13.4930  -19.9680 C.3    79  PHE79       0.0534
      6  CG       -17.5370  -13.7950  -18.8260 C.ar   79  PHE79      -0.0203
      7  CD1      -17.8010  -15.1300  -18.4700 C.ar   79  PHE79      -0.0042
      8  CD2      -18.1400  -12.7770  -18.0780 C.ar   79  PHE79      -0.0042
      9  CE1      -18.6900  -15.4820  -17.4220 C.ar   79  PHE79      -0.0003
     10  CE2      -19.0540  -13.1010  -16.9990 C.ar   79  PHE79      -0.0003
     11  CZ       -19.3160  -14.4510  -16.6600 C.ar   79  PHE79      -0.0000
     12  N        -20.8790   -7.0610  -12.7640 N.3    90  MET90      -0.1245
     13  CA       -21.5690   -8.2330  -12.2190 C.3    90  MET90       0.1570
     14  C        -20.9670   -8.6720  -10.8640 C.2    90  MET90       0.2261
     15  O        -20.5790   -9.8350  -10.6990 O.2    90  MET90      -0.2867
     16  CB       -21.5070   -9.3800  -13.2230 C.3    90  MET90       0.0387
     17  CG       -21.6770   -8.9290  -14.6800 C.3    90  MET90       0.0595
     18  SD       -21.0800  -10.1310  -15.8960 S.3    90  MET90      -0.1393
     19  CE       -22.1970  -11.5640  -15.6570 C.3    90  MET90       0.0692
     20  N        -18.4580  -11.2290   -9.0870 N.3    93  THR93      -0.1218
     21  CA       -17.8020  -12.2860   -9.9160 C.3    93  THR93       0.1862
     22  C        -16.4620  -11.8970  -10.5420 C.2    93  THR93       0.2287
     23  O        -15.6550  -12.7900  -10.9290 O.2    93  THR93      -0.2866
     24  CB       -18.6640  -12.8250  -11.0200 C.3    93  THR93       0.1770
     25  OG1      -18.9180  -11.7720  -11.9650 O.3    93  THR93      -0.2211
     26  CG2      -19.9680  -13.3230  -10.4700 C.3    93  THR93       0.0375
     27  N        -27.4910  -11.6410  -10.1780 N.3   242  LEU242     -0.1245
     28  CA       -26.5940  -12.7580  -10.0430 C.3   242  LEU242      0.1561
     29  C        -27.2800  -13.9680   -9.4480 C.2   242  LEU242      0.2260
     30  O        -27.1350  -14.9910   -9.9680 O.2   242  LEU242     -0.2867
     31  CB       -25.3610  -12.3580   -9.2800 C.3   242  LEU242      0.0270
     32  CG       -24.2130  -13.3000   -9.0570 C.3   242  LEU242      0.0019
     33  CD1      -23.6860  -13.7090  -10.3320 C.3   242  LEU242      0.0001
     34  CD2      -23.1730  -12.5680   -8.3360 C.3   242  LEU242      0.0001
     35  N        -29.3600  -15.3200  -12.4190 N.3   245  LEU245     -0.1231
     36  CA       -28.6640  -15.8700  -13.5720 C.3   245  LEU245      0.1693
     37  C        -27.7400  -17.0430  -13.1730 C.2   245  LEU245      0.2592
     38  O        -27.4750  -17.9150  -13.9790 O.2   245  LEU245     -0.2718
     39  CB       -27.7830  -14.8170  -14.2230 C.3   245  LEU245      0.0284
     40  CG       -28.3680  -13.5370  -14.8030 C.3   245  LEU245      0.0019
     41  CD1      -27.2170  -12.6540  -15.2540 C.3   245  LEU245      0.0001
     42  CD2      -29.3690  -13.9290  -15.9190 C.3   245  LEU245      0.0001
     43  N        -27.2050  -17.0170  -11.9690 N.am  246  GLY246     -0.1957
     44  CA       -26.2540  -18.0800  -11.5490 C.3   246  GLY246      0.1869
     45  C        -26.9000  -19.4660  -11.5910 C.2   246  GLY246      0.2309
     46  O        -26.2560  -20.4560  -11.9670 O.2   246  GLY246     -0.2863
     47  N        -26.8820  -22.7200  -16.1240 N.3   250  THR250     -0.1218
     48  CA       -26.1330  -23.9210  -15.6120 C.3   250  THR250      0.1862
     49  C        -27.1390  -25.0650  -15.3380 C.2   250  THR250      0.2287
     50  O        -26.9590  -26.1810  -15.8280 O.2   250  THR250     -0.2866
     51  CB       -25.3950  -23.6020  -14.3430 C.3   250  THR250      0.1770
     52  OG1      -26.2640  -22.9040  -13.4580 O.3   250  THR250     -0.2211
     53  CG2      -24.1900  -22.6860  -14.6100 C.3   250  THR250      0.0375
     54  N        -19.5780  -25.7100  -17.1910 N.3   293  VAL293     -0.1245
     55  CA       -19.0020  -24.3570  -17.2540 C.3   293  VAL293      0.1561
     56  C        -17.5630  -24.2750  -17.7930 C.2   293  VAL293      0.2260
     57  O        -16.7260  -25.1320  -17.4390 O.2   293  VAL293     -0.2867
     58  CB       -19.0560  -23.6290  -15.8250 C.3   293  VAL293      0.0252
     59  CG1      -18.5350  -22.1320  -15.9080 C.3   293  VAL293      0.0019
     60  CG2      -20.5250  -23.7520  -15.2120 C.3   293  VAL293      0.0019
     61  N        -15.5740  -20.9900  -17.7880 N.3   295  GLU295     -0.1245
     62  CA       -15.1050  -19.6500  -17.5230 C.3   295  GLU295      0.1567
     63  C        -13.5970  -19.5980  -17.5590 C.2   295  GLU295      0.2260
     64  O        -12.9390  -20.6190  -17.8590 O.2   295  GLU295     -0.2867
     65  CB       -15.6610  -19.2050  -16.1580 C.3   295  GLU295      0.0388
     66  CG       -17.0460  -18.6060  -16.4380 C.3   295  GLU295      0.1160
     67  CD       -17.6760  -17.9530  -15.2720 C.2   295  GLU295      0.3649
     68  OE1      -18.8740  -18.1100  -15.1730 O.co2 295  GLU295     -0.2457
     69  OE2      -17.0000  -17.2970  -14.4500 O.co2 295  GLU295     -0.2457
     70  N        -18.8160  -22.1660   -6.5230 N.3   355  CYS355     -0.1235
     71  CA       -20.2450  -21.9050   -6.6600 C.3   355  CYS355      0.1677
     72  C        -21.0270  -21.5930   -5.3880 C.2   355  CYS355      0.2270
     73  O        -21.2010  -22.4310   -4.5790 O.2   355  CYS355     -0.2867
     74  CB       -20.9710  -22.9950   -7.4690 C.3   355  CYS355      0.0956
     75  SG       -22.6910  -22.6660   -7.7940 S.3   355  CYS355     -0.0801
     76  N        -19.5260  -20.6490  -22.8920 N.3   393  ILE393     -0.1231
     77  CA       -19.2590  -20.5060  -21.4640 C.3   393  ILE393      0.1692
     78  C        -19.9990  -21.5410  -20.6600 C.2   393  ILE393      0.2591
     79  O        -19.4750  -22.1370  -19.6840 O.2   393  ILE393     -0.2718
     80  CB       -19.6830  -19.0620  -20.9650 C.3   393  ILE393      0.0266
     81  CG1      -18.9850  -18.0150  -21.8150 C.3   393  ILE393      0.0019
     82  CG2      -19.4370  -18.9080  -19.3940 C.3   393  ILE393      0.0020
     83  CD1      -17.5250  -18.0420  -21.6880 C.3   393  ILE393      0.0001
     84  N        -21.2480  -21.7370  -21.0060 N.am  394  VAL394     -0.1980
     85  CA       -22.0770  -22.7150  -20.3890 C.3   394  VAL394      0.1595
     86  C        -22.4940  -23.6610  -21.5060 C.2   394  VAL394      0.2287
     87  O        -23.0300  -23.2220  -22.5540 O.2   394  VAL394     -0.2864
     88  CB       -23.3030  -22.1620  -19.6680 C.3   394  VAL394      0.0276
     89  CG1      -24.1850  -23.3650  -19.1810 C.3   394  VAL394      0.0022
     90  CG2      -22.8760  -21.2680  -18.4730 C.3   394  VAL394      0.0022
@<TRIPOS>BOND
     1    76    77    1
     2    87    86    2
     3    81    83    1
     4    81    80    1
     5    86    85    1
     6    77    80    1
     7    77    78    1
     8     4     3    2
     9     3     2    1
    10    84    78   am
    11    84    85    1
    12    80    82    1
    13    78    79    2
    14    85    88    1
    15     5     2    1
    16     5     6    1
    17     2     1    1
    18    88    89    1
    19    88    90    1
    20     6     7   ar
    21     6     8   ar
    22     7     9   ar
    23     8    10   ar
    24    64    63    2
    25    56    57    2
    26    56    55    1
    27    61    62    1
    28    63    62    1
    29    62    65    1
    30     9    11   ar
    31    55    54    1
    32    55    58    1
    33    10    11   ar
    34    66    65    1
    35    66    67    1
    36    47    48    1
    37    42    40    1
    38    59    58    1
    39    18    19    1
    40    18    17    1
    41    50    49    2
    42    58    60    1
    43    48    49    1
    44    48    51    1
    45    67    68   ar
    46    67    69   ar
    47    41    40    1
    48    40    39    1
    49    17    16    1
    50    53    51    1
    51    51    52    1
    52    39    36    1
    53    38    37    2
    54    36    37    1
    55    36    35    1
    56    16    13    1
    57    37    43   am
    58    12    13    1
    59    13    14    1
    60    43    44    1
    61    46    45    2
    62    25    24    1
    63    45    44    1
    64    24    26    1
    65    24    21    1
    66    23    22    2
    67    14    15    2
    68    22    21    1
    69    33    32    1
    70    27    28    1
    71    28    29    1
    72    28    31    1
    73    30    29    2
    74    21    20    1
    75    31    32    1
    76    32    34    1
    77    75    74    1
    78    74    71    1
    79    71    70    1
    80    71    72    1
    81    72    73    2
