@<TRIPOS>MOLECULE
tmp/4dxyA04.pdb
 88 84 0 0 0
SMALL
GASTEIGER

@<TRIPOS>ATOM
      1  N        -19.6590  -11.8750   -1.2170 N.3   104  ARG104     -0.1245
      2  CA       -19.8940  -13.3370   -1.1360 C.3   104  ARG104      0.1563
      3  C        -20.5890  -13.6680    0.1680 C.2   104  ARG104      0.2260
      4  O        -21.4550  -14.5370    0.2450 O.2   104  ARG104     -0.2867
      5  CB       -18.5200  -14.0680   -1.2910 C.3   104  ARG104      0.0307
      6  CG       -18.5920  -15.6010   -1.2160 C.3   104  ARG104      0.0489
      7  CD       -19.6710  -16.1490   -2.1600 C.3   104  ARG104      0.2205
      8  NE       -19.7850  -17.5810   -1.8680 N.pl3 104  ARG104     -0.0865
      9  CZ       -19.2930  -18.5530   -2.6340 C.cat 104  ARG104      0.5346
     10  NH1      -18.6550  -18.2860   -3.7960 N.pl3 104  ARG104      0.1354
     11  NH2      -19.4670  -19.7950   -2.2010 N.pl3 104  ARG104      0.1354
     12  N        -23.9540  -15.7200    0.5220 N.3   108  ASP108     -0.1239
     13  CA       -24.0700  -16.9230    1.3200 C.3   108  ASP108      0.1674
     14  C        -25.2910  -16.9540    2.2600 C.2   108  ASP108      0.2266
     15  O        -25.7600  -17.9940    2.6390 O.2   108  ASP108     -0.2867
     16  CB       -22.7350  -17.2370    2.1070 C.3   108  ASP108      0.1410
     17  CG       -21.6030  -17.7160    1.1820 C.2   108  ASP108      0.3668
     18  OD1      -21.8700  -18.1270    0.0240 O.co2 108  ASP108     -0.2456
     19  OD2      -20.4270  -17.6290    1.6020 O.co2 108  ASP108     -0.2456
     20  N        -27.9050  -18.7730    0.3470 N.3   111  LEU111     -0.1231
     21  CA       -27.5530  -20.0580   -0.3160 C.3   111  LEU111      0.1693
     22  C        -26.8270  -21.0900    0.5480 C.2   111  LEU111      0.2592
     23  O        -26.5280  -22.1820    0.0810 O.2   111  LEU111     -0.2718
     24  CB       -26.8290  -19.7700   -1.6400 C.3   111  LEU111      0.0284
     25  CG       -27.6130  -18.9260   -2.6780 C.3   111  LEU111      0.0019
     26  CD1      -26.7240  -18.5570   -3.8270 C.3   111  LEU111      0.0001
     27  CD2      -28.7710  -19.7530   -3.2530 C.3   111  LEU111      0.0001
     28  N        -26.5600  -20.8020    1.8020 N.am  112  ASN112     -0.1960
     29  CA       -25.7970  -21.7560    2.6270 C.3   112  ASN112      0.1819
     30  C        -26.5700  -23.0670    2.8800 C.2   112  ASN112      0.2621
     31  O        -27.8250  -23.0910    2.7900 O.2   112  ASN112     -0.2715
     32  CB       -25.2840  -21.0960    3.9380 C.3   112  ASN112      0.1195
     33  CG       -26.4590  -20.7620    4.9480 C.2   112  ASN112      0.2630
     34  OD1      -26.9240  -19.6260    5.0290 O.2   112  ASN112     -0.2716
     35  ND2      -26.9280  -21.7430    5.6310 N.am  112  ASN112     -0.0877
     36  N        -25.8410  -24.1500    3.2030 N.am  113  LEU113     -0.1963
     37  CA       -26.4170  -25.4740    3.2630 C.3   113  LEU113      0.1728
     38  C        -27.6170  -25.5380    4.2540 C.2   113  LEU113      0.2616
     39  O        -28.6690  -26.1630    3.9320 O.2   113  LEU113     -0.2715
     40  CB       -25.3730  -26.5270    3.6320 C.3   113  LEU113      0.0311
     41  CG       -25.6040  -27.9940    3.3270 C.3   113  LEU113      0.0022
     42  CD1      -24.2670  -28.7980    3.4050 C.3   113  LEU113      0.0001
     43  CD2      -26.5200  -28.5780    4.3350 C.3   113  LEU113      0.0001
     44  N        -27.4420  -24.8970    5.4200 N.am  114  ALA114     -0.1977
     45  CA       -28.4750  -24.9230    6.4680 C.3   114  ALA114      0.1597
     46  C        -29.7010  -24.1900    5.9110 C.2   114  ALA114      0.2287
     47  O        -30.8050  -24.6610    6.0740 O.2   114  ALA114     -0.2864
     48  CB       -27.9860  -24.2540    7.7910 C.3   114  ALA114      0.0319
     49  N        -15.9230  -20.3140   -5.7800 N.3   354  ARG354     -0.1231
     50  CA       -16.5420  -21.6330   -5.8740 C.3   354  ARG354      0.1694
     51  C        -18.0350  -21.5430   -5.6550 C.2   354  ARG354      0.2592
     52  O        -18.4430  -20.9480   -4.7210 O.2   354  ARG354     -0.2718
     53  CB       -15.9170  -22.5880   -4.8650 C.3   354  ARG354      0.0321
     54  CG       -16.5530  -23.9030   -4.7900 C.3   354  ARG354      0.0489
     55  CD       -15.9360  -24.7480   -3.7280 C.3   354  ARG354      0.2205
     56  NE       -15.5370  -25.9960   -4.2960 N.pl3 354  ARG354     -0.0865
     57  CZ       -14.2990  -26.3510   -4.6050 C.cat 354  ARG354      0.5346
     58  NH1      -13.2710  -25.5580   -4.3760 N.pl3 354  ARG354      0.1354
     59  NH2      -14.1000  -27.5320   -5.1380 N.pl3 354  ARG354      0.1354
     60  N        -18.8160  -22.1660   -6.5230 N.am  355  CYS355     -0.1956
     61  CA       -20.2450  -21.9050   -6.6600 C.3   355  CYS355      0.1843
     62  C        -21.0270  -21.5930   -5.3880 C.2   355  CYS355      0.2622
     63  O        -21.2010  -22.4310   -4.5790 O.2   355  CYS355     -0.2715
     64  CB       -20.9710  -22.9950   -7.4690 C.3   355  CYS355      0.0997
     65  SG       -22.6910  -22.6660   -7.7940 S.3   355  CYS355     -0.0797
     66  N        -21.5130  -20.3660   -5.2640 N.am  356  ALA356     -0.2030
     67  CA       -22.3680  -20.0870   -4.0820 C.3   356  ALA356      0.1283
     68  C        -23.6730  -20.9200   -4.0420 C.3   356  ALA356      0.2036
     69  O        -24.2680  -21.2460   -2.9470 O.3   356  ALA356     -0.2185
     70  CB       -22.6990  -18.5180   -4.0120 C.3   356  ALA356      0.0262
     71  N        -23.9760  -24.0690   -4.8520 N.3   358  MET358     -0.1230
     72  CA       -23.7570  -25.4970   -4.9950 C.3   358  MET358      0.1702
     73  C        -24.6760  -26.3510   -4.1060 C.2   358  MET358      0.2592
     74  O        -25.0010  -27.4880   -4.4700 O.2   358  MET358     -0.2718
     75  CB       -22.2660  -25.8090   -4.7160 C.3   358  MET358      0.0401
     76  CG       -21.8870  -25.4680   -3.2740 C.3   358  MET358      0.0596
     77  SD       -20.1130  -26.0140   -2.8860 S.3   358  MET358     -0.1393
     78  CE       -19.7930  -27.1840   -4.1060 C.3   358  MET358      0.0692
     79  N        -25.0520  -25.8560   -2.9310 N.am  359  HIS359     -0.1976
     80  CA       -25.9860  -26.5800   -2.0680 C.3   359  HIS359      0.1656
     81  C        -27.4190  -26.5990   -2.6950 C.2   359  HIS359      0.2291
     82  O        -28.1200  -27.6360   -2.6310 O.2   359  HIS359     -0.2864
     83  CB       -26.0020  -25.9500   -0.6470 C.3   359  HIS359      0.0771
     84  CG       -24.6010  -25.7690   -0.0820 C.ar  359  HIS359      0.0820
     85  ND1      -23.7220  -26.8390    0.1020 N.ar  359  HIS359     -0.2267
     86  CD2      -23.9180  -24.6510    0.2740 C.ar  359  HIS359      0.1154
     87  CE1      -22.5710  -26.3830    0.5790 C.ar  359  HIS359      0.1986
     88  NE2      -22.6510  -25.0600    0.6650 N.ar  359  HIS359     -0.2212
@<TRIPOS>BOND
     1    65    64    1
     2    64    61    1
     3    61    60    1
     4    61    62    1
     5    60    51   am
     6    50    49    1
     7    50    51    1
     8    50    53    1
     9    51    52    2
    10    62    66   am
    11    62    63    2
    12    66    67    1
    13    59    57    1
    14    72    71    1
    15    72    75    1
    16    72    73    1
    17    53    54    1
    18    54    55    1
    19    75    76    1
    20    57    58    1
    21    57    56    2
    22    74    73    2
    23    56    55    1
    24    78    77    1
    25    73    79   am
    26    67    68    1
    27    67    70    1
    28    68    69    1
    29    26    25    1
    30    10     9    1
    31    76    77    1
    32    27    25    1
    33    79    80    1
    34    81    82    2
    35    81    80    1
    36    25    24    1
    37     9    11    1
    38     9     8    2
    39     7     8    1
    40     7     6    1
    41    80    83    1
    42    24    21    1
    43     5     6    1
    44     5     2    1
    45     1     2    1
    46     2     3    1
    47    83    84    1
    48    21    20    1
    49    21    22    1
    50    84    85   ar
    51    84    86   ar
    52    18    17   ar
    53    23    22    2
    54    85    87   ar
    55     3     4    2
    56    86    88   ar
    57    12    13    1
    58    22    28   am
    59    87    88   ar
    60    17    19   ar
    61    17    16    1
    62    13    16    1
    63    13    14    1
    64    28    29    1
    65    14    15    2
    66    29    30    1
    67    29    32    1
    68    31    30    2
    69    30    36   am
    70    36    37    1
    71    37    40    1
    72    37    38    1
    73    41    42    1
    74    41    40    1
    75    41    43    1
    76    39    38    2
    77    32    33    1
    78    38    44   am
    79    33    34    2
    80    33    35   am
    81    44    45    1
    82    46    47    2
    83    46    45    1
    84    45    48    1
