@<TRIPOS>MOLECULE
tmp/4dy4A00.pdb
 97 96 0 0 0
SMALL
GASTEIGER

@<TRIPOS>ATOM
      1  N        -18.8790   14.6000    2.0770 N.3    10  MET10      -0.1230
      2  CA       -19.0430   16.0080    2.4040 C.3    10  MET10       0.1702
      3  C        -19.9130   16.7540    1.4080 C.2    10  MET10       0.2592
      4  O        -20.7600   17.5290    1.8300 O.2    10  MET10      -0.2718
      5  CB       -17.6930   16.6950    2.5820 C.3    10  MET10       0.0401
      6  CG       -17.8440   18.1470    3.0320 C.3    10  MET10       0.0596
      7  SD       -16.6900   18.6810    4.2960 S.3    10  MET10      -0.1393
      8  CE       -17.2020   20.4000    4.3530 C.3    10  MET10       0.0692
      9  N        -19.7140   16.4900    0.1150 N.am   11  TYR11      -0.1976
     10  CA       -20.3960   17.2430   -0.9310 C.3    11  TYR11       0.1639
     11  C        -21.3350   16.3880   -1.7590 C.2    11  TYR11       0.2290
     12  O        -21.8150   16.8360   -2.7890 O.2    11  TYR11      -0.2864
     13  CB       -19.3620   17.9530   -1.8150 C.3    11  TYR11       0.0560
     14  CG       -18.4800   18.9210   -1.0630 C.ar   11  TYR11      -0.0198
     15  CD1      -18.9940   20.1220   -0.5780 C.ar   11  TYR11      -0.0009
     16  CD2      -17.1430   18.6400   -0.8020 C.ar   11  TYR11      -0.0009
     17  CE1      -18.1910   21.0110    0.1150 C.ar   11  TYR11       0.0417
     18  CE2      -16.3230   19.5380   -0.1060 C.ar   11  TYR11       0.0417
     19  CZ       -16.8650   20.7280    0.3410 C.ar   11  TYR11       0.1957
     20  OH       -16.1260   21.6300    1.0660 O.3    11  TYR11      -0.2866
     21  N        -14.4510    9.6500    0.3270 N.3    76  PRO76      -0.2102
     22  CA       -13.6940   10.4410   -0.6290 C.3    76  PRO76       0.1504
     23  C        -12.1990   10.2580   -0.4260 C.2    76  PRO76       0.2576
     24  O        -11.7340    9.8680    0.6360 O.2    76  PRO76      -0.2718
     25  CB       -14.0950   11.8640   -0.2930 C.3    76  PRO76       0.0282
     26  CG       -14.5330   11.8320    1.0860 C.3    76  PRO76       0.0208
     27  CD       -15.0270   10.4810    1.4000 C.3    76  PRO76       0.0893
     28  N        -11.4510   10.5540   -1.4780 N.am   77  THR77      -0.1939
     29  CA        -9.9930   10.6080   -1.4090 C.3    77  THR77       0.2028
     30  C         -9.6000   11.9110   -0.7610 C.2    77  THR77       0.2642
     31  O         -9.9930   12.9870   -1.2380 O.2    77  THR77      -0.2714
     32  CB        -9.4020   10.5220   -2.8360 C.3    77  THR77       0.1808
     33  OG1       -9.6700    9.2360   -3.4080 O.3    77  THR77      -0.2208
     34  CG2       -7.9310   10.7730   -2.8970 C.3    77  THR77       0.0379
     35  N         -8.8100   11.8000    0.3090 N.am   78  ARG78      -0.1963
     36  CA        -8.2650   12.9330    1.0520 C.3    78  ARG78       0.1729
     37  C         -6.7520   12.7560    1.0890 C.2    78  ARG78       0.2616
     38  O         -6.2070   12.0780    1.9490 O.2    78  ARG78      -0.2715
     39  CB        -8.8640   13.0090    2.4560 C.3    78  ARG78       0.0348
     40  CG       -10.4180   13.1510    2.5160 C.3    78  ARG78       0.0492
     41  CD       -10.8530   14.4530    1.8980 C.3    78  ARG78       0.2205
     42  NE       -12.2620   14.8720    2.0270 N.pl3  78  ARG78      -0.0865
     43  CZ       -12.8330   15.4420    3.0880 C.cat  78  ARG78       0.5346
     44  NH1      -12.2120   15.5710    4.2460 N.pl3  78  ARG78       0.1354
     45  NH2      -14.0760   15.9010    2.9730 N.pl3  78  ARG78       0.1354
     46  N         -6.0690   13.3490    0.1180 N.am   79  PHE79      -0.1960
     47  CA        -4.6110   13.2100   -0.0350 C.3    79  PHE79       0.1771
     48  C         -4.1790   11.7400    0.0410 C.2    79  PHE79       0.2620
     49  O         -3.2200   11.3810    0.7100 O.2    79  PHE79      -0.2715
     50  CB        -3.8480   14.0830    0.9350 C.3    79  PHE79       0.0574
     51  CG        -4.1970   15.5530    0.8310 C.ar   79  PHE79      -0.0200
     52  CD1       -4.2610   16.2080   -0.3980 C.ar   79  PHE79      -0.0042
     53  CD2       -4.4540   16.2830    1.9700 C.ar   79  PHE79      -0.0042
     54  CE1       -4.5570   17.5490   -0.4690 C.ar   79  PHE79      -0.0003
     55  CE2       -4.7390   17.6500    1.9110 C.ar   79  PHE79      -0.0003
     56  CZ        -4.8150   18.2660    0.6810 C.ar   79  PHE79      -0.0000
     57  N         -4.9030   10.8980   -0.6850 N.am   80  GLY80      -0.1954
     58  CA        -4.5610    9.4920   -0.8080 C.3    80  GLY80       0.1869
     59  C         -4.8470    8.6290    0.4080 C.2    80  GLY80       0.2309
     60  O         -4.3620    7.4890    0.5010 O.2    80  GLY80      -0.2863
     61  N        -14.0620    8.5230   -4.3580 N.3   112  SER112     -0.1202
     62  CA       -14.3150    9.6570   -5.2180 C.3   112  SER112      0.2020
     63  C        -13.0740   10.5510   -5.1510 C.2   112  SER112      0.2619
     64  O        -12.3680   10.5680   -4.1560 O.2   112  SER112     -0.2717
     65  CB       -15.5430   10.4390   -4.7440 C.3   112  SER112      0.2103
     66  OG       -15.7410   11.6150   -5.5020 O.3   112  SER112     -0.2182
     67  N        -12.8070   11.2900   -6.2150 N.am  113  THR113     -0.1938
     68  CA       -11.6890   12.2100   -6.2760 C.3   113  THR113      0.2028
     69  C        -12.1050   13.4840   -6.9720 C.2   113  THR113      0.2643
     70  O        -13.0850   13.4920   -7.6760 O.2   113  THR113     -0.2714
     71  CB       -10.4900   11.6560   -7.0450 C.3   113  THR113      0.1808
     72  OG1      -10.8640   11.4370   -8.3970 O.3   113  THR113     -0.2208
     73  CG2       -9.9800   10.4090   -6.4450 C.3   113  THR113      0.0379
     74  N        -11.3410   14.5340   -6.7700 N.am  114  GLY114     -0.1939
     75  CA       -11.5410   15.7710   -7.5240 C.3   114  GLY114      0.2014
     76  C        -10.9800   15.6370   -8.9370 C.2   114  GLY114      0.2640
     77  O        -11.6700   15.8910   -9.9110 O.2   114  GLY114     -0.2714
     78  N         -9.7340   15.1840   -9.0420 N.am  115  THR115     -0.1936
     79  CA        -9.0240   15.1410  -10.3250 C.3   115  THR115      0.2028
     80  C         -8.2820   13.8170  -10.6060 C.2   115  THR115      0.2643
     81  O         -7.4670   13.7540  -11.5480 O.2   115  THR115     -0.2714
     82  CB        -8.0370   16.3440  -10.4690 C.3   115  THR115      0.1808
     83  OG1       -7.0860   16.3630   -9.4040 O.3   115  THR115     -0.2208
     84  CG2       -8.7800   17.6920  -10.4760 C.3   115  THR115      0.0379
     85  N         -8.5510   12.7740   -9.8140 N.am  116  GLY116     -0.1939
     86  CA        -8.0160   11.4210  -10.0600 C.3   116  GLY116      0.2014
     87  C         -6.9150   10.9510   -9.1120 C.2   116  GLY116      0.2639
     88  O         -6.8920    9.7580   -8.6540 O.2   116  GLY116     -0.2714
     89  N         -6.0100   11.8590   -8.7580 N.am  117  GLY117     -0.1954
     90  CA        -4.7820   11.4620   -8.0490 C.3   117  GLY117      0.1869
     91  C         -5.0650   11.0270   -6.6230 C.2   117  GLY117      0.2309
     92  O         -5.7390   11.7030   -5.8580 O.2   117  GLY117     -0.2863
     93  N        -15.1790   14.1860   -9.2540 N.3   162  ALA162     -0.1245
     94  CA       -15.9810   15.3410   -8.8270 C.3   162  ALA162      0.1562
     95  C        -15.5840   16.6150   -9.5320 C.2   162  ALA162      0.2260
     96  O        -16.3060   17.6110   -9.4390 O.2   162  ALA162     -0.2867
     97  CB       -15.8540   15.5230   -7.3120 C.3   162  ALA162      0.0290
@<TRIPOS>BOND
     1    81    80    2
     2    80    79    1
     3    80    85   am
     4    84    82    1
     5    82    79    1
     6    82    83    1
     7    79    78    1
     8    86    85    1
     9    86    87    1
    10    77    76    2
    11    95    96    2
    12    95    94    1
    13    93    94    1
    14    87    89   am
    15    87    88    2
    16    78    76   am
    17    76    75    1
    18    94    97    1
    19    89    90    1
    20    72    71    1
    21    90    91    1
    22    70    69    2
    23    75    74    1
    24    71    73    1
    25    71    68    1
    26    69    74   am
    27    69    68    1
    28    91    92    2
    29    68    67    1
    30    67    63   am
    31    66    65    1
    32    62    63    1
    33    62    65    1
    34    62    61    1
    35    63    64    2
    36    33    32    1
    37    34    32    1
    38    32    29    1
    39    12    11    2
    40    13    14    1
    41    13    10    1
    42    11    10    1
    43    28    29    1
    44    28    23   am
    45    29    30    1
    46    31    30    2
    47    14    16   ar
    48    14    15   ar
    49    10     9    1
    50    58    57    1
    51    58    59    1
    52    16    18   ar
    53    30    35   am
    54    57    48   am
    55    22    23    1
    56    22    25    1
    57    22    21    1
    58    15    17   ar
    59    54    52   ar
    60    54    56   ar
    61    23    24    2
    62    52    51   ar
    63    25    26    1
    64    18    19   ar
    65    47    48    1
    66    47    46    1
    67    47    50    1
    68    48    49    2
    69     9     3   am
    70    17    19   ar
    71    46    37   am
    72    35    36    1
    73    21    27    1
    74    19    20    1
    75    59    60    2
    76    56    55   ar
    77    51    50    1
    78    51    53   ar
    79    36    37    1
    80    36    39    1
    81    26    27    1
    82    37    38    2
    83     3     4    2
    84     3     2    1
    85    41    42    1
    86    41    40    1
    87    55    53   ar
    88    42    43    2
    89     1     2    1
    90     2     5    1
    91    39    40    1
    92     5     6    1
    93    45    43    1
    94     6     7    1
    95    43    44    1
    96     7     8    1
