@<TRIPOS>MOLECULE
tmp/4dy6A00.pdb
 143 139 0 0 0
SMALL
GASTEIGER

@<TRIPOS>ATOM
      1  N         14.4710   13.4670   21.1150 N.3    44  GLY44      -0.1210
      2  CA        15.5450   13.0380   20.2350 C.3    44  GLY44       0.1956
      3  C         15.6150   13.8830   18.9760 C.2    44  GLY44       0.2612
      4  O         15.0380   14.9680   18.8890 O.2    44  GLY44      -0.2717
      5  N         16.3450   13.3810   17.9890 N.am   45  ASP45      -0.1959
      6  CA        16.4290   14.0610   16.7030 C.3    45  ASP45       0.1840
      7  C         15.1070   14.0170   15.9220 C.2    45  ASP45       0.2622
      8  O         14.7980   14.9560   15.1990 O.2    45  ASP45      -0.2715
      9  CB        17.6210   13.5210   15.8870 C.3    45  ASP45       0.1450
     10  CG        18.9470   14.0940   16.3590 C.2    45  ASP45       0.3671
     11  OD1       18.9460   15.1660   17.0200 O.co2  45  ASP45      -0.2456
     12  OD2       19.9950   13.4880   16.0690 O.co2  45  ASP45      -0.2456
     13  N         14.3340   12.9390   16.0680 N.am   46  GLY46      -0.1954
     14  CA        12.9860   12.8690   15.4890 C.3    46  GLY46       0.1869
     15  C         12.0570   13.9660   16.0330 C.2    46  GLY46       0.2309
     16  O         11.3160   14.6040   15.2650 O.2    46  GLY46      -0.2863
     17  N         13.3370   17.2300   14.4600 N.3    49  LEU49      -0.1245
     18  CA        12.8500   17.2950   13.0730 C.3    49  LEU49       0.1561
     19  C         11.3710   17.7310   12.9720 C.2    49  LEU49       0.2260
     20  O         11.0140   18.5420   12.1050 O.2    49  LEU49      -0.2867
     21  CB        13.0310   15.9500   12.3790 C.3    49  LEU49       0.0270
     22  CG        14.2410   15.6570   11.4680 C.3    49  LEU49       0.0019
     23  CD1       14.9530   16.9450   10.9740 C.3    49  LEU49       0.0001
     24  CD2       15.2440   14.6990   12.1060 C.3    49  LEU49       0.0001
     25  N         19.9830    9.1830   24.4920 N.3    71  HIS71      -0.1241
     26  CA        21.3520    9.2960   23.9740 C.3    71  HIS71       0.1621
     27  C         21.5610   10.6180   23.2370 C.2    71  HIS71       0.2264
     28  O         20.5990   11.2840   22.8590 O.2    71  HIS71      -0.2867
     29  CB        21.6650    8.1320   23.0280 C.3    71  HIS71       0.0745
     30  CG        20.9490    8.2200   21.7170 C.ar   71  HIS71       0.0817
     31  ND1       21.5810    8.5820   20.5460 N.ar   71  HIS71      -0.2268
     32  CD2       19.6500    8.0180   21.3950 C.ar   71  HIS71       0.1154
     33  CE1       20.7040    8.5890   19.5580 C.ar   71  HIS71       0.1986
     34  NE2       19.5240    8.2520   20.0470 N.ar   71  HIS71      -0.2212
     35  N         22.2100   13.5470   20.5970 N.3    73  GLY73      -0.1210
     36  CA        21.6440   13.8180   19.2810 C.3    73  GLY73       0.1956
     37  C         22.5290   14.7510   18.4720 C.2    73  GLY73       0.2612
     38  O         23.4430   15.3900   19.0070 O.2    73  GLY73      -0.2717
     39  N         22.2760   14.8300   17.1800 N.am   74  PHE74      -0.1962
     40  CA        22.9970   15.7830   16.3720 C.3    74  PHE74       0.1771
     41  C         22.3410   17.1270   16.4240 C.2    74  PHE74       0.2619
     42  O         23.0100   18.1550   16.3610 O.2    74  PHE74      -0.2715
     43  CB        23.1500   15.2990   14.9310 C.3    74  PHE74       0.0574
     44  CG        24.4010   14.5790   14.7290 C.ar   74  PHE74      -0.0200
     45  CD1       24.4700   13.2250   14.9680 C.ar   74  PHE74      -0.0042
     46  CD2       25.5490   15.2700   14.4200 C.ar   74  PHE74      -0.0042
     47  CE1       25.6610   12.5480   14.8320 C.ar   74  PHE74      -0.0003
     48  CE2       26.7390   14.6150   14.2790 C.ar   74  PHE74      -0.0003
     49  CZ        26.7970   13.2420   14.4850 C.ar   74  PHE74      -0.0000
     50  N         21.0260   17.1310   16.5230 N.am   75  TYR75      -0.1974
     51  CA        20.3440   18.3780   16.7070 C.3    75  TYR75       0.1639
     52  C         20.1360   18.6360   18.1920 C.2    75  TYR75       0.2290
     53  O         20.3600   19.7450   18.6430 O.2    75  TYR75      -0.2864
     54  CB        19.0680   18.4040   15.8980 C.3    75  TYR75       0.0560
     55  CG        19.3400   18.1840   14.4340 C.ar   75  TYR75      -0.0198
     56  CD1       20.2070   19.0180   13.7370 C.ar   75  TYR75      -0.0009
     57  CD2       18.7490   17.1480   13.7460 C.ar   75  TYR75      -0.0009
     58  CE1       20.4780   18.8190   12.3930 C.ar   75  TYR75       0.0417
     59  CE2       19.0040   16.9450   12.4000 C.ar   75  TYR75       0.0417
     60  CZ        19.8660   17.7880   11.7230 C.ar   75  TYR75       0.1957
     61  OH        20.1340   17.5950   10.3880 O.3    75  TYR75      -0.2866
     62  N         17.2170   17.0070    7.0480 N.3   117  ASN117     -0.1225
     63  CA        18.0530   15.8370    6.8530 C.3   117  ASN117      0.1785
     64  C         18.1680   15.4890    5.3500 C.2   117  ASN117      0.2597
     65  O         19.2020   15.7240    4.7390 O.2   117  ASN117     -0.2718
     66  CB        17.5300   14.6570    7.6670 C.3   117  ASN117      0.1169
     67  CG        18.1420   14.5680    9.0620 C.2   117  ASN117      0.2627
     68  OD1       18.9550   15.4070    9.4750 O.2   117  ASN117     -0.2716
     69  ND2       17.7650   13.5070    9.7910 N.am  117  ASN117     -0.0877
     70  N         17.1190   14.9330    4.7530 N.am  118  GLU118     -0.1979
     71  CA        17.2100   14.4950    3.3650 C.3   118  GLU118      0.1602
     72  C         15.8390   14.2800    2.7090 C.2   118  GLU118      0.2287
     73  O         14.7910   14.2560    3.3800 O.2   118  GLU118     -0.2864
     74  CB        18.0130   13.1880    3.3050 C.3   118  GLU118      0.0415
     75  CG        17.2460   11.9660    3.6840 C.3   118  GLU118      0.1163
     76  CD        17.0830   11.8110    5.1800 C.2   118  GLU118      0.3649
     77  OE1       15.9360   11.6440    5.6310 O.co2 118  GLU118     -0.2457
     78  OE2       18.0940   11.8290    5.8980 O.co2 118  GLU118     -0.2457
     79  N         24.0360   18.6970    7.4130 N.3   153  SER153     -0.1217
     80  CA        23.7280   18.0980    8.7180 C.3   153  SER153      0.1889
     81  C         23.0390   16.7390    8.5820 C.2   153  SER153      0.2288
     82  O         23.1460   15.8840    9.4600 O.2   153  SER153     -0.2866
     83  CB        22.9120   19.0460    9.5960 C.3   153  SER153      0.2089
     84  OG        21.6850   19.4140    8.9950 O.3   153  SER153     -0.2183
     85  N         25.1600   12.7750    8.4470 N.3   156  THR156     -0.1203
     86  CA        25.3510   11.7980    9.5370 C.3   156  THR156      0.1994
     87  C         24.2000   10.7880    9.6910 C.2   156  THR156      0.2618
     88  O         24.2510    9.8620   10.5090 O.2   156  THR156     -0.2717
     89  CB        25.6360   12.4940   10.8730 C.3   156  THR156      0.1784
     90  OG1       24.6650   13.5240   11.1290 O.3   156  THR156     -0.2211
     91  CG2       26.9910   13.1420   10.8330 C.3   156  THR156      0.0376
     92  N         23.1710   10.9590    8.8800 N.am  157  ALA157     -0.1965
     93  CA        21.9360   10.2000    9.0010 C.3   157  ALA157      0.1728
     94  C         21.9120    9.1540    7.8880 C.2   157  ALA157      0.2616
     95  O         22.9200    8.5140    7.6400 O.2   157  ALA157     -0.2715
     96  CB        20.7360   11.1690    8.9150 C.3   157  ALA157      0.0334
     97  N         20.7790    8.9830    7.2120 N.am  158  TYR158     -0.1974
     98  CA        20.6380    8.0340    6.0950 C.3   158  TYR158      0.1639
     99  C         21.7970    8.0890    5.0580 C.2   158  TYR158      0.2290
    100  O         22.3210    7.0500    4.6490 O.2   158  TYR158     -0.2864
    101  CB        19.2970    8.2890    5.4210 C.3   158  TYR158      0.0560
    102  CG        18.6810    7.1630    4.6230 C.ar  158  TYR158     -0.0198
    103  CD1       19.1810    5.8840    4.6420 C.ar  158  TYR158     -0.0009
    104  CD2       17.5250    7.3900    3.9070 C.ar  158  TYR158     -0.0009
    105  CE1       18.5820    4.8780    3.9340 C.ar  158  TYR158      0.0417
    106  CE2       16.9180    6.3960    3.1970 C.ar  158  TYR158      0.0417
    107  CZ        17.4620    5.1350    3.1960 C.ar  158  TYR158      0.1957
    108  OH        16.8280    4.1400    2.4870 O.3   158  TYR158     -0.2866
    109  N         24.6550    5.8210    6.0670 N.3   161  SER161     -0.1217
    110  CA        24.3550    4.3980    5.8890 C.3   161  SER161      0.1889
    111  C         24.5010    3.9490    4.4300 C.2   161  SER161      0.2288
    112  O         24.7270    2.7710    4.1600 O.2   161  SER161     -0.2866
    113  CB        22.9290    4.1120    6.3760 C.3   161  SER161      0.2089
    114  OG        22.8280    4.2810    7.7750 O.3   161  SER161     -0.2183
    115  N         12.5860   14.1200    5.1410 N.3   217  ASP217     -0.1225
    116  CA        12.8180   13.8010    6.5440 C.3   217  ASP217      0.1805
    117  C         11.9050   12.6330    6.9470 C.2   217  ASP217      0.2597
    118  O         11.9420   11.6090    6.2710 O.2   217  ASP217     -0.2718
    119  CB        12.6760   15.0560    7.4060 C.3   217  ASP217      0.1424
    120  CG        13.6750   16.1260    7.0240 C.2   217  ASP217      0.3668
    121  OD1       14.7210   15.7960    6.4340 O.co2 217  ASP217     -0.2456
    122  OD2       13.4400   17.3110    7.2950 O.co2 217  ASP217     -0.2456
    123  N         11.0900   12.7640    8.0000 N.am  218  HIS218     -0.1975
    124  CA        10.1470   11.6750    8.3950 C.3   218  HIS218      0.1656
    125  C          8.9340   11.4700    7.4470 C.2   218  HIS218      0.2291
    126  O          8.4340   10.3520    7.3170 O.2   218  HIS218     -0.2864
    127  CB         9.6410   11.8500    9.8370 C.3   218  HIS218      0.0771
    128  CG         9.0000   10.6160   10.4040 C.ar  218  HIS218      0.0820
    129  ND1        9.6640    9.7540   11.2520 N.ar  218  HIS218     -0.2267
    130  CD2        7.7620   10.0900   10.2310 C.ar  218  HIS218      0.1154
    131  CE1        8.8610    8.7570   11.5830 C.ar  218  HIS218      0.1986
    132  NE2        7.7000    8.9370   10.9770 N.ar  218  HIS218     -0.2212
    133  N         29.7310    8.5570   17.0220 N.3   256  PHE256     -0.1241
    134  CA        30.1770    7.4030   16.2350 C.3   256  PHE256      0.1605
    135  C         31.4280    6.6960   16.7580 C.2   256  PHE256      0.2264
    136  O         31.6000    5.5100   16.4900 O.2   256  PHE256     -0.2867
    137  CB        30.3380    7.7920   14.7580 C.3   256  PHE256      0.0534
    138  CG        29.0470    8.1930   14.1050 C.ar  256  PHE256     -0.0203
    139  CD1       28.8040    9.5010   13.7630 C.ar  256  PHE256     -0.0042
    140  CD2       28.0630    7.2640   13.8770 C.ar  256  PHE256     -0.0042
    141  CE1       27.6150    9.8820   13.1890 C.ar  256  PHE256     -0.0003
    142  CE2       26.8550    7.6410   13.3070 C.ar  256  PHE256     -0.0003
    143  CZ        26.6390    8.9630   12.9600 C.ar  256  PHE256     -0.0000
@<TRIPOS>BOND
     1   108   107    1
     2    72    71    1
     3    72    73    2
     4   107   106   ar
     5   107   105   ar
     6   106   104   ar
     7    74    71    1
     8    74    75    1
     9    71    70    1
    10    75    76    1
    11   104   102   ar
    12   105   103   ar
    13   112   111    2
    14   111   110    1
    15   102   103   ar
    16   102   101    1
    17   100    99    2
    18    65    64    2
    19    70    64   am
    20    99    98    1
    21   115   116    1
    22    76    77   ar
    23    76    78   ar
    24    64    63    1
    25   101    98    1
    26   110   109    1
    27   110   113    1
    28    98    97    1
    29   118   117    2
    30   113   114    1
    31   121   120   ar
    32   116   117    1
    33   116   119    1
    34    63    62    1
    35    63    66    1
    36   117   123   am
    37   120   122   ar
    38   120   119    1
    39    97    94   am
    40   126   125    2
    41    79    80    1
    42   125   124    1
    43    95    94    2
    44    66    67    1
    45    94    93    1
    46   123   124    1
    47   124   127    1
    48    85    86    1
    49    81    80    1
    50    81    82    2
    51    80    83    1
    52    92    93    1
    53    92    87   am
    54    96    93    1
    55    84    83    1
    56    67    68    2
    57    67    69   am
    58    86    87    1
    59    86    89    1
    60    87    88    2
    61   127   128    1
    62   130   128   ar
    63   130   132   ar
    64    61    60    1
    65   128   129   ar
    66    91    89    1
    67    89    90    1
    68    23    22    1
    69   132   131   ar
    70   129   131   ar
    71    22    24    1
    72    22    21    1
    73    60    58   ar
    74    60    59   ar
    75    20    19    2
    76    21    18    1
    77    58    56   ar
    78    59    57   ar
    79   143   141   ar
    80   143   142   ar
    81    19    18    1
    82    18    17    1
    83   141   139   ar
    84   142   140   ar
    85    56    55   ar
    86    57    55   ar
    87   139   138   ar
    88   140   138   ar
    89   138   137    1
    90    48    46   ar
    91    48    49   ar
    92    46    44   ar
    93    55    54    1
    94    49    47   ar
    95    44    43    1
    96    44    45   ar
    97   137   134    1
    98    47    45   ar
    99    43    40    1
   100     8     7    2
   101    16    15    2
   102    14    15    1
   103    14    13    1
   104     9    10    1
   105     9     6    1
   106    54    51    1
   107     7    13   am
   108     7     6    1
   109    12    10   ar
   110   134   135    1
   111   134   133    1
   112    10    11   ar
   113    42    41    2
   114    40    41    1
   115    40    39    1
   116    41    50   am
   117   136   135    2
   118    50    51    1
   119     6     5    1
   120    51    52    1
   121    39    37   am
   122     5     3   am
   123    52    53    2
   124    37    38    2
   125    37    36    1
   126     4     3    2
   127     3     2    1
   128    36    35    1
   129    33    34   ar
   130    33    31   ar
   131    34    32   ar
   132     2     1    1
   133    31    30   ar
   134    32    30   ar
   135    30    29    1
   136    28    27    2
   137    29    26    1
   138    27    26    1
   139    26    25    1
