@<TRIPOS>MOLECULE
tmp/4dyaA00.pdb
 125 118 0 0 0
SMALL
GASTEIGER

@<TRIPOS>ATOM
      1  N         37.7350  -26.0170   11.5710 N.3     5  ARG5       -0.1245
      2  CA        36.5330  -26.5500   12.2080 C.3     5  ARG5        0.1563
      3  C         36.0170  -25.6020   13.2770 C.2     5  ARG5        0.2260
      4  O         34.8040  -25.4780   13.4710 O.2     5  ARG5       -0.2867
      5  CB        36.7940  -27.9360   12.8010 C.3     5  ARG5        0.0307
      6  CG        36.8380  -29.0480   11.7630 C.3     5  ARG5        0.0489
      7  CD        36.9420  -30.4160   12.4090 C.3     5  ARG5        0.2205
      8  NE        35.8230  -30.6720   13.3120 N.pl3   5  ARG5       -0.0865
      9  CZ        34.6530  -31.1810   12.9390 C.cat   5  ARG5        0.5346
     10  NH1       33.7010  -31.3630   13.8440 N.pl3   5  ARG5        0.1354
     11  NH2       34.4290  -31.5030   11.6680 N.pl3   5  ARG5        0.1354
     12  N         19.3850  -27.3030   15.6600 N.3   231  ALA231     -0.1245
     13  CA        20.4770  -28.0070   16.3200 C.3   231  ALA231      0.1562
     14  C         20.9960  -27.2350   17.5290 C.2   231  ALA231      0.2260
     15  O         21.2230  -27.8210   18.5930 O.2   231  ALA231     -0.2867
     16  CB        21.6010  -28.2830   15.3370 C.3   231  ALA231      0.0290
     17  N         20.5300  -28.3660   21.8110 N.3   235  GLY235     -0.1210
     18  CA        21.6680  -28.5480   22.7020 C.3   235  GLY235      0.1956
     19  C         22.9250  -29.0400   22.0170 C.2   235  GLY235      0.2611
     20  O         23.6750  -29.8330   22.5900 O.2   235  GLY235     -0.2717
     21  N         23.1540  -28.5740   20.7900 N.am  236  TYR236     -0.1976
     22  CA        24.3750  -28.8850   20.0600 C.3   236  TYR236      0.1639
     23  C         25.2160  -27.6220   19.9340 C.2   236  TYR236      0.2290
     24  O         24.7440  -26.5960   19.4340 O.2   236  TYR236     -0.2864
     25  CB        24.0560  -29.4640   18.6800 C.3   236  TYR236      0.0560
     26  CG        25.2380  -30.1110   17.9860 C.ar  236  TYR236     -0.0198
     27  CD1       25.6410  -31.4030   18.3180 C.ar  236  TYR236     -0.0009
     28  CD2       25.9470  -29.4350   16.9910 C.ar  236  TYR236     -0.0009
     29  CE1       26.7240  -32.0060   17.6870 C.ar  236  TYR236      0.0417
     30  CE2       27.0360  -30.0300   16.3520 C.ar  236  TYR236      0.0417
     31  CZ        27.4150  -31.3160   16.7060 C.ar  236  TYR236      0.1957
     32  OH        28.4830  -31.9170   16.0820 O.3   236  TYR236     -0.2866
     33  N         28.1340  -26.0070   18.1560 N.3   238  PHE238     -0.1241
     34  CA        28.9970  -26.0810   16.9740 C.3   238  PHE238      0.1605
     35  C         30.4050  -25.5370   17.2090 C.2   238  PHE238      0.2264
     36  O         31.3490  -25.9320   16.5220 O.2   238  PHE238     -0.2867
     37  CB        28.3570  -25.3670   15.7850 C.3   238  PHE238      0.0534
     38  CG        27.1690  -26.0790   15.2130 C.ar  238  PHE238     -0.0203
     39  CD1       27.3360  -27.1370   14.3310 C.ar  238  PHE238     -0.0042
     40  CD2       25.8790  -25.6800   15.5430 C.ar  238  PHE238     -0.0042
     41  CE1       26.2350  -27.7930   13.7900 C.ar  238  PHE238     -0.0003
     42  CE2       24.7720  -26.3280   15.0050 C.ar  238  PHE238     -0.0003
     43  CZ        24.9510  -27.3870   14.1310 C.ar  238  PHE238     -0.0000
     44  N         32.0480  -28.4580   19.2920 N.3   241  GLU241     -0.1245
     45  CA        32.1470  -29.6650   18.4730 C.3   241  GLU241      0.1567
     46  C         32.9680  -29.4240   17.2180 C.2   241  GLU241      0.2260
     47  O         33.4570  -30.3710   16.5970 O.2   241  GLU241     -0.2867
     48  CB        30.7580  -30.1650   18.0530 C.3   241  GLU241      0.0388
     49  CG        29.8000  -30.5090   19.1890 C.3   241  GLU241      0.1160
     50  CD        30.2460  -31.6920   20.0280 C.2   241  GLU241      0.3649
     51  OE1       31.1410  -32.4490   19.5910 O.co2 241  GLU241     -0.2457
     52  OE2       29.6870  -31.8610   21.1340 O.co2 241  GLU241     -0.2457
     53  N         32.8610  -27.8880   13.2200 N.3   243  TYR243     -0.1241
     54  CA        31.9510  -28.2260   12.1260 C.3   243  TYR243      0.1605
     55  C         32.6830  -28.1840   10.7870 C.2   243  TYR243      0.2264
     56  O         33.6400  -27.4260   10.6150 O.2   243  TYR243     -0.2867
     57  CB        30.7340  -27.2880   12.1180 C.3   243  TYR243      0.0534
     58  CG        29.6000  -27.7140   11.2100 C.ar  243  TYR243     -0.0201
     59  CD1       28.7590  -28.7710   11.5560 C.ar  243  TYR243     -0.0009
     60  CD2       29.3550  -27.0460   10.0080 C.ar  243  TYR243     -0.0009
     61  CE1       27.7060  -29.1590   10.7210 C.ar  243  TYR243      0.0417
     62  CE2       28.3060  -27.4270    9.1670 C.ar  243  TYR243      0.0417
     63  CZ        27.4880  -28.4800    9.5310 C.ar  243  TYR243      0.1957
     64  OH        26.4550  -28.8520    8.7070 O.3   243  TYR243     -0.2866
     65  N         31.9610  -35.2580    7.2100 N.3   248  ILE248     -0.1231
     66  CA        30.7590  -36.0100    7.5750 C.3   248  ILE248      0.1692
     67  C         29.6640  -35.1320    8.2050 C.2   248  ILE248      0.2592
     68  O         28.4760  -35.4350    8.0810 O.2   248  ILE248     -0.2718
     69  CB        31.1120  -37.2220    8.5000 C.3   248  ILE248      0.0266
     70  CG1       29.9090  -38.1710    8.6520 C.3   248  ILE248      0.0019
     71  CG2       31.6790  -36.7470    9.8570 C.3   248  ILE248      0.0020
     72  CD1       30.2110  -39.4910    9.3650 C.3   248  ILE248      0.0001
     73  N         30.0790  -34.0410    8.8510 N.am  249  ASP249     -0.1974
     74  CA        29.2070  -33.1930    9.6800 C.3   249  ASP249      0.1709
     75  C         27.8050  -32.9100    9.1080 C.2   249  ASP249      0.2293
     76  O         26.8160  -33.2510    9.7520 O.2   249  ASP249     -0.2864
     77  CB        29.9130  -31.8780   10.0570 C.3   249  ASP249      0.1436
     78  CG        31.2940  -32.0960   10.6780 C.2   249  ASP249      0.3671
     79  OD1       31.5510  -31.5370   11.7620 O.co2 249  ASP249     -0.2456
     80  OD2       32.1290  -32.8080   10.0810 O.co2 249  ASP249     -0.2456
     81  N         25.5610  -35.9340    8.9480 N.3   252  ARG252     -0.1231
     82  CA        25.2210  -36.3130   10.3100 C.3   252  ARG252      0.1694
     83  C         24.1830  -35.3650   10.8990 C.2   252  ARG252      0.2591
     84  O         23.2980  -35.7890   11.6440 O.2   252  ARG252     -0.2718
     85  CB        26.4780  -36.2970   11.1680 C.3   252  ARG252      0.0321
     86  CG        26.5820  -37.4390   12.1490 C.3   252  ARG252      0.0489
     87  CD        28.0380  -37.8450   12.2590 C.3   252  ARG252      0.2205
     88  NE        28.3760  -38.4530   13.5440 N.pl3 252  ARG252     -0.0865
     89  CZ        28.5340  -39.7580   13.7430 C.cat 252  ARG252      0.5346
     90  NH1       28.8530  -40.2000   14.9520 N.pl3 252  ARG252      0.1354
     91  NH2       28.3790  -40.6150   12.7410 N.pl3 252  ARG252      0.1354
     92  N         24.2940  -34.0830   10.5600 N.am  253  LEU253     -0.1980
     93  CA        23.3310  -33.0950   11.0300 C.3   253  LEU253      0.1596
     94  C         21.9470  -33.3640   10.4420 C.2   253  LEU253      0.2287
     95  O         20.9650  -33.4110   11.1800 O.2   253  LEU253     -0.2864
     96  CB        23.7990  -31.6660   10.7370 C.3   253  LEU253      0.0297
     97  CG        22.8580  -30.5070   11.0980 C.3   253  LEU253      0.0022
     98  CD1       22.3610  -30.5800   12.5370 C.3   253  LEU253      0.0001
     99  CD2       23.5430  -29.1750   10.8410 C.3   253  LEU253      0.0001
    100  N         20.0220  -36.0300   11.9490 N.3   256  ASN256     -0.1240
    101  CA        19.4150  -35.6790   13.2270 C.3   256  ASN256      0.1653
    102  C         18.4760  -34.4770   13.1090 C.2   256  ASN256      0.2266
    103  O         18.1490  -33.8280   14.1040 O.2   256  ASN256     -0.2867
    104  CB        20.5060  -35.4480   14.2790 C.3   256  ASN256      0.1155
    105  CG        21.2870  -36.7150   14.5950 C.2   256  ASN256      0.2627
    106  OD1       22.4400  -36.8640   14.1950 O.2   256  ASN256     -0.2716
    107  ND2       20.6500  -37.6440   15.2960 N.am  256  ASN256     -0.0877
    108  N         32.8220  -42.2380   11.3150 N.3   407  GLU407     -0.1231
    109  CA        33.1060  -40.8200   11.6010 C.3   407  GLU407      0.1699
    110  C         34.4170  -40.3740   10.9680 C.2   407  GLU407      0.2592
    111  O         34.4780  -39.3380   10.3090 O.2   407  GLU407     -0.2718
    112  CB        33.1820  -40.5480   13.1160 C.3   407  GLU407      0.0402
    113  CG        32.3610  -41.4780   14.0160 C.3   407  GLU407      0.1161
    114  CD        32.7780  -42.9240   14.2150 C.2   407  GLU407      0.3649
    115  OE1       33.7460  -43.5450   13.7740 O.co2 407  GLU407     -0.2457
    116  OE2       31.9550  -43.5240   15.0050 O.co2 407  GLU407     -0.2457
    117  N         35.4590  -41.1730   11.1780 N.am  408  LYS408     -0.1980
    118  CA        36.8150  -40.8270   10.7660 C.3   408  LYS408      0.1596
    119  C         37.1290  -41.2000    9.3160 C.2   408  LYS408      0.2287
    120  O         38.2590  -40.9990    8.8590 O.2   408  LYS408     -0.2864
    121  CB        37.8350  -41.4600   11.7200 C.3   408  LYS408      0.0298
    122  CG        37.9250  -40.7790   13.0740 C.3   408  LYS408      0.0038
    123  CD        38.3950  -39.3470   12.9170 C.3   408  LYS408      0.0206
    124  CE        38.5780  -38.6660   14.2550 C.3   408  LYS408      0.1093
    125  NZ        37.2740  -38.4600   14.9290 N.3   408  LYS408     -0.1314
@<TRIPOS>BOND
     1    65    66    1
     2    66    67    1
     3    66    69    1
     4    68    67    2
     5    67    73   am
     6    69    70    1
     7    69    71    1
     8    70    72    1
     9    64    63    1
    10    73    74    1
    11   120   119    2
    12    81    82    1
    13    75    74    1
    14    75    76    2
    15    62    63   ar
    16    62    60   ar
    17   119   118    1
    18    63    61   ar
    19    74    77    1
    20    60    58   ar
    21    77    78    1
    22    80    78   ar
    23   111   110    2
    24    82    83    1
    25    82    85    1
    26    94    93    1
    27    94    95    2
    28    92    83   am
    29    92    93    1
    30    56    55    2
    31    78    79   ar
    32    61    59   ar
    33    96    93    1
    34    96    97    1
    35   118   117    1
    36   118   121    1
    37    55    54    1
    38    99    97    1
    39    83    84    2
    40   110   117   am
    41   110   109    1
    42    97    98    1
    43    85    86    1
    44    58    59   ar
    45    58    57    1
    46   108   109    1
    47     1     2    1
    48   109   112    1
    49    11     9    1
    50   121   122    1
    51     6     7    1
    52     6     5    1
    53   100   101    1
    54    57    54    1
    55    54    53    1
    56    86    87    1
    57     2     5    1
    58     2     3    1
    59    87    88    1
    60     7     8    1
    61    91    89    1
    62   123   122    1
    63   123   124    1
    64     9     8    2
    65     9    10    1
    66   102   101    1
    67   102   103    2
    68   112   113    1
    69   101   104    1
    70     3     4    2
    71    88    89    2
    72    89    90    1
    73   115   114   ar
    74    41    43   ar
    75    41    39   ar
    76   113   114    1
    77    43    42   ar
    78   106   105    2
    79   114   116   ar
    80   124   125    1
    81   104   105    1
    82    39    38   ar
    83   105   107   am
    84    42    40   ar
    85    38    40   ar
    86    38    37    1
    87    16    13    1
    88    12    13    1
    89    37    34    1
    90    32    31    1
    91    13    14    1
    92    30    31   ar
    93    30    28   ar
    94    36    35    2
    95    47    46    2
    96    31    29   ar
    97    34    35    1
    98    34    33    1
    99    28    26   ar
   100    46    45    1
   101    14    15    2
   102    29    27   ar
   103    26    27   ar
   104    26    25    1
   105    48    45    1
   106    48    49    1
   107    45    44    1
   108    25    22    1
   109    49    50    1
   110    24    23    2
   111    51    50   ar
   112    23    22    1
   113    50    52   ar
   114    22    21    1
   115    21    19   am
   116    17    18    1
   117    19    20    2
   118    19    18    1
