@<TRIPOS>MOLECULE
tmp/4dyaB00.pdb
 91 88 0 0 0
SMALL
GASTEIGER

@<TRIPOS>ATOM
      1  N         19.2550  -31.7570   28.1240 N.3    29  SER29      -0.1217
      2  CA        19.2170  -31.2690   26.7540 C.3    29  SER29       0.1889
      3  C         18.0190  -31.8820   26.0260 C.2    29  SER29       0.2288
      4  O         17.4960  -32.9190   26.4410 O.2    29  SER29      -0.2866
      5  CB        20.5170  -31.6470   26.0460 C.3    29  SER29       0.2089
      6  OG        20.4930  -31.2770   24.6860 O.3    29  SER29      -0.2183
      7  N         18.0840  -33.2070   22.9770 N.3    31  TYR31      -0.1227
      8  CA        18.6280  -34.4860   22.4920 C.3    31  TYR31       0.1736
      9  C         18.6750  -35.5340   23.6050 C.2    31  TYR31       0.2595
     10  O         18.2460  -36.6750   23.4120 O.2    31  TYR31      -0.2718
     11  CB        20.0380  -34.3160   21.9040 C.3    31  TYR31       0.0548
     12  CG        20.1220  -33.5120   20.6270 C.ar   31  TYR31      -0.0200
     13  CD1       19.3360  -33.8310   19.5180 C.ar   31  TYR31      -0.0009
     14  CD2       21.0160  -32.4490   20.5140 C.ar   31  TYR31      -0.0009
     15  CE1       19.4200  -33.0960   18.3360 C.ar   31  TYR31       0.0417
     16  CE2       21.1130  -31.7090   19.3330 C.ar   31  TYR31       0.0417
     17  CZ        20.3090  -32.0400   18.2510 C.ar   31  TYR31       0.1957
     18  OH        20.3950  -31.3110   17.0890 O.3    31  TYR31      -0.2866
     19  N         19.1990  -35.1370   24.7650 N.am   32  GLU32      -0.1979
     20  CA        19.2710  -36.0150   25.9330 C.3    32  GLU32       0.1602
     21  C         17.8830  -36.3650   26.4640 C.2    32  GLU32       0.2287
     22  O         17.6770  -37.4500   27.0140 O.2    32  GLU32      -0.2864
     23  CB        20.0980  -35.3660   27.0430 C.3    32  GLU32       0.0415
     24  CG        21.5910  -35.3150   26.7640 C.3    32  GLU32       0.1163
     25  CD        22.3240  -34.3130   27.6390 C.2    32  GLU32       0.3649
     26  OE1       21.6570  -33.4910   28.3100 O.co2  32  GLU32      -0.2457
     27  OE2       23.5740  -34.3470   27.6470 O.co2  32  GLU32      -0.2457
     28  N         16.4560  -39.1980   24.5240 N.3    35  LEU35      -0.1245
     29  CA        17.1400  -40.4730   24.6900 C.3    35  LEU35       0.1561
     30  C         16.2120  -41.3940   25.4660 C.2    35  LEU35       0.2260
     31  O         15.9310  -41.1560   26.6410 O.2    35  LEU35      -0.2867
     32  CB        18.4730  -40.2940   25.4210 C.3    35  LEU35       0.0270
     33  CG        19.3960  -41.5120   25.5570 C.3    35  LEU35       0.0019
     34  CD1       20.0630  -41.8580   24.2340 C.3    35  LEU35       0.0001
     35  CD2       20.4470  -41.2630   26.6180 C.3    35  LEU35       0.0001
     36  N         25.5610  -36.1410   28.1310 N.3    74  ARG74      -0.1245
     37  CA        26.7940  -36.0890   27.3610 C.3    74  ARG74       0.1563
     38  C         27.7200  -35.0380   27.9680 C.2    74  ARG74       0.2260
     39  O         27.4390  -33.8380   27.9300 O.2    74  ARG74      -0.2867
     40  CB        26.5220  -35.8340   25.8740 C.3    74  ARG74       0.0307
     41  CG        27.6920  -36.2110   24.9780 C.3    74  ARG74       0.0489
     42  CD        27.2420  -36.6940   23.6150 C.3    74  ARG74       0.2205
     43  NE        28.3710  -36.8240   22.6940 N.pl3  74  ARG74      -0.0865
     44  CZ        29.1050  -37.9250   22.5370 C.cat  74  ARG74       0.5346
     45  NH1       28.8400  -39.0160   23.2430 N.pl3  74  ARG74       0.1354
     46  NH2       30.1140  -37.9350   21.6730 N.pl3  74  ARG74       0.1354
     47  N         29.3090  -40.2300   27.2130 N.3    79  TRP79      -0.1241
     48  CA        28.0560  -40.4630   27.9180 C.3    79  TRP79       0.1605
     49  C         28.3060  -40.8590   29.3690 C.2    79  TRP79       0.2264
     50  O         28.8970  -41.9060   29.6470 O.2    79  TRP79      -0.2867
     51  CB        27.2260  -41.5360   27.2110 C.3    79  TRP79       0.0550
     52  CG        26.5500  -41.0330   25.9860 C.ar   79  TRP79       0.0003
     53  CD1       26.9450  -41.2250   24.6950 C.ar   79  TRP79       0.0946
     54  CD2       25.3620  -40.2380   25.9300 C.ar   79  TRP79       0.0152
     55  NE1       26.0750  -40.6030   23.8350 N.ar   79  TRP79      -0.2442
     56  CE2       25.0900  -39.9900   24.5650 C.ar   79  TRP79       0.0810
     57  CE3       24.4950  -39.7150   26.8990 C.ar   79  TRP79       0.0012
     58  CZ2       23.9870  -39.2360   24.1430 C.ar   79  TRP79       0.0191
     59  CZ3       23.3990  -38.9640   26.4790 C.ar   79  TRP79       0.0001
     60  CH2       23.1560  -38.7340   25.1120 C.ar   79  TRP79       0.0015
     61  N         16.1780  -41.2900   20.4970 N.3   273  TYR273     -0.1241
     62  CA        17.5500  -41.7720   20.5890 C.3   273  TYR273      0.1605
     63  C         17.6710  -42.9650   21.5260 C.2   273  TYR273      0.2264
     64  O         16.8480  -43.1580   22.4180 O.2   273  TYR273     -0.2867
     65  CB        18.4830  -40.6430   21.0380 C.3   273  TYR273      0.0534
     66  CG        18.6420  -39.5530   20.0040 C.ar  273  TYR273     -0.0201
     67  CD1       19.6170  -39.6430   19.0130 C.ar  273  TYR273     -0.0009
     68  CD2       17.8100  -38.4360   20.0100 C.ar  273  TYR273     -0.0009
     69  CE1       19.7600  -38.6470   18.0560 C.ar  273  TYR273      0.0417
     70  CE2       17.9460  -37.4340   19.0580 C.ar  273  TYR273      0.0417
     71  CZ        18.9220  -37.5460   18.0870 C.ar  273  TYR273      0.1957
     72  OH        19.0530  -36.5530   17.1480 O.3   273  TYR273     -0.2866
     73  N         25.5110  -43.2850   21.2550 N.3   336  SER336     -0.1202
     74  CA        24.0890  -43.0260   21.0420 C.3   336  SER336      0.2020
     75  C         23.7530  -42.9640   19.5640 C.2   336  SER336      0.2619
     76  O         24.5170  -42.4160   18.7650 O.2   336  SER336     -0.2717
     77  CB        23.6520  -41.7360   21.7290 C.3   336  SER336      0.2103
     78  OG        24.3800  -40.6280   21.2370 O.3   336  SER336     -0.2182
     79  N         22.6010  -43.5250   19.2140 N.am  337  SER337     -0.1937
     80  CA        22.1470  -43.5830   17.8280 C.3   337  SER337      0.2055
     81  C         20.6700  -43.2350   17.6990 C.2   337  SER337      0.2643
     82  O         19.8980  -43.3880   18.6520 O.2   337  SER337     -0.2714
     83  CB        22.3980  -44.9790   17.2480 C.3   337  SER337      0.2130
     84  OG        21.7880  -45.1240   15.9730 O.3   337  SER337     -0.2179
     85  N         20.2930  -42.7690   16.5090 N.am  338  THR338     -0.1950
     86  CA        18.8960  -42.5510   16.1520 C.3   338  THR338      0.1897
     87  C         18.1890  -43.8940   16.0760 C.2   338  THR338      0.2313
     88  O         18.7280  -44.8510   15.5140 O.2   338  THR338     -0.2863
     89  CB        18.7620  -41.8560   14.7800 C.3   338  THR338      0.1794
     90  OG1       19.6920  -40.7710   14.6900 O.3   338  THR338     -0.2208
     91  CG2       17.3450  -41.3230   14.5740 C.3   338  THR338      0.0378
@<TRIPOS>BOND
     1    91    89    1
     2    90    89    1
     3    89    86    1
     4    88    87    2
     5    84    83    1
     6    87    86    1
     7    86    85    1
     8    85    81   am
     9    18    17    1
    10    72    71    1
    11    83    80    1
    12    81    80    1
    13    81    82    2
    14    80    79    1
    15    69    71   ar
    16    69    67   ar
    17    71    70   ar
    18    17    15   ar
    19    17    16   ar
    20    15    13   ar
    21    76    75    2
    22    67    66   ar
    23    70    68   ar
    24    79    75   am
    25    16    14   ar
    26    13    12   ar
    27    75    74    1
    28    66    68   ar
    29    66    65    1
    30    61    62    1
    31    14    12   ar
    32    62    65    1
    33    62    63    1
    34    12    11    1
    35    74    73    1
    36    74    77    1
    37    78    77    1
    38    63    64    2
    39    46    44    1
    40    11     8    1
    41     8     7    1
    42     8     9    1
    43    44    43    2
    44    44    45    1
    45    43    42    1
    46    10     9    2
    47     9    19   am
    48    42    41    1
    49    55    56   ar
    50    55    53   ar
    51    58    56   ar
    52    58    60   ar
    53    34    33    1
    54    28    29    1
    55    56    54   ar
    56     6     5    1
    57    29    32    1
    58    29    30    1
    59    53    52   ar
    60    19    20    1
    61    41    40    1
    62    60    59   ar
    63    32    33    1
    64    30    31    2
    65    33    35    1
    66    40    37    1
    67    54    52   ar
    68    54    57   ar
    69    20    21    1
    70    20    23    1
    71    52    51    1
    72     3     4    2
    73     3     2    1
    74     5     2    1
    75    21    22    2
    76    59    57   ar
    77     2     1    1
    78    24    23    1
    79    24    25    1
    80    51    48    1
    81    47    48    1
    82    37    38    1
    83    37    36    1
    84    25    27   ar
    85    25    26   ar
    86    48    49    1
    87    39    38    2
    88    49    50    2
