@<TRIPOS>MOLECULE
tmp/4dydA00.pdb
 194 189 0 0 0
SMALL
GASTEIGER

@<TRIPOS>ATOM
      1  N         34.9420   25.1990   74.7950 N.3    11  GLY11      -0.1210
      2  CA        35.5360   26.4850   74.4940 C.3    11  GLY11       0.1956
      3  C         34.4810   27.5350   74.2140 C.2    11  GLY11       0.2613
      4  O         33.5290   27.2930   73.4680 O.2    11  GLY11      -0.2717
      5  N         34.6360   28.7010   74.8220 N.am   12  THR12      -0.1938
      6  CA        33.6370   29.7470   74.6900 C.3    12  THR12       0.2028
      7  C         34.2850   31.0370   74.2140 C.2    12  THR12       0.2643
      8  O         33.8800   32.1360   74.6040 O.2    12  THR12      -0.2714
      9  CB        32.8980   29.9750   76.0190 C.3    12  THR12       0.1808
     10  OG1       33.8330   30.3920   77.0200 O.3    12  THR12      -0.2208
     11  CG2       32.2210   28.6860   76.4780 C.3    12  THR12       0.0379
     12  N         35.3070   30.8940   73.3790 N.am   13  GLY13      -0.1939
     13  CA        35.9620   32.0580   72.8220 C.3    13  GLY13       0.2014
     14  C         35.1650   32.6910   71.7040 C.2    13  GLY13       0.2639
     15  O         33.9390   32.5580   71.6560 O.2    13  GLY13      -0.2714
     16  N         35.8570   33.3630   70.7940 N.am   14  VAL14      -0.1963
     17  CA        35.2010   34.0580   69.6940 C.3    14  VAL14       0.1727
     18  C         34.2840   33.1390   68.8880 C.2    14  VAL14       0.2616
     19  O         33.1140   33.4680   68.6650 O.2    14  VAL14      -0.2715
     20  CB        36.2280   34.7420   68.7690 C.3    14  VAL14       0.0290
     21  CG1       35.5270   35.4000   67.5880 C.3    14  VAL14       0.0023
     22  CG2       37.0190   35.7770   69.5590 C.3    14  VAL14       0.0023
     23  N         34.8000   31.9940   68.4500 N.am   15  LEU15      -0.1963
     24  CA        33.9690   31.0550   67.7030 C.3    15  LEU15       0.1728
     25  C         33.1800   30.0920   68.5520 C.2    15  LEU15       0.2616
     26  O         32.0740   29.7010   68.1710 O.2    15  LEU15      -0.2715
     27  CB        34.7270   30.3030   66.6140 C.3    15  LEU15       0.0311
     28  CG        34.7380   31.0340   65.2700 C.3    15  LEU15       0.0022
     29  CD1       35.5320   32.3270   65.3440 C.3    15  LEU15       0.0001
     30  CD2       35.2870   30.1150   64.2030 C.3    15  LEU15       0.0001
     31  N         33.7400   29.6880   69.6850 N.am   16  GLY16      -0.1955
     32  CA        33.0070   28.7960   70.5590 C.3    16  GLY16       0.1869
     33  C         31.6720   29.3750   70.9780 C.2    16  GLY16       0.2309
     34  O         30.6510   28.6800   70.9780 O.2    16  GLY16      -0.2863
     35  N         31.0130   24.5420   77.6490 N.3    33  TYR33      -0.1227
     36  CA        32.0800   24.1140   78.5400 C.3    33  TYR33       0.1736
     37  C         33.2980   25.0210   78.4280 C.2    33  TYR33       0.2595
     38  O         33.6800   25.4420   77.3320 O.2    33  TYR33      -0.2718
     39  CB        32.4940   22.6660   78.2450 C.3    33  TYR33       0.0548
     40  CG        33.7790   22.2820   78.9430 C.ar   33  TYR33      -0.0200
     41  CD1       33.7730   21.7750   80.2460 C.ar   33  TYR33      -0.0009
     42  CD2       35.0090   22.4310   78.2990 C.ar   33  TYR33      -0.0009
     43  CE1       34.9630   21.4280   80.8880 C.ar   33  TYR33       0.0417
     44  CE2       36.1980   22.0890   78.9290 C.ar   33  TYR33       0.0417
     45  CZ        36.1710   21.5890   80.2190 C.ar   33  TYR33       0.1957
     46  OH        37.3560   21.2530   80.8290 O.3    33  TYR33      -0.2866
     47  N         33.9080   25.3190   79.5710 N.am   34  ASP34      -0.1960
     48  CA        35.1830   26.0280   79.5910 C.3    34  ASP34       0.1840
     49  C         35.8990   25.6610   80.8970 C.2    34  ASP34       0.2621
     50  O         35.3320   24.9570   81.7390 O.2    34  ASP34      -0.2715
     51  CB        34.9670   27.5370   79.4520 C.3    34  ASP34       0.1450
     52  CG        36.1440   28.2410   78.7760 C.2    34  ASP34       0.3671
     53  OD1       37.2790   27.7160   78.7970 O.co2  34  ASP34      -0.2456
     54  OD2       35.9240   29.3250   78.2020 O.co2  34  ASP34      -0.2456
     55  N         37.1320   26.1240   81.0750 N.am   35  ILE35      -0.1977
     56  CA        38.0030   25.5430   82.0960 C.3    35  ILE35       0.1596
     57  C         37.6910   25.9010   83.5550 C.2    35  ILE35       0.2287
     58  O         37.8930   25.0730   84.4450 O.2    35  ILE35      -0.2864
     59  CB        39.4770   25.8060   81.7980 C.3    35  ILE35       0.0276
     60  CG1       39.7740   27.3030   81.8610 C.3    35  ILE35       0.0022
     61  CG2       39.8260   25.2470   80.4260 C.3    35  ILE35       0.0022
     62  CD1       41.2350   27.6380   81.6150 C.3    35  ILE35       0.0001
     63  N         36.3440   31.7830   83.2470 N.3    39  ALA39      -0.1245
     64  CA        36.1340   31.5990   81.8150 C.3    39  ALA39       0.1562
     65  C         34.6360   31.5730   81.5120 C.2    39  ALA39       0.2260
     66  O         34.1860   32.1470   80.5180 O.2    39  ALA39      -0.2867
     67  CB        36.7940   30.3150   81.3360 C.3    39  ALA39       0.0290
     68  N         29.9910   37.1340   76.5310 N.3    46  ARG46      -0.1245
     69  CA        29.9550   36.9790   75.0810 C.3    46  ARG46       0.1563
     70  C         28.5490   36.6390   74.6070 C.2    46  ARG46       0.2260
     71  O         28.1060   37.1360   73.5710 O.2    46  ARG46      -0.2867
     72  CB        30.9400   35.9090   74.5930 C.3    46  ARG46       0.0307
     73  CG        32.4070   36.2470   74.8210 C.3    46  ARG46       0.0489
     74  CD        33.3230   35.1960   74.2040 C.3    46  ARG46       0.2205
     75  NE        34.7330   35.5600   74.3270 N.pl3  46  ARG46      -0.0865
     76  CZ        35.5170   35.1970   75.3390 C.cat  46  ARG46       0.5346
     77  NH1       35.0350   34.4530   76.3260 N.pl3  46  ARG46       0.1354
     78  NH2       36.7880   35.5750   75.3690 N.pl3  46  ARG46       0.1354
     79  N         34.1200   20.9070   69.3180 N.3    91  GLU91      -0.1231
     80  CA        35.3620   21.3400   69.9410 C.3    91  GLU91       0.1699
     81  C         35.8980   22.6230   69.3020 C.2    91  GLU91       0.2592
     82  O         36.2440   22.6510   68.1180 O.2    91  GLU91      -0.2718
     83  CB        36.3980   20.2030   69.8790 C.3    91  GLU91       0.0402
     84  CG        37.7840   20.5670   70.3810 C.3    91  GLU91       0.1161
     85  CD        38.6590   21.1840   69.3010 C.2    91  GLU91       0.3649
     86  OE1       38.8750   20.5340   68.2530 O.co2  91  GLU91      -0.2457
     87  OE2       39.1210   22.3210   69.4960 O.co2  91  GLU91      -0.2457
     88  N         35.9470   23.6840   70.1020 N.am   92  ALA92      -0.1966
     89  CA        36.4690   24.9770   69.6720 C.3    92  ALA92       0.1728
     90  C         37.4710   25.5140   70.6960 C.2    92  ALA92       0.2616
     91  O         37.4020   26.6800   71.0940 O.2    92  ALA92      -0.2715
     92  CB        35.3260   25.9760   69.4620 C.3    92  ALA92       0.0334
     93  N         38.3950   24.6590   71.1270 N.am   93  VAL93      -0.1964
     94  CA        39.4500   25.0760   72.0480 C.3    93  VAL93       0.1712
     95  C         40.5890   25.7180   71.2560 C.2    93  VAL93       0.2458
     96  O         40.5980   25.6470   70.0250 O.2    93  VAL93      -0.2730
     97  CB        39.9530   23.8930   72.9030 C.3    93  VAL93       0.0289
     98  CG1       38.7890   23.3010   73.6860 C.3    93  VAL93       0.0023
     99  CG2       40.6090   22.8320   72.0320 C.3    93  VAL93       0.0023
    100  N         41.5540   26.3610   71.9410 N.am   94  PRO94      -0.2716
    101  CA        42.6680   27.0140   71.2370 C.3    94  PRO94       0.1536
    102  C         43.3940   26.1280   70.2330 C.2    94  PRO94       0.2598
    103  O         43.4570   24.9050   70.3880 O.2    94  PRO94      -0.2715
    104  CB        43.5900   27.4730   72.3700 C.3    94  PRO94       0.0310
    105  CG        42.6780   27.6300   73.5360 C.3    94  PRO94       0.0237
    106  CD        41.6730   26.5190   73.4020 C.3    94  PRO94       0.0939
    107  N         43.9410   26.7550   69.1960 N.am   95  GLU95      -0.1978
    108  CA        44.5400   26.0060   68.1020 C.3    95  GLU95       0.1602
    109  C         45.9030   25.4590   68.5240 C.2    95  GLU95       0.2287
    110  O         46.9390   25.8110   67.9540 O.2    95  GLU95      -0.2864
    111  CB        44.6620   26.8930   66.8590 C.3    95  GLU95       0.0415
    112  CG        44.9950   26.1370   65.5800 C.3    95  GLU95       0.1163
    113  CD        43.8820   25.1920   65.1580 C.2    95  GLU95       0.3649
    114  OE1       42.9840   24.9170   65.9790 O.co2  95  GLU95      -0.2457
    115  OE2       43.9000   24.7230   64.0020 O.co2  95  GLU95      -0.2457
    116  N         47.0430   20.7980   73.3900 N.3    99  LEU99      -0.1231
    117  CA        45.8410   21.1610   74.1250 C.3    99  LEU99       0.1693
    118  C         44.6380   20.3990   73.5650 C.2    99  LEU99       0.2591
    119  O         43.8080   19.8980   74.3260 O.2    99  LEU99      -0.2718
    120  CB        45.6190   22.6750   74.0650 C.3    99  LEU99       0.0284
    121  CG        44.5150   23.3030   74.9210 C.3    99  LEU99       0.0019
    122  CD1       44.6020   24.8190   74.8360 C.3    99  LEU99       0.0001
    123  CD2       43.1350   22.8110   74.5160 C.3    99  LEU99       0.0001
    124  N         44.5430   20.3000   72.2400 N.am  100  LYS100     -0.1980
    125  CA        43.4620   19.5250   71.6330 C.3   100  LYS100      0.1596
    126  C         43.6760   18.0350   71.8700 C.2   100  LYS100      0.2287
    127  O         42.7170   17.2760   72.0360 O.2   100  LYS100     -0.2864
    128  CB        43.3370   19.7980   70.1270 C.3   100  LYS100      0.0298
    129  CG        42.9790   21.2300   69.7580 C.3   100  LYS100      0.0038
    130  CD        42.5540   21.3180   68.2970 C.3   100  LYS100      0.0206
    131  CE        42.3120   22.7510   67.8650 C.3   100  LYS100      0.1093
    132  NZ        41.3150   23.4420   68.7180 N.3   100  LYS100     -0.1314
    133  N         42.4450   17.2020   75.3070 N.3   103  ILE103     -0.1245
    134  CA        40.9840   17.2100   75.3470 C.3   103  ILE103      0.1561
    135  C         40.3540   15.9310   74.7880 C.2   103  ILE103      0.2260
    136  O         39.5270   15.3040   75.4550 O.2   103  ILE103     -0.2867
    137  CB        40.4040   18.4270   74.5970 C.3   103  ILE103      0.0252
    138  CG1       40.8620   19.7230   75.2650 C.3   103  ILE103      0.0019
    139  CG2       38.8840   18.3550   74.5650 C.3   103  ILE103      0.0019
    140  CD1       40.4150   19.8570   76.7050 C.3   103  ILE103      0.0001
    141  N         36.3570   22.2550   65.2040 N.3   120  ASN120     -0.1225
    142  CA        36.2050   23.4710   64.4110 C.3   120  ASN120      0.1785
    143  C         37.5840   23.9460   63.9530 C.2   120  ASN120      0.2598
    144  O         37.7330   25.0690   63.4650 O.2   120  ASN120     -0.2718
    145  CB        35.5550   24.5670   65.2590 C.3   120  ASN120      0.1169
    146  CG        35.3440   25.8600   64.4890 C.2   120  ASN120      0.2627
    147  OD1       34.8110   25.8590   63.3760 O.2   120  ASN120     -0.2716
    148  ND2       35.7740   26.9720   65.0740 N.am  120  ASN120     -0.0877
    149  N         38.5890   23.0850   64.1080 N.am  121  SER121     -0.1938
    150  CA        39.9840   23.4710   63.8830 C.3   121  SER121      0.2055
    151  C         40.2490   23.9880   62.4650 C.2   121  SER121      0.2643
    152  O         39.8000   23.3920   61.4820 O.2   121  SER121     -0.2714
    153  CB        40.9150   22.2950   64.1930 C.3   121  SER121      0.2130
    154  OG        42.2690   22.6740   64.0270 O.3   121  SER121     -0.2179
    155  N         40.9950   25.0870   62.3660 N.am  122  SER122     -0.1949
    156  CA        41.3520   25.6680   61.0700 C.3   122  SER122      0.1924
    157  C         42.6610   25.1150   60.5030 C.2   122  SER122      0.2314
    158  O         42.7960   24.9720   59.2840 O.2   122  SER122     -0.2863
    159  CB        41.4500   27.1950   61.1580 C.3   122  SER122      0.2116
    160  OG        40.1950   27.7810   61.4500 O.3   122  SER122     -0.2180
    161  N         33.5310   23.0470   60.3870 N.3   143  HIS143     -0.1226
    162  CA        34.3150   24.2720   60.4310 C.3   143  HIS143      0.1752
    163  C         33.4740   25.5040   60.0950 C.2   143  HIS143      0.2596
    164  O         32.9110   25.6100   59.0020 O.2   143  HIS143     -0.2718
    165  CB        35.5000   24.1320   59.4700 C.3   143  HIS143      0.0759
    166  CG        36.4050   25.3200   59.4450 C.ar  143  HIS143      0.0818
    167  ND1       36.5420   26.1270   58.3370 N.ar  143  HIS143     -0.2268
    168  CD2       37.2190   25.8400   60.3940 C.ar  143  HIS143      0.1154
    169  CE1       37.4020   27.0940   58.6040 C.ar  143  HIS143      0.1986
    170  NE2       37.8270   26.9420   59.8460 N.ar  143  HIS143     -0.2212
    171  N         33.3920   26.4270   61.0510 N.am  144  PHE144     -0.1962
    172  CA        32.5820   27.6400   60.9170 C.3   144  PHE144      0.1771
    173  C         33.4440   28.8360   60.5240 C.2   144  PHE144      0.2619
    174  O         34.6770   28.7790   60.5730 O.2   144  PHE144     -0.2715
    175  CB        31.8780   27.9630   62.2380 C.3   144  PHE144      0.0574
    176  CG        30.8790   26.9290   62.6700 C.ar  144  PHE144     -0.0200
    177  CD1       31.2980   25.7310   63.2460 C.ar  144  PHE144     -0.0042
    178  CD2       29.5150   27.1540   62.5050 C.ar  144  PHE144     -0.0042
    179  CE1       30.3740   24.7710   63.6490 C.ar  144  PHE144     -0.0003
    180  CE2       28.5800   26.2030   62.9040 C.ar  144  PHE144     -0.0003
    181  CZ        29.0100   25.0070   63.4770 C.ar  144  PHE144     -0.0000
    182  N         32.7790   29.9190   60.1380 N.am  145  ALA145     -0.1963
    183  CA        33.4490   31.1730   59.8050 C.3   145  ALA145      0.1728
    184  C         33.0620   32.2380   60.8250 C.2   145  ALA145      0.2616
    185  O         31.9340   32.2420   61.3290 O.2   145  ALA145     -0.2715
    186  CB        33.0530   31.6180   58.4050 C.3   145  ALA145      0.0334
    187  N         33.9920   33.1370   61.1350 N.am  146  ASN146     -0.1972
    188  CA        33.7170   34.1920   62.1080 C.3   146  ASN146      0.1688
    189  C         32.4700   34.9740   61.6640 C.2   146  ASN146      0.2292
    190  O         32.2870   35.2370   60.4720 O.2   146  ASN146     -0.2864
    191  CB        34.9190   35.1300   62.2260 C.3   146  ASN146      0.1181
    192  CG        34.7950   36.0860   63.3910 C.2   146  ASN146      0.2629
    193  OD1       33.9120   35.9350   64.2400 O.2   146  ASN146     -0.2716
    194  ND2       35.6700   37.0790   63.4390 N.am  146  ASN146     -0.0877
@<TRIPOS>BOND
     1   167   169   ar
     2   167   166   ar
     3   186   183    1
     4   169   170   ar
     5   164   163    2
     6   158   157    2
     7   166   165    1
     8   166   168   ar
     9   165   162    1
    10   183   182    1
    11   183   184    1
    12   170   168   ar
    13   163   162    1
    14   163   171   am
    15   182   173   am
    16   161   162    1
    17   190   189    2
    18   157   156    1
    19   173   174    2
    20   173   172    1
    21   184   187   am
    22   184   185    2
    23   172   171    1
    24   172   175    1
    25   156   159    1
    26   156   155    1
    27   187   188    1
    28   159   160    1
    29   152   151    2
    30   189   188    1
    31   188   191    1
    32   191   192    1
    33   175   176    1
    34   155   151   am
    35   151   150    1
    36   178   176   ar
    37   178   180   ar
    38   176   177   ar
    39   180   181   ar
    40   177   179   ar
    41   147   146    2
    42   192   194   am
    43   192   193    2
    44   144   143    2
    45   181   179   ar
    46   150   149    1
    47   150   153    1
    48   143   149   am
    49   143   142    1
    50   115   113   ar
    51   154   153    1
    52    30    28    1
    53   142   141    1
    54   142   145    1
    55   146   148   am
    56   146   145    1
    57   113   112    1
    58   113   114   ar
    59    28    29    1
    60    28    27    1
    61   112   111    1
    62    27    24    1
    63   111   108    1
    64    21    20    1
    65    24    23    1
    66    24    25    1
    67   131   130    1
    68   131   132    1
    69   110   109    2
    70   108   109    1
    71   108   107    1
    72    82    81    2
    73    26    25    2
    74    86    85   ar
    75   130   129    1
    76    23    18   am
    77    25    31   am
    78    19    18    2
    79    20    22    1
    80    20    17    1
    81    18    17    1
    82   107   102   am
    83    85    87   ar
    84    85    84    1
    85    81    80    1
    86    81    88   am
    87    79    80    1
    88    92    89    1
    89    89    88    1
    90    89    90    1
    91    31    32    1
    92    17    16    1
    93   129   128    1
    94    83    80    1
    95    83    84    1
    96    96    95    2
    97   128   125    1
    98   102   103    2
    99   102   101    1
   100    32    33    1
   101    90    91    2
   102    90    93   am
   103    16    14   am
   104    34    33    2
   105    93    94    1
   106   101   100    1
   107   101   104    1
   108    95   100   am
   109    95    94    1
   110   125   126    1
   111   125   124    1
   112    15    14    2
   113    14    13    1
   114   126   127    2
   115   100   106    1
   116    99    97    1
   117    94    97    1
   118   124   118   am
   119   104   105    1
   120    13    12    1
   121    97    98    1
   122    12     7   am
   123   116   117    1
   124   106   105    1
   125     4     3    2
   126   118   117    1
   127   118   119    2
   128    71    70    2
   129   120   117    1
   130   120   121    1
   131    74    75    1
   132    74    73    1
   133     3     2    1
   134     3     5   am
   135     7     8    2
   136     7     6    1
   137    75    76    2
   138     2     1    1
   139   123   121    1
   140   139   137    1
   141    72    73    1
   142    72    69    1
   143   137   138    1
   144   137   134    1
   145    70    69    1
   146     6     5    1
   147     6     9    1
   148   135   134    1
   149   135   136    2
   150   122   121    1
   151    69    68    1
   152   138   140    1
   153   133   134    1
   154    76    78    1
   155    76    77    1
   156     9    11    1
   157     9    10    1
   158    38    37    2
   159    35    36    1
   160    54    52   ar
   161    39    36    1
   162    39    40    1
   163    42    44   ar
   164    42    40   ar
   165    37    36    1
   166    37    47   am
   167    52    53   ar
   168    52    51    1
   169    44    45   ar
   170    40    41   ar
   171    51    48    1
   172    47    48    1
   173    48    49    1
   174    45    46    1
   175    45    43   ar
   176    41    43   ar
   177    61    59    1
   178    66    65    2
   179    49    55   am
   180    49    50    2
   181    55    56    1
   182    67    64    1
   183    65    64    1
   184    62    60    1
   185    59    60    1
   186    59    56    1
   187    64    63    1
   188    56    57    1
   189    57    58    2
