@<TRIPOS>MOLECULE
tmp/4dygB01.pdb
 108 106 0 0 0
SMALL
GASTEIGER

@<TRIPOS>ATOM
      1  N         -3.0890   -0.0650    6.2680 N.3    67  GLU67      -0.1245
      2  CA        -2.5320   -1.1140    7.1160 C.3    67  GLU67       0.1567
      3  C         -1.8950   -0.5780    8.3960 C.2    67  GLU67       0.2260
      4  O         -1.6810   -1.3240    9.3490 O.2    67  GLU67      -0.2867
      5  CB        -1.4610   -1.9050    6.3500 C.3    67  GLU67       0.0388
      6  CG        -1.9510   -2.6130    5.0990 C.3    67  GLU67       0.1160
      7  CD        -2.9650   -3.7020    5.4080 C.2    67  GLU67       0.3649
      8  OE1       -2.7040   -4.5110    6.3240 O.co2  67  GLU67      -0.2457
      9  OE2       -4.0140   -3.7450    4.7330 O.co2  67  GLU67      -0.2457
     10  N          3.3260   -2.7660    5.1900 N.3   117  ILE117     -0.1231
     11  CA         2.3570   -3.7330    4.6790 C.3   117  ILE117      0.1692
     12  C          2.0130   -4.7750    5.7490 C.2   117  ILE117      0.2592
     13  O          1.2730   -5.7390    5.5010 O.2   117  ILE117     -0.2718
     14  CB         2.8830   -4.4120    3.3800 C.3   117  ILE117      0.0266
     15  CG1        1.7110   -4.9750    2.5690 C.3   117  ILE117      0.0019
     16  CG2        3.8870   -5.5220    3.7120 C.3   117  ILE117      0.0020
     17  CD1        0.7620   -3.9030    2.0320 C.3   117  ILE117      0.0001
     18  N          2.5220   -4.5420    6.9570 N.am  118  GLN118     -0.1966
     19  CA         2.2960   -5.4380    8.0800 C.3   118  GLN118      0.1733
     20  C          2.5980   -6.8810    7.6980 C.2   118  GLN118      0.2616
     21  O          1.7630   -7.7730    7.8460 O.2   118  GLN118     -0.2715
     22  CB         0.8650   -5.2960    8.6010 C.3   118  GLN118      0.0408
     23  CG         0.6430   -3.9960    9.3690 C.3   118  GLN118      0.0908
     24  CD         1.3660   -3.9830   10.7080 C.2   118  GLN118      0.2608
     25  OE1        0.9030   -4.5790   11.6780 O.2   118  GLN118     -0.2717
     26  NE2        2.5110   -3.3110   10.7600 N.am  118  GLN118     -0.0878
     27  N          3.8120   -7.0680    7.1920 N.am  119  LEU119     -0.1963
     28  CA         4.3540   -8.3610    6.7830 C.3   119  LEU119      0.1728
     29  C          4.1100   -9.3550    7.9170 C.2   119  LEU119      0.2617
     30  O          4.4210   -9.0610    9.0700 O.2   119  LEU119     -0.2715
     31  CB         5.8550   -8.2050    6.5360 C.3   119  LEU119      0.0311
     32  CG         6.5950   -9.3600    5.8660 C.3   119  LEU119      0.0022
     33  CD1        6.1670   -9.4340    4.3990 C.3   119  LEU119      0.0001
     34  CD2        8.0960   -9.1410    5.9460 C.3   119  LEU119      0.0001
     35  N          3.5660  -10.5250    7.5830 N.am  120  SER120     -0.1936
     36  CA         3.2370  -11.5420    8.5840 C.3   120  SER120      0.2055
     37  C          3.5570  -12.9490    8.1100 C.2   120  SER120      0.2643
     38  O          3.4110  -13.2500    6.9320 O.2   120  SER120     -0.2714
     39  CB         1.7460  -11.4820    8.9110 C.3   120  SER120      0.2130
     40  OG         1.3800  -10.1890    9.3430 O.3   120  SER120     -0.2179
     41  N          3.9480  -13.7980    9.0620 N.am  121  HIS121     -0.1973
     42  CA         4.2900  -15.2120    8.8580 C.3   121  HIS121      0.1656
     43  C          5.6890  -15.4880    8.3250 C.2   121  HIS121      0.2291
     44  O          6.2100  -14.7490    7.4900 O.2   121  HIS121     -0.2864
     45  CB         3.2950  -15.9140    7.9220 C.3   121  HIS121      0.0771
     46  CG         1.9080  -16.0340    8.4670 C.ar  121  HIS121      0.0820
     47  ND1        0.9170  -15.1220    8.1780 N.ar  121  HIS121     -0.2267
     48  CD2        1.3300  -16.9900    9.2310 C.ar  121  HIS121      0.1154
     49  CE1       -0.2150  -15.5150    8.7370 C.ar  121  HIS121      0.1986
     50  NE2        0.0080  -16.6460    9.3800 N.ar  121  HIS121     -0.2212
     51  N          6.4280  -15.4640    4.5970 N.3   124  ASN124     -0.1240
     52  CA         6.4570  -14.1940    3.8860 C.3   124  ASN124      0.1653
     53  C          7.7630  -13.4820    4.2630 C.2   124  ASN124      0.2266
     54  O          8.4190  -12.8890    3.4010 O.2   124  ASN124     -0.2867
     55  CB         5.2370  -13.3340    4.2130 C.3   124  ASN124      0.1155
     56  CG         4.0080  -13.7910    3.4560 C.2   124  ASN124      0.2627
     57  OD1        4.0650  -14.0000    2.2390 O.2   124  ASN124     -0.2716
     58  ND2        2.8980  -13.9480    4.1610 N.am  124  ASN124     -0.0877
     59  N          8.4340   -4.9190   -1.6600 N.3   156  TRP156     -0.1227
     60  CA         8.5410   -6.2860   -2.1620 C.3   156  TRP156      0.1737
     61  C          7.1060   -6.8020   -2.3610 C.2   156  TRP156      0.2595
     62  O          6.7770   -7.3940   -3.3900 O.2   156  TRP156     -0.2718
     63  CB         9.2680   -7.1870   -1.1510 C.3   156  TRP156      0.0564
     64  CG         9.0280   -8.6680   -1.3690 C.ar  156  TRP156      0.0003
     65  CD1        9.6150   -9.4720   -2.3180 C.ar  156  TRP156      0.0946
     66  CD2        8.0840   -9.4940   -0.6780 C.ar  156  TRP156      0.0152
     67  NE1        9.0850  -10.7400   -2.2560 N.ar  156  TRP156     -0.2442
     68  CE2        8.1460  -10.7820   -1.2600 C.ar  156  TRP156      0.0810
     69  CE3        7.1830   -9.2700    0.3770 C.ar  156  TRP156      0.0012
     70  CZ2        7.3420  -11.8460   -0.8220 C.ar  156  TRP156      0.0191
     71  CZ3        6.3830  -10.3260    0.8110 C.ar  156  TRP156      0.0001
     72  CH2        6.4710  -11.6000    0.2100 C.ar  156  TRP156      0.0015
     73  N          6.2450   -6.5640   -1.3810 N.am  157  PHE157     -0.1976
     74  CA         4.8720   -7.0390   -1.5020 C.3   157  PHE157      0.1639
     75  C          4.1940   -6.3880   -2.6990 C.2   157  PHE157      0.2290
     76  O          3.5110   -7.0580   -3.4870 O.2   157  PHE157     -0.2864
     77  CB         4.0700   -6.7380   -0.2330 C.3   157  PHE157      0.0560
     78  CG         2.6260   -7.1480   -0.3290 C.ar  157  PHE157     -0.0200
     79  CD1        1.6880   -6.3050   -0.9260 C.ar  157  PHE157     -0.0042
     80  CD2        2.2200   -8.4070    0.0980 C.ar  157  PHE157     -0.0042
     81  CE1        0.3600   -6.7170   -1.1030 C.ar  157  PHE157     -0.0003
     82  CE2        0.9000   -8.8290   -0.0730 C.ar  157  PHE157     -0.0003
     83  CZ        -0.0320   -7.9820   -0.6760 C.ar  157  PHE157     -0.0000
     84  N          1.2910  -13.0210   -7.0530 N.3   162  GLN162     -0.1245
     85  CA         0.9410  -14.2520   -6.3460 C.3   162  GLN162      0.1566
     86  C         -0.1000  -14.8700   -7.2800 C.2   162  GLN162      0.2260
     87  O         -1.2710  -14.9800   -6.9210 O.2   162  GLN162     -0.2867
     88  CB         0.2920  -13.9450   -5.0030 C.3   162  GLN162      0.0367
     89  CG         1.1110  -13.0300   -4.1000 C.3   162  GLN162      0.0905
     90  CD         0.2830  -12.5270   -2.9430 C.2   162  GLN162      0.2608
     91  OE1       -0.0880  -13.3050   -2.0590 O.2   162  GLN162     -0.2717
     92  NE2       -0.0380  -11.2170   -2.9470 N.am  162  GLN162     -0.0878
     93  N         -4.9490   -7.6440   -1.8120 N.3   198  ILE198     -0.1231
     94  CA        -4.4930   -7.5670   -0.4310 C.3   198  ILE198      0.1692
     95  C         -5.3490   -8.2720    0.6160 C.2   198  ILE198      0.2592
     96  O         -4.8240   -9.0200    1.4450 O.2   198  ILE198     -0.2718
     97  CB        -4.3010   -6.0920   -0.0150 C.3   198  ILE198      0.0266
     98  CG1       -3.1930   -5.4760   -0.8830 C.3   198  ILE198      0.0019
     99  CG2       -3.9250   -5.9990    1.4710 C.3   198  ILE198      0.0020
    100  CD1       -3.0550   -3.9620   -0.7790 C.3   198  ILE198      0.0001
    101  N         -6.6600   -8.0670    0.5770 N.am  199  ASN199     -0.1974
    102  CA        -7.5190   -8.6670    1.5980 C.3   199  ASN199      0.1688
    103  C         -8.9440   -8.8950    1.0900 C.2   199  ASN199      0.2292
    104  O         -9.9110   -8.7510    1.8400 O.2   199  ASN199     -0.2864
    105  CB        -7.5350   -7.7410    2.8240 C.3   199  ASN199      0.1181
    106  CG        -7.9660   -8.4560    4.0960 C.2   199  ASN199      0.2629
    107  OD1       -7.6450   -9.6290    4.2930 O.2   199  ASN199     -0.2716
    108  ND2       -8.6810   -7.7470    4.9710 N.am  199  ASN199     -0.0877
@<TRIPOS>BOND
     1    86    87    2
     2    86    85    1
     3    84    85    1
     4    85    88    1
     5    88    89    1
     6    89    90    1
     7    76    75    2
     8    62    61    2
     9    92    90   am
    10    90    91    2
    11    75    74    1
    12    61    60    1
    13    61    73   am
    14    65    67   ar
    15    65    64   ar
    16    67    68   ar
    17    60    59    1
    18    60    63    1
    19    93    94    1
    20    74    73    1
    21    74    77    1
    22    64    63    1
    23    64    66   ar
    24    68    70   ar
    25    68    66   ar
    26    81    79   ar
    27    81    83   ar
    28    79    78   ar
    29    98   100    1
    30    98    97    1
    31    70    72   ar
    32    66    69   ar
    33    83    82   ar
    34    94    97    1
    35    94    95    1
    36    78    77    1
    37    78    80   ar
    38    82    80   ar
    39    97    99    1
    40    72    71   ar
    41    69    71   ar
    42   101    95   am
    43   101   102    1
    44    95    96    2
    45   103   102    1
    46   103   104    2
    47   102   105    1
    48    17    15    1
    49    57    56    2
    50    15    14    1
    51   105   106    1
    52    14    16    1
    53    14    11    1
    54    54    53    2
    55    56    58   am
    56    56    55    1
    57    52    55    1
    58    52    53    1
    59    52    51    1
    60   106   107    2
    61   106   108   am
    62    33    32    1
    63    11    10    1
    64    11    12    1
    65     9     7   ar
    66     6     7    1
    67     6     5    1
    68     7     8   ar
    69    13    12    2
    70    12    18   am
    71    32    34    1
    72    32    31    1
    73     1     2    1
    74     5     2    1
    75    31    28    1
    76    28    27    1
    77    28    29    1
    78    38    37    2
    79    18    19    1
    80     2     3    1
    81    27    20   am
    82    44    43    2
    83    35    29   am
    84    35    36    1
    85    20    21    2
    86    20    19    1
    87    29    30    2
    88    45    46    1
    89    45    42    1
    90    19    22    1
    91    37    36    1
    92    37    41   am
    93    47    46   ar
    94    47    49   ar
    95    43    42    1
    96     3     4    2
    97    46    48   ar
    98    36    39    1
    99    22    23    1
   100    49    50   ar
   101    42    41    1
   102    39    40    1
   103    48    50   ar
   104    23    24    1
   105    24    26   am
   106    24    25    2
