@<TRIPOS>MOLECULE
tmp/4dymA00.pdb
 173 163 0 0 0
SMALL
GASTEIGER

@<TRIPOS>ATOM
      1  N          1.3040  -24.4730   12.1010 N.3     8  VAL8       -0.1231
      2  CA         0.1360  -24.3850   11.2410 C.3     8  VAL8        0.1692
      3  C         -0.4270  -22.9410   11.1850 C.2     8  VAL8        0.2592
      4  O         -1.4050  -22.6780   10.5110 O.2     8  VAL8       -0.2718
      5  CB        -0.9590  -25.3820   11.7280 C.3     8  VAL8        0.0266
      6  CG1       -0.4400  -26.8530   11.6660 C.3     8  VAL8        0.0020
      7  CG2       -1.4310  -25.0370   13.1510 C.3     8  VAL8        0.0020
      8  N          0.1970  -22.0010   11.8750 N.am    9  GLY9       -0.1957
      9  CA        -0.3180  -20.6350   11.8570 C.3     9  GLY9        0.1869
     10  C          0.5920  -19.6370   12.5150 C.2     9  GLY9        0.2309
     11  O          0.9370  -19.7680   13.6580 O.2     9  GLY9       -0.2863
     12  N         -1.3840  -12.6630   16.9670 N.3    13  TYR13      -0.1241
     13  CA        -1.6850  -13.4890   18.1520 C.3    13  TYR13       0.1605
     14  C         -0.6120  -14.5310   18.5540 C.2    13  TYR13       0.2264
     15  O         -0.8060  -15.2410   19.5420 O.2    13  TYR13      -0.2867
     16  CB        -2.9600  -14.2770   17.8800 C.3    13  TYR13       0.0534
     17  CG        -2.7290  -15.3650   16.8730 C.ar   13  TYR13      -0.0201
     18  CD1       -2.3300  -16.6270   17.2700 C.ar   13  TYR13      -0.0009
     19  CD2       -2.8730  -15.1230   15.5080 C.ar   13  TYR13      -0.0009
     20  CE1       -2.1020  -17.6320   16.3450 C.ar   13  TYR13       0.0417
     21  CE2       -2.6500  -16.1200   14.5760 C.ar   13  TYR13       0.0417
     22  CZ        -2.2630  -17.3760   15.0130 C.ar   13  TYR13       0.1957
     23  OH        -2.0400  -18.3850   14.1250 O.3    13  TYR13      -0.2866
     24  N          0.2690  -21.1300   16.2700 N.3    16  VAL16      -0.1245
     25  CA        -0.3420  -22.3890   16.6360 C.3    16  VAL16       0.1561
     26  C          0.4290  -23.5530   15.9960 C.2    16  VAL16       0.2260
     27  O          0.7300  -23.5490   14.8170 O.2    16  VAL16      -0.2867
     28  CB        -1.8140  -22.4100   16.2500 C.3    16  VAL16       0.0252
     29  CG1       -2.4420  -23.7400   16.6450 C.3    16  VAL16       0.0019
     30  CG2       -2.5230  -21.2550   16.9190 C.3    16  VAL16       0.0019
     31  N         -2.6820  -29.3280   19.8450 N.3    27  ALA27      -0.1245
     32  CA        -2.3770  -27.9760   19.3170 C.3    27  ALA27       0.1562
     33  C         -1.6910  -27.0840   20.3620 C.2    27  ALA27       0.2260
     34  O         -2.1900  -26.8930   21.4570 O.2    27  ALA27      -0.2867
     35  CB        -3.6370  -27.3070   18.8130 C.3    27  ALA27       0.0290
     36  N         -0.7890  -23.3880   21.0800 N.3    29  LYS29      -0.1245
     37  CA        -0.7520  -21.9090   20.8240 C.3    29  LYS29       0.1561
     38  C          0.3600  -21.2890   21.6470 C.2    29  LYS29       0.2260
     39  O          0.3210  -21.3270   22.8720 O.2    29  LYS29      -0.2867
     40  CB        -2.0890  -21.2350   21.1590 C.3    29  LYS29       0.0271
     41  CG        -2.1060  -19.7310   20.8750 C.3    29  LYS29       0.0035
     42  CD        -3.4750  -19.1180   21.0800 C.3    29  LYS29       0.0206
     43  CE        -3.4120  -17.6270   20.8020 C.3    29  LYS29       0.1093
     44  NZ        -4.7220  -16.9190   21.0270 N.3    29  LYS29      -0.1314
     45  N         -7.2550  -16.9100   29.9150 N.3    42  GLU42      -0.1245
     46  CA        -7.6840  -18.1300   29.2710 C.3    42  GLU42       0.1567
     47  C         -7.3090  -19.3630   30.0830 C.2    42  GLU42       0.2260
     48  O         -8.0760  -20.3250   30.1530 O.2    42  GLU42      -0.2867
     49  CB        -7.0570  -18.2110   27.8770 C.3    42  GLU42       0.0388
     50  CG        -8.0720  -18.6080   26.8400 C.3    42  GLU42       0.1160
     51  CD        -7.4980  -18.8980   25.4830 C.2    42  GLU42       0.3649
     52  OE1       -6.6320  -18.1110   24.9960 O.co2  42  GLU42      -0.2457
     53  OE2       -7.9690  -19.9110   24.9040 O.co2  42  GLU42      -0.2457
     54  N        -13.6650  -25.5130   22.2500 N.3    57  LEU57      -0.1245
     55  CA       -12.3280  -26.0510   21.9990 C.3    57  LEU57       0.1561
     56  C        -11.7750  -26.6000   23.2860 C.2    57  LEU57       0.2260
     57  O        -11.6250  -25.8570   24.2840 O.2    57  LEU57      -0.2867
     58  CB       -11.3660  -25.0210   21.4110 C.3    57  LEU57       0.0270
     59  CG        -9.8810  -25.4900   21.3880 C.3    57  LEU57       0.0019
     60  CD1       -9.6600  -26.8640   20.7320 C.3    57  LEU57       0.0001
     61  CD2       -9.0010  -24.4330   20.7440 C.3    57  LEU57       0.0001
     62  N         -0.6000  -22.3530   25.4840 N.3    75  LEU75      -0.1245
     63  CA        -1.8600  -23.0500   25.7750 C.3    75  LEU75       0.1561
     64  C         -1.9000  -24.3300   24.9430 C.2    75  LEU75       0.2260
     65  O         -1.4950  -24.3160   23.8020 O.2    75  LEU75      -0.2867
     66  CB        -3.0440  -22.1920   25.4310 C.3    75  LEU75       0.0270
     67  CG        -4.3760  -22.6930   25.9770 C.3    75  LEU75       0.0019
     68  CD1       -4.5420  -22.3820   27.4500 C.3    75  LEU75       0.0001
     69  CD2       -5.5450  -22.1470   25.1590 C.3    75  LEU75       0.0001
     70  N         -4.2700  -27.5580   23.6570 N.3    77  THR77      -0.1203
     71  CA        -5.6550  -27.8640   23.4300 C.3    77  THR77       0.1994
     72  C         -5.7840  -29.0630   22.4880 C.2    77  THR77       0.2618
     73  O         -4.7890  -29.5860   21.9810 O.2    77  THR77      -0.2717
     74  CB        -6.3290  -26.7020   22.7170 C.3    77  THR77       0.1784
     75  OG1       -5.8570  -26.6680   21.3690 O.3    77  THR77      -0.2211
     76  CG2       -6.0240  -25.3770   23.4100 C.3    77  THR77       0.0376
     77  N         -7.0240  -29.4180   22.1970 N.am   78  HIS78      -0.1961
     78  CA        -7.3170  -30.3350   21.0900 C.3    78  HIS78       0.1787
     79  C         -6.9290  -29.7800   19.7310 C.2    78  HIS78       0.2620
     80  O         -6.9460  -28.5390   19.4940 O.2    78  HIS78      -0.2715
     81  CB        -8.7880  -30.7300   21.1240 C.3    78  HIS78       0.0785
     82  CG        -9.1330  -31.6710   22.2560 C.ar   78  HIS78       0.0821
     83  ND1      -10.3960  -32.0920   22.5010 N.ar   78  HIS78      -0.2267
     84  CD2       -8.3320  -32.2800   23.2100 C.ar   78  HIS78       0.1154
     85  CE1      -10.3940  -32.9460   23.5400 C.ar   78  HIS78       0.1986
     86  NE2       -9.1370  -33.0540   23.9840 N.ar   78  HIS78      -0.2212
     87  N         -6.5440  -30.6810   18.8290 N.am   79  TYR79      -0.1960
     88  CA        -6.1360  -30.2730   17.4740 C.3    79  TYR79       0.1771
     89  C         -7.1970  -30.6890   16.4760 C.2    79  TYR79       0.2620
     90  O         -7.7460  -31.8060   16.5340 O.2    79  TYR79      -0.2715
     91  CB        -4.8040  -30.9040   17.1120 C.3    79  TYR79       0.0574
     92  CG        -4.3440  -30.6460   15.6960 C.ar   79  TYR79      -0.0198
     93  CD1       -4.0170  -29.3420   15.2720 C.ar   79  TYR79      -0.0009
     94  CD2       -4.1830  -31.7000   14.7950 C.ar   79  TYR79      -0.0009
     95  CE1       -3.5890  -29.1000   13.9670 C.ar   79  TYR79       0.0417
     96  CE2       -3.7530  -31.4760   13.5010 C.ar   79  TYR79       0.0417
     97  CZ        -3.4550  -30.1760   13.0800 C.ar   79  TYR79       0.1957
     98  OH        -3.0200  -29.9400   11.7890 O.3    79  TYR79      -0.2866
     99  N         -7.5290  -29.7650   15.5890 N.am   80  HIS80      -0.1959
    100  CA        -8.5110  -30.0440   14.5550 C.3    80  HIS80       0.1787
    101  C         -7.9070  -29.8300   13.1940 C.2    80  HIS80       0.2620
    102  O         -7.6800  -28.7060   12.7720 O.2    80  HIS80      -0.2715
    103  CB        -9.7720  -29.2470   14.8240 C.3    80  HIS80       0.0785
    104  CG       -10.4040  -29.6110   16.1350 C.ar   80  HIS80       0.0821
    105  ND1      -10.9060  -30.8760   16.3770 N.ar   80  HIS80      -0.2267
    106  CD2      -10.4830  -28.9160   17.3420 C.ar   80  HIS80       0.1154
    107  CE1      -11.3270  -30.9430   17.6600 C.ar   80  HIS80       0.1986
    108  NE2      -11.0860  -29.7310   18.2460 N.ar   80  HIS80      -0.2212
    109  N         -7.6060  -30.9340   12.5050 N.am   81  GLU81      -0.1977
    110  CA        -6.7920  -30.8380   11.2910 C.3    81  GLU81       0.1602
    111  C         -7.4230  -30.0640   10.1180 C.2    81  GLU81       0.2287
    112  O         -6.6990  -29.6840    9.2190 O.2    81  GLU81      -0.2864
    113  CB        -6.3470  -32.2050   10.8180 C.3    81  GLU81       0.0415
    114  CG        -7.4540  -33.0700   10.2650 C.3    81  GLU81       0.1163
    115  CD        -7.0830  -34.5520   10.3000 C.2    81  GLU81       0.3649
    116  OE1       -7.7610  -35.3370    9.6160 O.co2  81  GLU81      -0.2457
    117  OE2       -6.1240  -34.9190   11.0140 O.co2  81  GLU81      -0.2457
    118  N         -8.9590  -27.2160   10.5060 N.3    83  GLY83      -0.1210
    119  CA        -8.5240  -25.9060   10.8360 C.3    83  GLY83       0.1956
    120  C         -9.7120  -25.0370   11.1020 C.2    83  GLY83       0.2612
    121  O        -10.7850  -25.5230   11.4340 O.2    83  GLY83      -0.2717
    122  N         -9.5040  -23.7360   10.9300 N.am   84  SER84      -0.1952
    123  CA       -10.4910  -22.7250   11.2590 C.3    84  SER84       0.1924
    124  C        -11.6400  -22.7080   10.2860 C.2    84  SER84       0.2314
    125  O        -11.4630  -22.9550    9.0880 O.2    84  SER84      -0.2863
    126  CB        -9.8240  -21.3470   11.2590 C.3    84  SER84       0.2116
    127  OG        -9.7340  -20.8420    9.9400 O.3    84  SER84      -0.2180
    128  N        -10.6980  -20.7150    7.1660 N.3    87  ASP87      -0.1239
    129  CA       -10.0090  -21.4500    6.1020 C.3    87  ASP87       0.1674
    130  C        -10.9240  -22.4100    5.3450 C.2    87  ASP87       0.2266
    131  O        -10.8010  -22.5490    4.1420 O.2    87  ASP87      -0.2867
    132  CB        -8.8060  -22.1910    6.6680 C.3    87  ASP87       0.1410
    133  CG        -7.8060  -21.2540    7.3000 C.2    87  ASP87       0.3668
    134  OD1       -7.5630  -20.1520    6.7260 O.co2  87  ASP87      -0.2456
    135  OD2       -7.2800  -21.6190    8.3860 O.co2  87  ASP87      -0.2456
    136  N        -12.2020  -17.0510   12.2490 N.3   134  LYS134     -0.1231
    137  CA       -10.8420  -17.5190   12.5940 C.3   134  LYS134      0.1693
    138  C        -10.7100  -18.1180   14.0280 C.2   134  LYS134      0.2592
    139  O         -9.7120  -18.7840   14.3390 O.2   134  LYS134     -0.2718
    140  CB        -9.8190  -16.3990   12.4290 C.3   134  LYS134      0.0285
    141  CG        -9.3240  -16.2280   10.9990 C.3   134  LYS134      0.0035
    142  CD        -8.7320  -14.8510   10.8040 C.3   134  LYS134      0.0206
    143  CE        -7.9040  -14.7510    9.5400 C.3   134  LYS134      0.1093
    144  NZ        -7.3670  -13.3640    9.3790 N.3   134  LYS134     -0.1314
    145  N        -11.6810  -17.8130   14.8990 N.am  135  ASN135     -0.1974
    146  CA       -11.7110  -18.3150   16.2780 C.3   135  ASN135      0.1688
    147  C        -12.7180  -19.4200   16.3810 C.2   135  ASN135      0.2292
    148  O        -13.2450  -19.6880   17.4570 O.2   135  ASN135     -0.2864
    149  CB       -12.0800  -17.1840   17.2710 C.3   135  ASN135      0.1181
    150  CG       -10.8940  -16.2770   17.6070 C.2   135  ASN135      0.2629
    151  OD1       -9.7910  -16.5390   17.1800 O.2   135  ASN135     -0.2716
    152  ND2      -11.1260  -15.2180   18.4080 N.am  135  ASN135     -0.0877
    153  N        -13.1610  -23.5720   15.0940 N.3   137  LEU137     -0.1245
    154  CA       -12.4210  -24.6650   14.4750 C.3   137  LEU137      0.1561
    155  C        -13.3870  -25.7280   14.0310 C.2   137  LEU137      0.2260
    156  O        -14.4310  -25.9580   14.6730 O.2   137  LEU137     -0.2867
    157  CB       -11.3340  -25.2100   15.4240 C.3   137  LEU137      0.0270
    158  CG       -10.2830  -24.0960   15.7770 C.3   137  LEU137      0.0019
    159  CD1       -9.8780  -24.1360   17.2440 C.3   137  LEU137      0.0001
    160  CD2       -9.0580  -24.1000   14.8600 C.3   137  LEU137      0.0001
    161  N        -12.9370  -21.6010   19.8010 N.3   147  ALA147     -0.1231
    162  CA       -11.5840  -21.3860   20.3980 C.3   147  ALA147      0.1694
    163  C        -11.4570  -19.9910   21.0130 C.2   147  ALA147      0.2592
    164  O        -12.3360  -19.1800   20.8490 O.2   147  ALA147     -0.2718
    165  CB       -10.5200  -21.5530   19.3300 C.3   147  ALA147      0.0304
    166  N        -10.3490  -19.7590   21.7260 N.am  148  ASP148     -0.1974
    167  CA        -9.8150  -18.4030   22.1070 C.3   148  ASP148      0.1709
    168  C        -10.7000  -17.6970   23.1050 C.2   148  ASP148      0.2293
    169  O        -11.6520  -17.0600   22.7370 O.2   148  ASP148     -0.2864
    170  CB        -9.5970  -17.5080   20.8880 C.3   148  ASP148      0.1436
    171  CG        -8.8280  -16.1790   21.2260 C.2   148  ASP148      0.3671
    172  OD1       -8.5430  -15.8710   22.4040 O.co2 148  ASP148     -0.2456
    173  OD2       -8.5300  -15.4220   20.2910 O.co2 148  ASP148     -0.2456
@<TRIPOS>BOND
     1   131   130    2
     2   130   129    1
     3   129   132    1
     4   129   128    1
     5   132   133    1
     6   134   133   ar
     7   133   135   ar
     8   125   124    2
     9   112   111    2
    10   144   143    1
    11   143   142    1
    12   116   115   ar
    13   127   126    1
    14   111   110    1
    15   114   115    1
    16   114   113    1
    17   124   123    1
    18   115   117   ar
    19   118   119    1
    20     4     3    2
    21   142   141    1
    22   113   110    1
    23   119   120    1
    24   122   120   am
    25   122   123    1
    26   141   140    1
    27   120   121    2
    28     3     2    1
    29     3     8   am
    30     2     5    1
    31     2     1    1
    32   123   126    1
    33   110   109    1
    34     6     5    1
    35     5     7    1
    36    98    97    1
    37     9     8    1
    38     9    10    1
    39   136   137    1
    40   140   137    1
    41   109   101   am
    42    10    11    2
    43   137   138    1
    44   102   101    2
    45    97    96   ar
    46    97    95   ar
    47   101   100    1
    48    96    94   ar
    49    95    93   ar
    50   138   139    2
    51   138   145   am
    52   155   154    1
    53   155   156    2
    54    23    22    1
    55   154   153    1
    56   154   157    1
    57   100   103    1
    58   100    99    1
    59    21    22   ar
    60    21    19   ar
    61    94    92   ar
    62    27    26    2
    63   103   104    1
    64   160   158    1
    65   145   146    1
    66    22    20   ar
    67    93    92   ar
    68   157   158    1
    69    19    17   ar
    70    99    89   am
    71    92    91    1
    72   158   159    1
    73    26    25    1
    74   104   105   ar
    75   104   106   ar
    76    28    25    1
    77    28    29    1
    78    28    30    1
    79    24    25    1
    80   146   147    1
    81   146   149    1
    82    20    18   ar
    83   105   107   ar
    84   147   148    2
    85    89    90    2
    86    89    88    1
    87    17    18   ar
    88    17    16    1
    89    12    13    1
    90    91    88    1
    91   151   150    2
    92   149   150    1
    93   106   108   ar
    94    88    87    1
    95   150   152   am
    96   107   108   ar
    97    16    13    1
    98    13    14    1
    99    14    15    2
   100    35    32    1
   101    87    79   am
   102    32    31    1
   103    32    33    1
   104   165   162    1
   105    80    79    2
   106    79    78    1
   107   161   162    1
   108   173   171   ar
   109    33    34    2
   110   162   163    1
   111    60    59    1
   112    61    59    1
   113    43    44    1
   114    43    42    1
   115    37    36    1
   116    37    40    1
   117    37    38    1
   118   164   163    2
   119    41    42    1
   120    41    40    1
   121   170   171    1
   122   170   167    1
   123   163   166   am
   124    78    81    1
   125    78    77    1
   126    81    82    1
   127   171   172   ar
   128    75    74    1
   129    59    58    1
   130    58    55    1
   131    38    39    2
   132   166   167    1
   133    73    72    2
   134    55    54    1
   135    55    56    1
   136   167   168    1
   137    77    72   am
   138    82    83   ar
   139    82    84   ar
   140    72    71    1
   141    83    85   ar
   142    74    76    1
   143    74    71    1
   144   169   168    2
   145    84    86   ar
   146    56    57    2
   147    71    70    1
   148    85    86   ar
   149    65    64    2
   150    53    51   ar
   151    64    63    1
   152    52    51   ar
   153    69    67    1
   154    66    63    1
   155    66    67    1
   156    51    50    1
   157    62    63    1
   158    67    68    1
   159    50    49    1
   160    49    46    1
   161    46    45    1
   162    46    47    1
   163    47    48    2
