@<TRIPOS>MOLECULE
tmp/4dynB00.pdb
 91 88 0 0 0
SMALL
GASTEIGER

@<TRIPOS>ATOM
      1  N         19.1060  -31.5530   28.1300 N.3    42  SER42      -0.1217
      2  CA        19.0170  -30.9970   26.7880 C.3    42  SER42       0.1889
      3  C         17.8550  -31.6530   26.0380 C.2    42  SER42       0.2288
      4  O         17.3610  -32.7070   26.4520 O.2    42  SER42      -0.2866
      5  CB        20.3330  -31.2410   26.0490 C.3    42  SER42       0.2089
      6  OG        20.3050  -30.6810   24.7550 O.3    42  SER42      -0.2183
      7  N         17.9760  -33.0990   23.0700 N.3    44  TYR44      -0.1227
      8  CA        18.4980  -34.3980   22.6200 C.3    44  TYR44       0.1736
      9  C         18.4830  -35.4400   23.7430 C.2    44  TYR44       0.2595
     10  O         18.0220  -36.5630   23.5430 O.2    44  TYR44      -0.2718
     11  CB        19.9230  -34.2730   22.0550 C.3    44  TYR44       0.0548
     12  CG        20.0460  -33.4980   20.7600 C.ar   44  TYR44      -0.0200
     13  CD1       19.2880  -33.8410   19.6380 C.ar   44  TYR44      -0.0009
     14  CD2       20.9450  -32.4380   20.6490 C.ar   44  TYR44      -0.0009
     15  CE1       19.4070  -33.1300   18.4440 C.ar   44  TYR44       0.0417
     16  CE2       21.0740  -31.7250   19.4630 C.ar   44  TYR44       0.0417
     17  CZ        20.3020  -32.0780   18.3640 C.ar   44  TYR44       0.1957
     18  OH        20.4240  -31.3730   17.1890 O.3    44  TYR44      -0.2866
     19  N         18.9920  -35.0580   24.9150 N.am   45  GLU45      -0.1979
     20  CA        19.0460  -35.9420   26.0870 C.3    45  GLU45       0.1602
     21  C         17.6510  -36.3070   26.5910 C.2    45  GLU45       0.2287
     22  O         17.4330  -37.4160   27.0800 O.2    45  GLU45      -0.2864
     23  CB        19.8620  -35.3010   27.2150 C.3    45  GLU45       0.0415
     24  CG        21.3550  -35.1940   26.9280 C.3    45  GLU45       0.1163
     25  CD        22.0790  -34.2180   27.8470 C.2    45  GLU45       0.3649
     26  OE1       21.4170  -33.3730   28.4910 O.co2  45  GLU45      -0.2457
     27  OE2       23.3240  -34.2930   27.9180 O.co2  45  GLU45      -0.2457
     28  N         16.3590  -39.1110   24.5930 N.3    48  LEU48      -0.1245
     29  CA        17.0320  -40.3890   24.8090 C.3    48  LEU48       0.1561
     30  C         16.0740  -41.3130   25.5590 C.2    48  LEU48       0.2260
     31  O         15.6690  -41.0170   26.6840 O.2    48  LEU48      -0.2867
     32  CB        18.3340  -40.2010   25.5940 C.3    48  LEU48       0.0270
     33  CG        19.2670  -41.4100   25.7370 C.3    48  LEU48       0.0019
     34  CD1       20.0710  -41.6520   24.4620 C.3    48  LEU48       0.0001
     35  CD2       20.1970  -41.2250   26.9210 C.3    48  LEU48       0.0001
     36  N         25.3910  -36.3000   28.2480 N.3    87  ARG87      -0.1245
     37  CA        26.6330  -36.2730   27.4920 C.3    87  ARG87       0.1563
     38  C         27.5100  -35.1460   28.0270 C.2    87  ARG87       0.2260
     39  O         27.2470  -33.9660   27.7820 O.2    87  ARG87      -0.2867
     40  CB        26.3730  -36.1270   25.9890 C.3    87  ARG87       0.0307
     41  CG        27.6200  -36.3000   25.1410 C.3    87  ARG87       0.0489
     42  CD        27.2890  -36.6890   23.7190 C.3    87  ARG87       0.2205
     43  NE        28.4760  -36.6670   22.8630 N.pl3  87  ARG87      -0.0865
     44  CZ        29.3170  -37.6860   22.7040 C.cat  87  ARG87       0.5346
     45  NH1       29.1200  -38.8340   23.3440 N.pl3  87  ARG87       0.1354
     46  NH2       30.3630  -37.5580   21.8990 N.pl3  87  ARG87       0.1354
     47  N         29.1410  -40.1800   27.3220 N.3    92  TRP92      -0.1241
     48  CA        27.8930  -40.4250   28.0410 C.3    92  TRP92       0.1605
     49  C         28.1480  -40.7940   29.4970 C.2    92  TRP92       0.2264
     50  O         28.9560  -41.6750   29.7970 O.2    92  TRP92      -0.2867
     51  CB        27.0480  -41.4920   27.3400 C.3    92  TRP92       0.0550
     52  CG        26.3220  -40.9480   26.1510 C.ar   92  TRP92       0.0003
     53  CD1       26.6630  -41.1070   24.8390 C.ar   92  TRP92       0.0946
     54  CD2       25.1450  -40.1300   26.1650 C.ar   92  TRP92       0.0152
     55  NE1       25.7660  -40.4490   24.0350 N.ar   92  TRP92      -0.2442
     56  CE2       24.8220  -39.8420   24.8210 C.ar   92  TRP92       0.0810
     57  CE3       24.3260  -39.6200   27.1820 C.ar   92  TRP92       0.0012
     58  CZ2       23.7140  -39.0600   24.4650 C.ar   92  TRP92       0.0191
     59  CZ3       23.2250  -38.8430   26.8270 C.ar   92  TRP92       0.0001
     60  CH2       22.9310  -38.5720   25.4790 C.ar   92  TRP92       0.0015
     61  N         16.1140  -41.2130   20.4900 N.3   287  TYR287     -0.1241
     62  CA        17.4800  -41.7160   20.5710 C.3   287  TYR287      0.1605
     63  C         17.5890  -42.8800   21.5490 C.2   287  TYR287      0.2264
     64  O         16.7370  -43.0580   22.4200 O.2   287  TYR287     -0.2867
     65  CB        18.4400  -40.5940   20.9810 C.3   287  TYR287      0.0534
     66  CG        18.5650  -39.4860   19.9610 C.ar  287  TYR287     -0.0201
     67  CD1       17.6690  -38.4170   19.9470 C.ar  287  TYR287     -0.0009
     68  CD2       19.5800  -39.5060   19.0100 C.ar  287  TYR287     -0.0009
     69  CE1       17.7820  -37.3980   19.0110 C.ar  287  TYR287      0.0417
     70  CE2       19.7020  -38.4950   18.0710 C.ar  287  TYR287      0.0417
     71  CZ        18.8000  -37.4430   18.0750 C.ar  287  TYR287      0.1957
     72  OH        18.9220  -36.4360   17.1450 O.3   287  TYR287     -0.2866
     73  N         25.4060  -43.0400   21.3980 N.3   350  SER350     -0.1202
     74  CA        23.9930  -42.7670   21.1540 C.3   350  SER350      0.2020
     75  C         23.6890  -42.7400   19.6640 C.2   350  SER350      0.2619
     76  O         24.4550  -42.1880   18.8730 O.2   350  SER350     -0.2717
     77  CB        23.5590  -41.4510   21.8060 C.3   350  SER350      0.2103
     78  OG        24.4070  -40.3800   21.4270 O.3   350  SER350     -0.2182
     79  N         22.5650  -43.3450   19.2950 N.am  351  SER351     -0.1937
     80  CA        22.1140  -43.3700   17.9090 C.3   351  SER351      0.2055
     81  C         20.6220  -43.0720   17.7980 C.2   351  SER351      0.2643
     82  O         19.8570  -43.2990   18.7420 O.2   351  SER351     -0.2714
     83  CB        22.4200  -44.7270   17.2720 C.3   351  SER351      0.2130
     84  OG        21.9960  -44.7580   15.9190 O.3   351  SER351     -0.2179
     85  N         20.2280  -42.5600   16.6330 N.am  352  THR352     -0.1950
     86  CA        18.8260  -42.3470   16.2870 C.3   352  THR352      0.1897
     87  C         18.1120  -43.6930   16.2000 C.2   352  THR352      0.2313
     88  O         18.6900  -44.6840   15.7410 O.2   352  THR352     -0.2863
     89  CB        18.6890  -41.6150   14.9240 C.3   352  THR352      0.1794
     90  OG1       19.6140  -40.5250   14.8600 O.3   352  THR352     -0.2208
     91  CG2       17.2780  -41.0730   14.7290 C.3   352  THR352      0.0378
@<TRIPOS>BOND
     1    91    89    1
     2    90    89    1
     3    89    86    1
     4    88    87    2
     5    84    83    1
     6    87    86    1
     7    86    85    1
     8    85    81   am
     9    72    71    1
    10    18    17    1
    11    83    80    1
    12    81    80    1
    13    81    82    2
    14    80    79    1
    15    70    71   ar
    16    70    68   ar
    17    71    69   ar
    18    17    15   ar
    19    17    16   ar
    20    15    13   ar
    21    76    75    2
    22    68    66   ar
    23    69    67   ar
    24    79    75   am
    25    16    14   ar
    26    13    12   ar
    27    75    74    1
    28    67    66   ar
    29    66    65    1
    30    61    62    1
    31    62    65    1
    32    62    63    1
    33    14    12   ar
    34    12    11    1
    35    74    73    1
    36    74    77    1
    37    78    77    1
    38    63    64    2
    39    46    44    1
    40    11     8    1
    41     8     7    1
    42     8     9    1
    43    44    43    2
    44    44    45    1
    45    43    42    1
    46    10     9    2
    47    42    41    1
    48     9    19   am
    49    55    56   ar
    50    55    53   ar
    51    34    33    1
    52    58    56   ar
    53    58    60   ar
    54    28    29    1
    55     6     5    1
    56    29    30    1
    57    29    32    1
    58    56    54   ar
    59    53    52   ar
    60    19    20    1
    61    41    40    1
    62    60    59   ar
    63    30    31    2
    64    32    33    1
    65    33    35    1
    66    40    37    1
    67     3     4    2
    68     3     2    1
    69     5     2    1
    70    20    21    1
    71    20    23    1
    72    52    54   ar
    73    52    51    1
    74    54    57   ar
    75    21    22    2
    76     2     1    1
    77    59    57   ar
    78    24    23    1
    79    24    25    1
    80    47    48    1
    81    51    48    1
    82    37    38    1
    83    37    36    1
    84    39    38    2
    85    25    27   ar
    86    25    26   ar
    87    48    49    1
    88    49    50    2
