@<TRIPOS>MOLECULE
tmp/4dynB01.pdb
 130 123 0 0 0
SMALL
GASTEIGER

@<TRIPOS>ATOM
      1  N        -10.2600  -41.8630   12.8620 N.3     1  SER1       -0.1217
      2  CA        -9.3890  -42.6350   13.7980 C.3     1  SER1        0.1889
      3  C         -9.7540  -42.3760   15.2550 C.2     1  SER1        0.2288
      4  O         -9.5200  -41.2860   15.7790 O.2     1  SER1       -0.2866
      5  CB        -7.9100  -42.3180   13.5520 C.3     1  SER1        0.2089
      6  OG        -7.4410  -42.9350   12.3640 O.3     1  SER1       -0.2183
      7  N        -11.6060  -38.7770   20.8530 N.3    18  ARG18      -0.1245
      8  CA       -10.3030  -38.2690   20.4170 C.3    18  ARG18       0.1563
      9  C         -9.7710  -37.1620   21.3280 C.2    18  ARG18       0.2260
     10  O         -8.5670  -37.0950   21.5940 O.2    18  ARG18      -0.2867
     11  CB       -10.3840  -37.7510   18.9780 C.3    18  ARG18       0.0307
     12  CG       -10.3750  -38.8370   17.9150 C.3    18  ARG18       0.0489
     13  CD       -10.4790  -38.2520   16.5070 C.3    18  ARG18       0.2205
     14  NE        -9.3890  -37.3270   16.1860 N.pl3  18  ARG18      -0.0865
     15  CZ        -8.1770  -37.6890   15.7610 C.cat  18  ARG18       0.5346
     16  NH1       -7.2680  -36.7610   15.4970 N.pl3  18  ARG18       0.1354
     17  NH2       -7.8650  -38.9690   15.6050 N.pl3  18  ARG18       0.1354
     18  N          6.4510  -33.3850   21.0150 N.3   258  ALA258     -0.1245
     19  CA         5.3290  -32.9450   20.1820 C.3   258  ALA258      0.1562
     20  C          4.6010  -31.7560   20.8090 C.2   258  ALA258      0.2260
     21  O          4.3720  -30.7490   20.1390 O.2   258  ALA258     -0.2867
     22  CB         4.3710  -34.0930   19.9150 C.3   258  ALA258      0.0290
     23  N          4.7230  -27.7620   19.4280 N.3   262  GLY262     -0.1210
     24  CA         3.5040  -27.0490   19.0660 C.3   262  GLY262      0.1956
     25  C          2.3490  -27.9100   18.5950 C.2   262  GLY262      0.2612
     26  O          1.4770  -27.4310   17.8650 O.2   262  GLY262     -0.2717
     27  N          2.3360  -29.1780   19.0010 N.am  263  TYR263     -0.1962
     28  CA         1.2020  -30.0500   18.7080 C.3   263  TYR263      0.1771
     29  C          0.2570  -30.1040   19.9070 C.2   263  TYR263      0.2620
     30  O          0.6570  -30.4910   21.0090 O.2   263  TYR263     -0.2715
     31  CB         1.6580  -31.4540   18.3020 C.3   263  TYR263      0.0574
     32  CG         0.6200  -32.2190   17.5060 C.ar  263  TYR263     -0.0198
     33  CD1        0.5550  -32.0990   16.1180 C.ar  263  TYR263     -0.0009
     34  CD2       -0.3050  -33.0530   18.1390 C.ar  263  TYR263     -0.0009
     35  CE1       -0.3980  -32.7910   15.3770 C.ar  263  TYR263      0.0417
     36  CE2       -1.2640  -33.7500   17.4100 C.ar  263  TYR263      0.0417
     37  CZ        -1.3050  -33.6140   16.0280 C.ar  263  TYR263      0.1957
     38  OH        -2.2480  -34.3000   15.2920 O.3   263  TYR263     -0.2866
     39  N         -0.9900  -29.6990   19.6830 N.am  264  ASP264     -0.1957
     40  CA        -2.0110  -29.6890   20.7300 C.3   264  ASP264      0.1840
     41  C         -2.9340  -30.8950   20.5620 C.2   264  ASP264      0.2622
     42  O         -3.9080  -30.8450   19.8080 O.2   264  ASP264     -0.2715
     43  CB        -2.8080  -28.3770   20.6850 C.3   264  ASP264      0.1450
     44  CG        -3.7300  -28.1910   21.8880 C.2   264  ASP264      0.3671
     45  OD1       -3.9500  -29.1450   22.6660 O.co2 264  ASP264     -0.2456
     46  OD2       -4.2460  -27.0680   22.0520 O.co2 264  ASP264     -0.2456
     47  N         -2.6230  -31.9690   21.2810 N.am  265  PHE265     -0.1974
     48  CA        -3.3680  -33.2240   21.1890 C.3   265  PHE265      0.1639
     49  C         -4.8340  -33.0920   21.6200 C.2   265  PHE265      0.2290
     50  O         -5.6830  -33.8620   21.1780 O.2   265  PHE265     -0.2864
     51  CB        -2.6830  -34.3120   22.0180 C.3   265  PHE265      0.0560
     52  CG        -1.3520  -34.7530   21.4760 C.ar  265  PHE265     -0.0200
     53  CD1       -1.2770  -35.7520   20.5100 C.ar  265  PHE265     -0.0042
     54  CD2       -0.1710  -34.1880   21.9500 C.ar  265  PHE265     -0.0042
     55  CE1       -0.0460  -36.1760   20.0090 C.ar  265  PHE265     -0.0003
     56  CE2        1.0650  -34.6060   21.4590 C.ar  265  PHE265     -0.0003
     57  CZ         1.1260  -35.6010   20.4850 C.ar  265  PHE265     -0.0000
     58  N         -6.3420  -31.2380   18.4440 N.3   268  GLU268     -0.1245
     59  CA        -6.1970  -32.0950   17.2630 C.3   268  GLU268      0.1567
     60  C         -6.9070  -33.4320   17.4540 C.2   268  GLU268      0.2260
     61  O         -7.3230  -34.0680   16.4860 O.2   268  GLU268     -0.2867
     62  CB        -4.7180  -32.3540   16.9370 C.3   268  GLU268      0.0388
     63  CG        -3.8440  -31.1110   16.7570 C.3   268  GLU268      0.1160
     64  CD        -4.1250  -30.3340   15.4820 C.2   268  GLU268      0.3649
     65  OE1       -4.6530  -30.9110   14.5090 O.co2 268  GLU268     -0.2457
     66  OE2       -3.7970  -29.1310   15.4540 O.co2 268  GLU268     -0.2457
     67  N         -6.6360  -37.4070   19.4080 N.3   270  TYR270     -0.1241
     68  CA        -5.6570  -38.4840   19.3010 C.3   270  TYR270      0.1605
     69  C         -6.3170  -39.8540   19.3210 C.2   270  TYR270      0.2264
     70  O         -7.4000  -40.0290   19.8830 O.2   270  TYR270     -0.2867
     71  CB        -4.6060  -38.3880   20.4150 C.3   270  TYR270      0.0534
     72  CG        -3.3360  -39.1680   20.1400 C.ar  270  TYR270     -0.0201
     73  CD1       -2.4240  -38.7380   19.1740 C.ar  270  TYR270     -0.0009
     74  CD2       -3.0430  -40.3290   20.8510 C.ar  270  TYR270     -0.0009
     75  CE1       -1.2560  -39.4460   18.9230 C.ar  270  TYR270      0.0417
     76  CE2       -1.8760  -41.0430   20.6090 C.ar  270  TYR270      0.0417
     77  CZ        -0.9890  -40.5970   19.6440 C.ar  270  TYR270      0.1957
     78  OH         0.1630  -41.3050   19.4020 O.3   270  TYR270     -0.2866
     79  N         -4.4010  -43.7920   12.7800 N.3   275  ILE275     -0.1231
     80  CA        -3.2190  -43.3130   12.0610 C.3   275  ILE275      0.1692
     81  C         -2.3170  -42.4550   12.9560 C.2   275  ILE275      0.2592
     82  O         -1.1140  -42.3430   12.7120 O.2   275  ILE275     -0.2718
     83  CB        -3.6210  -42.5290   10.7690 C.3   275  ILE275      0.0266
     84  CG1       -2.4010  -42.3020    9.8620 C.3   275  ILE275      0.0019
     85  CG2       -4.3560  -41.2180   11.1140 C.3   275  ILE275      0.0020
     86  CD1       -2.6950  -41.5890    8.5460 C.3   275  ILE275      0.0001
     87  N         -2.9120  -41.8750   13.9970 N.am  276  ASP276     -0.1974
     88  CA        -2.2600  -40.8830   14.8600 C.3   276  ASP276      0.1709
     89  C         -0.8380  -41.2230   15.3500 C.2   276  ASP276      0.2293
     90  O          0.0760  -40.4200   15.1540 O.2   276  ASP276     -0.2864
     91  CB        -3.1710  -40.5190   16.0430 C.3   276  ASP276      0.1436
     92  CG        -4.5220  -39.9850   15.5990 C.2   276  ASP276      0.3671
     93  OD1       -4.8550  -38.8400   15.9570 O.co2 276  ASP276     -0.2456
     94  OD2       -5.2480  -40.7060   14.8830 O.co2 276  ASP276     -0.2456
     95  N          1.7020  -41.3700   12.4300 N.3   279  ARG279     -0.1231
     96  CA         2.0060  -40.0090   11.9800 C.3   279  ARG279      0.1694
     97  C          2.8610  -39.2260   12.9750 C.2   279  ARG279      0.2591
     98  O          3.6670  -38.3800   12.5790 O.2   279  ARG279     -0.2718
     99  CB         0.7170  -39.2350   11.6870 C.3   279  ARG279      0.0321
    100  CG        -0.0140  -39.6900   10.4370 C.3   279  ARG279      0.0489
    101  CD         0.6170  -39.1270    9.1740 C.3   279  ARG279      0.2205
    102  NE         0.1870  -37.7540    8.9310 N.pl3 279  ARG279     -0.0865
    103  CZ        -0.6860  -37.3930    7.9960 C.cat 279  ARG279      0.5346
    104  NH1       -1.0160  -36.1160    7.8590 N.pl3 279  ARG279      0.1354
    105  NH2       -1.2270  -38.3010    7.1940 N.pl3 279  ARG279      0.1354
    106  N          2.6720  -39.5040   14.2620 N.am  280  LEU280     -0.1980
    107  CA         3.4920  -38.9010   15.3040 C.3   280  LEU280      0.1596
    108  C          4.9380  -39.4070   15.2360 C.2   280  LEU280      0.2287
    109  O          5.8730  -38.6200   15.3800 O.2   280  LEU280     -0.2864
    110  CB         2.8800  -39.1450   16.6910 C.3   280  LEU280      0.0297
    111  CG         3.5590  -38.5710   17.9430 C.3   280  LEU280      0.0022
    112  CD1        3.9310  -37.0980   17.7890 C.3   280  LEU280      0.0001
    113  CD2        2.6770  -38.7780   19.1690 C.3   280  LEU280      0.0001
    114  N          6.9040  -38.0110   12.5920 N.3   283  ASN283     -0.1240
    115  CA         7.2730  -36.6480   12.9580 C.3   283  ASN283      0.1653
    116  C          8.0690  -36.5510   14.2620 C.2   283  ASN283      0.2266
    117  O          8.1250  -35.4890   14.8900 O.2   283  ASN283     -0.2867
    118  CB         6.0250  -35.7640   13.0110 C.3   283  ASN283      0.1155
    119  CG         5.4690  -35.4720   11.6350 C.2   283  ASN283      0.2627
    120  OD1        5.9770  -34.6130   10.9200 O.2   283  ASN283     -0.2716
    121  ND2        4.4220  -36.1910   11.2520 N.am  283  ASN283     -0.0877
    122  N         -5.2060  -40.3900    5.3340 N.3   423  GLU423     -0.1245
    123  CA        -5.6610  -40.0570    6.6870 C.3   423  GLU423      0.1567
    124  C         -6.9820  -40.7380    7.0320 C.2   423  GLU423      0.2260
    125  O         -7.1480  -41.2710    8.1310 O.2   423  GLU423     -0.2867
    126  CB        -5.7940  -38.5400    6.8420 C.3   423  GLU423      0.0388
    127  CG        -4.5000  -37.7760    6.5900 C.3   423  GLU423      0.1160
    128  CD        -4.7240  -36.3280    6.1890 C.2   423  GLU423      0.3649
    129  OE1       -5.8710  -35.9650    5.8450 O.co2 423  GLU423     -0.2457
    130  OE2       -3.7430  -35.5530    6.2080 O.co2 423  GLU423     -0.2457
@<TRIPOS>BOND
     1   122   123    1
     2   129   128   ar
     3   128   130   ar
     4   128   127    1
     5   127   126    1
     6   123   126    1
     7   123   124    1
     8   124   125    2
     9   105   103    1
    10   104   103    1
    11   103   102    2
    12    86    84    1
    13   102   101    1
    14   101   100    1
    15    84    83    1
    16   100    99    1
    17    83    85    1
    18    83    80    1
    19   120   119    2
    20   121   119   am
    21   119   118    1
    22    99    96    1
    23    96    95    1
    24    96    97    1
    25    80    79    1
    26    80    81    1
    27     6     5    1
    28    98    97    2
    29   114   115    1
    30    82    81    2
    31     1     2    1
    32    81    87   am
    33   115   118    1
    34   115   116    1
    35    97   106   am
    36     5     2    1
    37     2     3    1
    38    87    88    1
    39   106   107    1
    40   116   117    2
    41    65    64   ar
    42    88    89    1
    43    88    91    1
    44    94    92   ar
    45    90    89    2
    46   108   107    1
    47   108   109    2
    48     3     4    2
    49    38    37    1
    50   107   110    1
    51    35    37   ar
    52    35    33   ar
    53    66    64   ar
    54    64    63    1
    55    16    15    1
    56    92    93   ar
    57    92    91    1
    58    17    15    1
    59    15    14    2
    60    37    36   ar
    61    33    32   ar
    62    14    13    1
    63    61    60    2
    64    13    12    1
    65   110   111    1
    66    63    62    1
    67    62    59    1
    68    59    60    1
    69    59    58    1
    70    36    34   ar
    71    32    34   ar
    72    32    31    1
    73   112   111    1
    74    26    25    2
    75    12    11    1
    76   111   113    1
    77    31    28    1
    78    25    27   am
    79    25    24    1
    80    28    27    1
    81    28    29    1
    82    75    73   ar
    83    75    77   ar
    84    11     8    1
    85    24    23    1
    86    73    72   ar
    87    68    69    1
    88    68    67    1
    89    68    71    1
    90    69    70    2
    91    78    77    1
    92    77    76   ar
    93    39    29   am
    94    39    40    1
    95    42    41    2
    96    29    30    2
    97    22    19    1
    98    55    57   ar
    99    55    53   ar
   100    21    20    2
   101    72    71    1
   102    72    74   ar
   103    19    20    1
   104    19    18    1
   105     8     7    1
   106     8     9    1
   107    57    56   ar
   108    53    52   ar
   109    41    40    1
   110    41    47   am
   111    76    74   ar
   112    43    40    1
   113    43    44    1
   114    50    49    2
   115    48    47    1
   116    48    49    1
   117    48    51    1
   118     9    10    2
   119    56    54   ar
   120    52    54   ar
   121    52    51    1
   122    44    46   ar
   123    44    45   ar
