@<TRIPOS>MOLECULE
tmp/4dypA00.pdb
 107 103 0 0 0
SMALL
GASTEIGER

@<TRIPOS>ATOM
      1  N         19.6620  -27.5940   15.6730 N.3   231  ALA231     -0.1245
      2  CA        20.7390  -28.3160   16.3440 C.3   231  ALA231      0.1562
      3  C         21.2840  -27.5360   17.5450 C.2   231  ALA231      0.2260
      4  O         21.5270  -28.1160   18.6090 O.2   231  ALA231     -0.2867
      5  CB        21.8500  -28.6580   15.3610 C.3   231  ALA231      0.0290
      6  N         20.7550  -28.8440   21.6940 N.3   235  GLY235     -0.1210
      7  CA        21.8610  -29.0350   22.6290 C.3   235  GLY235      0.1956
      8  C         23.1920  -29.4250   22.0150 C.2   235  GLY235      0.2612
      9  O         24.0540  -29.9790   22.7010 O.2   235  GLY235     -0.2717
     10  N         23.3640  -29.1380   20.7270 N.am  236  TYR236     -0.1962
     11  CA        24.6040  -29.4390   20.0270 C.3   236  TYR236      0.1771
     12  C         25.4940  -28.2090   20.0220 C.2   236  TYR236      0.2620
     13  O         25.0370  -27.1030   19.7260 O.2   236  TYR236     -0.2715
     14  CB        24.3150  -29.8950   18.5910 C.3   236  TYR236      0.0574
     15  CG        25.4840  -30.5740   17.9060 C.ar  236  TYR236     -0.0198
     16  CD1       25.7790  -31.9150   18.1570 C.ar  236  TYR236     -0.0009
     17  CD2       26.2850  -29.8810   17.0030 C.ar  236  TYR236     -0.0009
     18  CE1       26.8430  -32.5430   17.5400 C.ar  236  TYR236      0.0417
     19  CE2       27.3560  -30.5020   16.3730 C.ar  236  TYR236      0.0417
     20  CZ        27.6280  -31.8330   16.6470 C.ar  236  TYR236      0.1957
     21  OH        28.6830  -32.4560   16.0250 O.3   236  TYR236     -0.2866
     22  N         26.7640  -28.4030   20.3550 N.am  237  ASP237     -0.1957
     23  CA        27.7160  -27.3000   20.3940 C.3   237  ASP237      0.1840
     24  C         28.6580  -27.3640   19.1980 C.2   237  ASP237      0.2622
     25  O         29.6380  -28.1150   19.2070 O.2   237  ASP237     -0.2715
     26  CB        28.5020  -27.3220   21.7100 C.3   237  ASP237      0.1450
     27  CG        29.3930  -26.1010   21.8920 C.2   237  ASP237      0.3671
     28  OD1       29.4860  -25.2450   20.9830 O.co2 237  ASP237     -0.2456
     29  OD2       30.0130  -25.9950   22.9680 O.co2 237  ASP237     -0.2456
     30  N         28.3630  -26.5630   18.1760 N.am  238  PHE238     -0.1974
     31  CA        29.1900  -26.5290   16.9660 C.3   238  PHE238      0.1639
     32  C         30.6110  -26.0130   17.2110 C.2   238  PHE238      0.2290
     33  O         31.5330  -26.3690   16.4800 O.2   238  PHE238     -0.2864
     34  CB        28.5100  -25.7260   15.8550 C.3   238  PHE238      0.0560
     35  CG        27.3280  -26.4200   15.2470 C.ar  238  PHE238     -0.0200
     36  CD1       27.5050  -27.5100   14.4040 C.ar  238  PHE238     -0.0042
     37  CD2       26.0360  -25.9790   15.5130 C.ar  238  PHE238     -0.0042
     38  CE1       26.4140  -28.1550   13.8370 C.ar  238  PHE238     -0.0003
     39  CE2       24.9360  -26.6150   14.9520 C.ar  238  PHE238     -0.0003
     40  CZ        25.1260  -27.7090   14.1120 C.ar  238  PHE238     -0.0000
     41  N         32.4700  -26.4080   20.2120 N.3   240  ARG240     -0.1231
     42  CA        33.2520  -27.4250   20.9230 C.3   240  ARG240      0.1694
     43  C         33.5300  -28.6560   20.0600 C.2   240  ARG240      0.2591
     44  O         34.5740  -29.2880   20.1950 O.2   240  ARG240     -0.2718
     45  CB        32.5600  -27.8420   22.2250 C.3   240  ARG240      0.0321
     46  CG        33.3230  -28.8760   23.0460 C.3   240  ARG240      0.0489
     47  CD        32.6440  -29.2990   24.3430 C.3   240  ARG240      0.2205
     48  NE        31.1870  -29.4130   24.2070 N.pl3 240  ARG240     -0.0865
     49  CZ        30.5940  -30.5730   24.0160 C.cat 240  ARG240      0.5346
     50  NH1       31.2970  -31.6800   23.9380 N.pl3 240  ARG240      0.1354
     51  NH2       29.2830  -30.6510   23.8860 N.pl3 240  ARG240      0.1354
     52  N         32.5900  -28.9910   19.1800 N.am  241  GLU241     -0.1979
     53  CA        32.7160  -30.1660   18.3160 C.3   241  GLU241      0.1602
     54  C         33.3900  -29.8220   16.9960 C.2   241  GLU241      0.2287
     55  O         33.8420  -30.7120   16.2740 O.2   241  GLU241     -0.2864
     56  CB        31.3420  -30.7860   18.0330 C.3   241  GLU241      0.0415
     57  CG        30.5130  -31.1150   19.2690 C.3   241  GLU241      0.1163
     58  CD        30.8380  -32.4640   19.8850 C.2   241  GLU241      0.3649
     59  OE1       31.8550  -33.0840   19.5060 O.co2 241  GLU241     -0.2457
     60  OE2       30.0600  -32.9060   20.7570 O.co2 241  GLU241     -0.2457
     61  N         33.1780  -28.1540   13.0610 N.3   243  TYR243     -0.1241
     62  CA        32.2810  -28.5030   11.9590 C.3   243  TYR243      0.1605
     63  C         33.0210  -28.4470   10.6320 C.2   243  TYR243      0.2264
     64  O         33.9850  -27.6910   10.4850 O.2   243  TYR243     -0.2867
     65  CB        31.0700  -27.5630   11.9360 C.3   243  TYR243      0.0534
     66  CG        29.9180  -28.0270   11.0690 C.ar  243  TYR243     -0.0201
     67  CD1       29.0090  -28.9740   11.5350 C.ar  243  TYR243     -0.0009
     68  CD2       29.7240  -27.5020    9.7870 C.ar  243  TYR243     -0.0009
     69  CE1       27.9450  -29.3950   10.7410 C.ar  243  TYR243      0.0417
     70  CE2       28.6620  -27.9150    8.9910 C.ar  243  TYR243      0.0417
     71  CZ        27.7800  -28.8600    9.4730 C.ar  243  TYR243      0.1957
     72  OH        26.7270  -29.2740    8.6960 O.3   243  TYR243     -0.2866
     73  N         30.3310  -34.1560    8.6960 N.3   249  ASP249     -0.1239
     74  CA        29.4170  -33.3910    9.5640 C.3   249  ASP249      0.1674
     75  C         28.0290  -33.0600    8.9700 C.2   249  ASP249      0.2266
     76  O         27.0200  -33.3900    9.5890 O.2   249  ASP249     -0.2867
     77  CB        30.1020  -32.1340   10.1280 C.3   249  ASP249      0.1410
     78  CG        31.4820  -32.4240   10.7220 C.2   249  ASP249      0.3668
     79  OD1       31.6790  -32.1630   11.9250 O.co2 249  ASP249     -0.2456
     80  OD2       32.3730  -32.9080    9.9900 O.co2 249  ASP249     -0.2456
     81  N         26.0670  -36.1670    8.7830 N.3   252  ARG252     -0.1231
     82  CA        25.6930  -36.5650   10.1430 C.3   252  ARG252      0.1694
     83  C         24.5820  -35.6900   10.7200 C.2   252  ARG252      0.2591
     84  O         23.6590  -36.1940   11.3730 O.2   252  ARG252     -0.2718
     85  CB        26.9100  -36.5600   11.0730 C.3   252  ARG252      0.0321
     86  CG        26.5740  -36.8670   12.5360 C.3   252  ARG252      0.0489
     87  CD        27.7660  -37.4240   13.2960 C.3   252  ARG252      0.2205
     88  NE        28.0930  -38.7750   12.8470 N.pl3 252  ARG252     -0.0865
     89  CZ        29.0940  -39.5090   13.3210 C.cat 252  ARG252      0.5346
     90  NH1       29.8860  -39.0330   14.2730 N.pl3 252  ARG252      0.1354
     91  NH2       29.2990  -40.7280   12.8370 N.pl3 252  ARG252      0.1354
     92  N         24.6800  -34.3840   10.4790 N.am  253  LEU253     -0.1980
     93  CA        23.6630  -33.4460   10.9350 C.3   253  LEU253      0.1596
     94  C         22.3120  -33.7260   10.2710 C.2   253  LEU253      0.2287
     95  O         21.2880  -33.7820   10.9520 O.2   253  LEU253     -0.2864
     96  CB        24.1140  -31.9990   10.7150 C.3   253  LEU253      0.0297
     97  CG        23.1360  -30.8500   10.9790 C.3   253  LEU253      0.0022
     98  CD1       22.5280  -30.8880   12.3810 C.3   253  LEU253      0.0001
     99  CD2       23.8390  -29.5280   10.7330 C.3   253  LEU253      0.0001
    100  N         20.4030  -36.4430   11.6620 N.3   256  ASN256     -0.1240
    101  CA        19.8340  -36.1410   12.9740 C.3   256  ASN256      0.1653
    102  C         18.8490  -34.9660   12.9270 C.2   256  ASN256      0.2266
    103  O         18.4930  -34.3940   13.9620 O.2   256  ASN256     -0.2867
    104  CB        20.9530  -35.8520   13.9800 C.3   256  ASN256      0.1155
    105  CG        21.7240  -37.1000   14.3810 C.2   256  ASN256      0.2627
    106  OD1       22.8270  -37.3480   13.8950 O.2   256  ASN256     -0.2716
    107  ND2       21.1430  -37.8930   15.2700 N.am  256  ASN256     -0.0877
@<TRIPOS>BOND
     1    73    74    1
     2    72    71    1
     3    81    82    1
     4    75    74    1
     5    75    76    2
     6    70    71   ar
     7    70    68   ar
     8    71    69   ar
     9    74    77    1
    10    68    66   ar
    11    80    78   ar
    12    77    78    1
    13    82    83    1
    14    82    85    1
    15    94    93    1
    16    94    95    2
    17    92    83   am
    18    92    93    1
    19    64    63    2
    20    63    62    1
    21    96    93    1
    22    96    97    1
    23    83    84    2
    24    78    79   ar
    25    99    97    1
    26    69    67   ar
    27    97    98    1
    28    66    67   ar
    29    66    65    1
    30    85    86    1
    31   100   101    1
    32    65    62    1
    33    62    61    1
    34    86    87    1
    35    91    89    1
    36    88    87    1
    37    88    89    2
    38   102   101    1
    39   102   103    2
    40   101   104    1
    41    89    90    1
    42    38    40   ar
    43    38    36   ar
    44   106   105    2
    45   104   105    1
    46    40    39   ar
    47   105   107   am
    48    36    35   ar
    49    39    37   ar
    50    35    37   ar
    51    35    34    1
    52     5     2    1
    53     1     2    1
    54    34    31    1
    55    21    20    1
    56    55    54    2
    57     2     3    1
    58    19    20   ar
    59    19    17   ar
    60    33    32    2
    61    20    18   ar
    62    31    32    1
    63    31    30    1
    64    54    53    1
    65    17    15   ar
    66    18    16   ar
    67     3     4    2
    68    15    16   ar
    69    15    14    1
    70    56    53    1
    71    56    57    1
    72    30    24   am
    73    53    52    1
    74    14    11    1
    75    52    43   am
    76    24    25    2
    77    24    23    1
    78    57    58    1
    79    59    58   ar
    80    13    12    2
    81    58    60   ar
    82    12    11    1
    83    12    22   am
    84    11    10    1
    85    43    44    2
    86    43    42    1
    87    41    42    1
    88    22    23    1
    89    23    26    1
    90    10     8   am
    91    42    45    1
    92    28    27   ar
    93     6     7    1
    94    26    27    1
    95    27    29   ar
    96     8     7    1
    97     8     9    2
    98    45    46    1
    99    46    47    1
   100    51    49    1
   101    50    49    1
   102    49    48    2
   103    48    47    1
