@<TRIPOS>MOLECULE
tmp/4dz5A01.pdb
 149 148 0 0 0
SMALL
GASTEIGER

@<TRIPOS>ATOM
      1  N          0.7810    1.7660  -19.3220 N.3    51  LEU51      -0.1245
      2  CA        -0.5690    1.6450  -18.7420 C.3    51  LEU51       0.1561
      3  C         -0.8040    2.5880  -17.5740 C.2    51  LEU51       0.2260
      4  O         -1.9750    2.9540  -17.3020 O.2    51  LEU51      -0.2867
      5  CB        -0.7530    0.1630  -18.2180 C.3    51  LEU51       0.0270
      6  CG        -2.1460   -0.1820  -17.6520 C.3    51  LEU51       0.0019
      7  CD1       -3.1500   -0.2350  -18.7670 C.3    51  LEU51       0.0001
      8  CD2       -1.9960   -1.5160  -16.9180 C.3    51  LEU51       0.0001
      9  N          2.4520   -2.0950  -23.4970 N.3    83  TRP83      -0.1298
     10  CA         1.0740   -2.4820  -23.2430 C.3    83  TRP83       0.1291
     11  C          0.5660   -3.4440  -24.3230 C.3    83  TRP83       0.2013
     12  O          1.0930   -3.5320  -25.4930 O.3    83  TRP83      -0.2188
     13  CB         0.1590   -1.2070  -23.1270 C.3    83  TRP83       0.0497
     14  CG        -1.2720   -1.6220  -22.7500 C.ar   83  TRP83      -0.0001
     15  CD1       -2.4400   -1.3590  -23.4220 C.ar   83  TRP83       0.0946
     16  CD2       -1.6610   -2.5270  -21.6510 C.ar   83  TRP83       0.0152
     17  NE1       -3.4890   -2.0050  -22.8100 N.ar   83  TRP83      -0.2442
     18  CE2       -3.0880   -2.7420  -21.7930 C.ar   83  TRP83       0.0810
     19  CE3       -0.9730   -3.1710  -20.6160 C.ar   83  TRP83       0.0012
     20  CZ2       -3.7990   -3.5090  -20.8730 C.ar   83  TRP83       0.0191
     21  CZ3       -1.6840   -4.0820  -19.7390 C.ar   83  TRP83       0.0001
     22  CH2       -3.0860   -4.2050  -19.8960 C.ar   83  TRP83       0.0015
     23  N          4.2690   -6.3250  -21.0360 N.3   114  HIS114     -0.1226
     24  CA         3.5250   -6.2230  -19.7580 C.3   114  HIS114      0.1752
     25  C          2.7150   -7.4660  -19.4490 C.2   114  HIS114      0.2596
     26  O          2.5210   -7.8190  -18.2650 O.2   114  HIS114     -0.2718
     27  CB         2.5850   -5.0150  -19.8950 C.3   114  HIS114      0.0759
     28  CG         2.1550   -4.4240  -18.5930 C.ar  114  HIS114      0.0818
     29  ND1        1.9000   -3.0630  -18.4500 N.ar  114  HIS114     -0.2268
     30  CD2        1.8190   -5.0080  -17.3610 C.ar  114  HIS114      0.1154
     31  CE1        1.4370   -2.8020  -17.2300 C.ar  114  HIS114      0.1986
     32  NE2        1.3930   -3.9480  -16.5180 N.ar  114  HIS114     -0.2212
     33  N          2.1550   -8.0930  -20.4860 N.am  115  SER115     -0.1952
     34  CA         1.2930   -9.2700  -20.2630 C.3   115  SER115      0.1924
     35  C          1.2190  -10.0300  -21.5880 C.2   115  SER115      0.2314
     36  O          1.2960   -9.4580  -22.6860 O.2   115  SER115     -0.2863
     37  CB        -0.1060   -8.7240  -19.9080 C.3   115  SER115      0.2116
     38  OG        -1.2340   -9.5310  -20.3480 O.3   115  SER115     -0.2180
     39  N         -1.4150  -11.3960  -22.6560 N.3   117  MET117     -0.1245
     40  CA        -2.8240  -11.3620  -23.1630 C.3   117  MET117      0.1570
     41  C         -3.0220  -10.2330  -24.1890 C.2   117  MET117      0.2261
     42  O         -3.4630   -9.1470  -23.8190 O.2   117  MET117     -0.2867
     43  CB        -3.8090  -11.2480  -21.9880 C.3   117  MET117      0.0387
     44  CG        -3.7220  -12.4770  -21.0710 C.3   117  MET117      0.0595
     45  SD        -4.7210  -12.2550  -19.6000 S.3   117  MET117     -0.1393
     46  CE        -3.8420  -10.9950  -18.7090 C.3   117  MET117      0.0692
     47  N         -4.2280   -7.6600  -26.9910 N.3   119  LEU119     -0.1245
     48  CA        -5.4780   -6.9280  -27.2140 C.3   119  LEU119      0.1561
     49  C         -5.4830   -6.2240  -28.5880 C.2   119  LEU119      0.2260
     50  O         -4.4220   -5.9300  -29.1210 O.2   119  LEU119     -0.2867
     51  CB        -5.6980   -5.9170  -26.0150 C.3   119  LEU119      0.0270
     52  CG        -5.8250   -6.4640  -24.6070 C.3   119  LEU119      0.0019
     53  CD1       -5.9300   -5.3620  -23.5370 C.3   119  LEU119      0.0001
     54  CD2       -7.0080   -7.4560  -24.3750 C.3   119  LEU119      0.0001
     55  N          3.9920  -11.3420  -16.2770 N.3   151  ASN151     -0.1240
     56  CA         2.7590  -12.1440  -16.2870 C.3   151  ASN151      0.1653
     57  C          2.8450  -13.3960  -17.2020 C.2   151  ASN151      0.2266
     58  O          1.8270  -13.8470  -17.6760 O.2   151  ASN151     -0.2867
     59  CB         1.5630  -11.2930  -16.6630 C.3   151  ASN151      0.1155
     60  CG         1.3000  -10.2720  -15.5500 C.2   151  ASN151      0.2627
     61  OD1        1.1110  -10.6510  -14.3270 O.2   151  ASN151     -0.2716
     62  ND2        1.3650   -8.9750  -15.9010 N.am  151  ASN151     -0.0877
     63  N          5.4610   -8.5390   -7.9870 N.3   200  TYR200     -0.1241
     64  CA         4.5310   -7.3930   -7.8250 C.3   200  TYR200      0.1605
     65  C          3.4190   -7.8720   -6.9140 C.2   200  TYR200      0.2264
     66  O          3.1980   -9.0750   -6.6850 O.2   200  TYR200     -0.2867
     67  CB         3.9670   -6.8310   -9.1700 C.3   200  TYR200      0.0534
     68  CG         2.9840   -7.6910   -9.9430 C.ar  200  TYR200     -0.0201
     69  CD1        1.6510   -7.8990   -9.4660 C.ar  200  TYR200     -0.0009
     70  CD2        3.3510   -8.2190  -11.2120 C.ar  200  TYR200     -0.0009
     71  CE1        0.7330   -8.5770  -10.2080 C.ar  200  TYR200      0.0417
     72  CE2        2.4250   -8.8760  -11.9650 C.ar  200  TYR200      0.0417
     73  CZ         1.1270   -9.0710  -11.4490 C.ar  200  TYR200      0.1957
     74  OH         0.1580   -9.7170  -12.1750 O.3   200  TYR200     -0.2866
     75  N        -11.6950   -3.0990   -9.6690 N.3   210  ARG210     -0.1231
     76  CA       -11.9400   -3.5790  -11.0470 C.3   210  ARG210      0.1694
     77  C        -11.5420   -5.0340  -11.1800 C.2   210  ARG210      0.2592
     78  O        -12.1740   -5.7620  -11.9650 O.2   210  ARG210     -0.2718
     79  CB       -11.1410   -2.7720  -12.0640 C.3   210  ARG210      0.0321
     80  CG       -11.6040   -1.3310  -12.2980 C.3   210  ARG210      0.0489
     81  CD       -10.5390   -0.5890  -13.1590 C.3   210  ARG210      0.2205
     82  NE        -9.3640   -0.2650  -12.3630 N.pl3 210  ARG210     -0.0865
     83  CZ        -8.2950    0.4110  -12.7880 C.cat 210  ARG210      0.5346
     84  NH1       -8.2760    0.8700  -14.0360 N.pl3 210  ARG210      0.1354
     85  NH2       -7.2520    0.6590  -11.9610 N.pl3 210  ARG210      0.1354
     86  N        -10.5790   -5.4810  -10.3770 N.am  211  PHE211     -0.1976
     87  CA       -10.1370   -6.8500  -10.6290 C.3   211  PHE211      0.1639
     88  C         -9.8100   -7.7110   -9.4020 C.2   211  PHE211      0.2290
     89  O         -9.4240   -8.9010   -9.5470 O.2   211  PHE211     -0.2864
     90  CB        -8.9970   -6.8440  -11.6520 C.3   211  PHE211      0.0560
     91  CG        -8.1210   -5.6330  -11.6050 C.ar  211  PHE211     -0.0200
     92  CD1       -7.1900   -5.5060  -10.6330 C.ar  211  PHE211     -0.0042
     93  CD2       -8.2370   -4.6390  -12.5650 C.ar  211  PHE211     -0.0042
     94  CE1       -6.3780   -4.3840  -10.5740 C.ar  211  PHE211     -0.0003
     95  CE2       -7.4130   -3.5070  -12.5180 C.ar  211  PHE211     -0.0003
     96  CZ        -6.4840   -3.3980  -11.5280 C.ar  211  PHE211     -0.0000
     97  N         -5.2610  -10.5510   -8.5340 N.3   290  PHE290     -0.1241
     98  CA        -5.8800  -10.2090   -9.8180 C.3   290  PHE290      0.1605
     99  C         -6.6620  -11.4040  -10.3090 C.2   290  PHE290      0.2264
    100  O         -6.0830  -12.4360  -10.7130 O.2   290  PHE290     -0.2867
    101  CB        -4.7840   -9.8410  -10.8410 C.3   290  PHE290      0.0534
    102  CG        -4.1920   -8.4780  -10.5520 C.ar  290  PHE290     -0.0203
    103  CD1       -3.2530   -8.3070   -9.5800 C.ar  290  PHE290     -0.0042
    104  CD2       -4.6060   -7.3700  -11.2800 C.ar  290  PHE290     -0.0042
    105  CE1       -2.6580   -7.0260   -9.2800 C.ar  290  PHE290     -0.0003
    106  CE2       -4.0550   -6.0810  -10.9980 C.ar  290  PHE290     -0.0003
    107  CZ        -3.1360   -5.9170   -9.9640 C.ar  290  PHE290     -0.0000
    108  N         -9.4440  -11.1730  -17.4720 N.3   295  PHE295     -0.1241
    109  CA        -8.1650  -11.9150  -17.6900 C.3   295  PHE295      0.1605
    110  C         -8.4470  -13.4090  -17.9110 C.2   295  PHE295      0.2264
    111  O         -7.9210  -14.0090  -18.9060 O.2   295  PHE295     -0.2867
    112  CB        -7.1880  -11.7380  -16.5330 C.3   295  PHE295      0.0534
    113  CG        -7.0570  -10.2990  -16.1120 C.ar  295  PHE295     -0.0203
    114  CD1       -6.7960   -9.3340  -17.0760 C.ar  295  PHE295     -0.0042
    115  CD2       -7.2220   -9.9410  -14.7710 C.ar  295  PHE295     -0.0042
    116  CE1       -6.6420   -7.9810  -16.6800 C.ar  295  PHE295     -0.0003
    117  CE2       -7.1230   -8.6060  -14.3900 C.ar  295  PHE295     -0.0003
    118  CZ        -6.8270   -7.6340  -15.3250 C.ar  295  PHE295     -0.0000
    119  N         -4.3470  -16.4070  -21.0470 N.3   301  TYR301     -0.1228
    120  CA        -4.3370  -16.1570  -19.5970 C.3   301  TYR301      0.1721
    121  C         -3.2230  -17.0050  -18.9180 C.2   301  TYR301      0.2437
    122  O         -3.1590  -18.2760  -19.1470 O.2   301  TYR301     -0.2733
    123  CB        -5.6970  -16.6770  -19.0910 C.3   301  TYR301      0.0547
    124  CG        -5.9680  -16.5170  -17.6240 C.ar  301  TYR301     -0.0200
    125  CD1       -5.7650  -15.2940  -17.0350 C.ar  301  TYR301     -0.0009
    126  CD2       -6.4660  -17.6170  -16.8680 C.ar  301  TYR301     -0.0009
    127  CE1       -6.1310  -15.1020  -15.6740 C.ar  301  TYR301      0.0417
    128  CE2       -6.8100  -17.4650  -15.4950 C.ar  301  TYR301      0.0417
    129  CZ        -6.6360  -16.1750  -14.9500 C.ar  301  TYR301      0.1957
    130  OH        -6.9660  -15.9930  -13.5670 O.3   301  TYR301     -0.2866
    131  N         -2.3780  -16.4020  -18.0920 N.am  302  PRO302     -0.2718
    132  CA        -1.2560  -17.1880  -17.6000 C.3   302  PRO302      0.1535
    133  C         -1.6080  -18.1590  -16.4990 C.2   302  PRO302      0.2598
    134  O         -0.8910  -19.1340  -16.2930 O.2   302  PRO302     -0.2715
    135  CB        -0.2650  -16.1650  -17.1220 C.3   302  PRO302      0.0310
    136  CG        -1.1640  -14.9830  -16.7660 C.3   302  PRO302      0.0237
    137  CD        -2.1210  -14.9560  -17.9460 C.3   302  PRO302      0.0939
    138  N         -2.7660  -17.9920  -15.8500 N.am  303  TYR303     -0.1974
    139  CA        -3.0290  -18.9300  -14.7240 C.3   303  TYR303      0.1639
    140  C         -3.7800  -20.1630  -15.1830 C.2   303  TYR303      0.2290
    141  O         -4.0960  -20.9660  -14.3600 O.2   303  TYR303     -0.2864
    142  CB        -3.7430  -18.2070  -13.5870 C.3   303  TYR303      0.0560
    143  CG        -2.9710  -16.9930  -13.0760 C.ar  303  TYR303     -0.0198
    144  CD1       -1.5900  -17.0460  -12.9460 C.ar  303  TYR303     -0.0009
    145  CD2       -3.6150  -15.7660  -12.7630 C.ar  303  TYR303     -0.0009
    146  CE1       -0.8360  -15.9410  -12.4900 C.ar  303  TYR303      0.0417
    147  CE2       -2.8820  -14.6810  -12.2370 C.ar  303  TYR303      0.0417
    148  CZ        -1.4900  -14.7500  -12.1420 C.ar  303  TYR303      0.1957
    149  OH        -0.7220  -13.7010  -11.7200 O.3   303  TYR303     -0.2866
@<TRIPOS>BOND
     1    50    49    2
     2    49    48    1
     3    48    47    1
     4    48    51    1
     5    51    52    1
     6    12    11    1
     7    52    54    1
     8    52    53    1
     9    11    10    1
    10    41    42    2
    11    41    40    1
    12     9    10    1
    13    15    17   ar
    14    15    14   ar
    15    10    13    1
    16    40    39    1
    17    40    43    1
    18    13    14    1
    19    17    18   ar
    20    14    16   ar
    21    36    35    2
    22    43    44    1
    23    18    16   ar
    24    18    20   ar
    25    16    19   ar
    26    35    34    1
    27    44    45    1
    28   119   120    1
    29    23    24    1
    30    20    22   ar
    31    19    21   ar
    32    33    34    1
    33    33    25   am
    34    38    37    1
    35    34    37    1
    36    22    21   ar
    37    27    24    1
    38    27    28    1
    39    24    25    1
    40    45    46    1
    41   120   123    1
    42   120   121    1
    43    25    26    2
    44     1     2    1
    45   122   121    2
    46   123   124    1
    47   121   131   am
    48   111   110    2
    49     7     6    1
    50     2     5    1
    51     2     3    1
    52    28    29   ar
    53    28    30   ar
    54    29    31   ar
    55     5     6    1
    56   131   137    1
    57   131   132    1
    58   137   136    1
    59   110   109    1
    60   109   108    1
    61   109   112    1
    62    58    57    2
    63     6     8    1
    64   124   125   ar
    65   124   126   ar
    66   132   135    1
    67   132   133    1
    68     3     4    2
    69    30    32   ar
    70    31    32   ar
    71    57    56    1
    72   135   136    1
    73   114   116   ar
    74   114   113   ar
    75   125   127   ar
    76   126   128   ar
    77   116   118   ar
    78    59    56    1
    79    59    60    1
    80   112   113    1
    81   133   134    2
    82   133   138   am
    83    56    55    1
    84   113   115   ar
    85    62    60   am
    86   138   139    1
    87   127   129   ar
    88    60    61    2
    89   128   129   ar
    90   118   117   ar
    91   140   139    1
    92   140   141    2
    93   129   130    1
    94   115   117   ar
    95   139   142    1
    96    84    83    1
    97   142   143    1
    98    81    82    1
    99    81    80    1
   100   143   144   ar
   101   143   145   ar
   102   144   146   ar
   103    83    82    2
   104    83    85    1
   105   145   147   ar
   106    93    95   ar
   107    93    91   ar
   108    95    96   ar
   109   146   148   ar
   110    80    79    1
   111   147   148   ar
   112    74    73    1
   113   148   149    1
   114    79    76    1
   115    78    77    2
   116    72    73   ar
   117    72    70   ar
   118    90    91    1
   119    90    87    1
   120    91    92   ar
   121    96    94   ar
   122    73    71   ar
   123   104   106   ar
   124   104   102   ar
   125    70    68   ar
   126    77    76    1
   127    77    86   am
   128    76    75    1
   129   106   107   ar
   130   101   102    1
   131   101    98    1
   132   100    99    2
   133    92    94   ar
   134    87    86    1
   135    87    88    1
   136   102   103   ar
   137    99    98    1
   138    71    69   ar
   139   107   105   ar
   140    68    69   ar
   141    68    67    1
   142    98    97    1
   143   103   105   ar
   144    89    88    2
   145    67    64    1
   146    63    64    1
   147    64    65    1
   148    65    66    2
