@<TRIPOS>MOLECULE
tmp/4dz6C00.pdb
 189 179 0 0 0
SMALL
GASTEIGER

@<TRIPOS>ATOM
      1  N         42.0690   37.7450   13.7960 N.3    12  LYS12      -0.1245
      2  CA        42.5840   36.8190   12.7890 C.3    12  LYS12       0.1561
      3  C         41.6390   36.6990   11.5800 C.2    12  LYS12       0.2260
      4  O         40.4810   37.1350   11.6540 O.2    12  LYS12      -0.2867
      5  CB        42.8210   35.4580   13.4420 C.3    12  LYS12       0.0271
      6  CG        44.0570   35.4150   14.3290 C.3    12  LYS12       0.0035
      7  CD        44.2740   34.0340   14.9180 C.3    12  LYS12       0.0206
      8  CE        45.0170   34.1380   16.2310 C.3    12  LYS12       0.1093
      9  NZ        45.3110   32.7870   16.7710 N.3    12  LYS12      -0.1314
     10  N         54.9740   35.1460   13.9930 N.3    52  TYR52      -0.1241
     11  CA        55.0790   33.8070   14.5570 C.3    52  TYR52       0.1605
     12  C         56.4830   33.2660   14.3180 C.2    52  TYR52       0.2264
     13  O         56.8090   32.8130   13.2180 O.2    52  TYR52      -0.2867
     14  CB        54.0370   32.8630   13.9360 C.3    52  TYR52       0.0534
     15  CG        52.6000   33.1280   14.3430 C.ar   52  TYR52      -0.0201
     16  CD1       52.2590   33.2650   15.6820 C.ar   52  TYR52      -0.0009
     17  CD2       51.5840   33.2250   13.3860 C.ar   52  TYR52      -0.0009
     18  CE1       50.9550   33.5070   16.0670 C.ar   52  TYR52       0.0417
     19  CE2       50.2690   33.4680   13.7590 C.ar   52  TYR52       0.0417
     20  CZ        49.9590   33.5990   15.1040 C.ar   52  TYR52       0.1957
     21  OH        48.6630   33.8470   15.5190 O.3    52  TYR52      -0.2866
     22  N         57.7040   28.6640   18.0380 N.3    57  ILE57      -0.1245
     23  CA        56.5260   27.8330   17.8100 C.3    57  ILE57       0.1561
     24  C         56.9040   26.3510   17.7200 C.2    57  ILE57       0.2260
     25  O         56.1700   25.4950   18.2170 O.2    57  ILE57      -0.2867
     26  CB        55.6980   28.3090   16.5900 C.3    57  ILE57       0.0252
     27  CG1       55.2170   29.7630   16.7810 C.3    57  ILE57       0.0019
     28  CG2       54.5380   27.3610   16.3090 C.3    57  ILE57       0.0019
     29  CD1       54.3620   30.0210   18.0080 C.3    57  ILE57       0.0001
     30  N         57.7410   25.0400   21.3380 N.3    60  ARG60      -0.1231
     31  CA        56.5150   24.9130   22.1190 C.3    60  ARG60       0.1694
     32  C         55.4380   24.0420   21.4770 C.2    60  ARG60       0.2592
     33  O         54.5150   23.6190   22.1630 O.2    60  ARG60      -0.2718
     34  CB        55.9500   26.2840   22.4800 C.3    60  ARG60       0.0321
     35  CG        56.7010   26.9880   23.6010 C.3    60  ARG60       0.0489
     36  CD        55.9260   28.1820   24.1300 C.3    60  ARG60       0.2205
     37  NE        55.4810   29.0830   23.0640 N.pl3  60  ARG60      -0.0865
     38  CZ        54.2170   29.2150   22.6610 C.cat  60  ARG60       0.5346
     39  NH1       53.2460   28.5090   23.2330 N.pl3  60  ARG60       0.1354
     40  NH2       53.9210   30.0640   21.6850 N.pl3  60  ARG60       0.1354
     41  N         55.5520   23.7640   20.1780 N.am   61  HIS61      -0.1976
     42  CA        54.5590   22.9240   19.4860 C.3    61  HIS61       0.1656
     43  C         55.1830   21.9110   18.5510 C.2    61  HIS61       0.2291
     44  O         55.5050   20.8020   18.9670 O.2    61  HIS61      -0.2864
     45  CB        53.4920   23.7830   18.7920 C.3    61  HIS61       0.0771
     46  CG        52.5770   24.5270   19.7570 C.ar   61  HIS61       0.0820
     47  ND1       51.5560   23.9220   20.4080 N.ar   61  HIS61      -0.2267
     48  CD2       52.5580   25.8660   20.1620 C.ar   61  HIS61       0.1154
     49  CE1       50.9220   24.8230   21.1940 C.ar   61  HIS61       0.1986
     50  NE2       51.5340   26.0120   21.0410 N.ar   61  HIS61      -0.2212
     51  N         52.7560   22.6570   13.2060 N.3    65  VAL65      -0.1245
     52  CA        51.9190   23.7330   13.7740 C.3    65  VAL65       0.1561
     53  C         52.3010   25.0960   13.2060 C.2    65  VAL65       0.2260
     54  O         51.4300   25.8830   12.8090 O.2    65  VAL65      -0.2867
     55  CB        51.9170   23.7430   15.3210 C.3    65  VAL65       0.0252
     56  CG1       51.1820   24.9690   15.8750 C.3    65  VAL65       0.0019
     57  CG2       51.2630   22.4680   15.8310 C.3    65  VAL65       0.0019
     58  N         51.2420   25.6270    9.5440 N.3    68  SER68      -0.1202
     59  CA        49.8040   25.8150    9.4290 C.3    68  SER68       0.2020
     60  C         49.3900   27.1760    9.9850 C.2    68  SER68       0.2618
     61  O         48.3670   27.7150    9.5880 O.2    68  SER68      -0.2717
     62  CB        49.0490   24.6870   10.1250 C.3    68  SER68       0.2103
     63  OG        49.0010   24.9480   11.5150 O.3    68  SER68      -0.2182
     64  N         50.1750   27.7260   10.9070 N.am   69  LEU69      -0.1979
     65  CA        49.9350   29.0970   11.3530 C.3    69  LEU69       0.1596
     66  C         50.2430   30.0460   10.2150 C.2    69  LEU69       0.2287
     67  O         49.4460   30.9310    9.8910 O.2    69  LEU69      -0.2864
     68  CB        50.8020   29.4640   12.5500 C.3    69  LEU69       0.0297
     69  CG        50.1850   29.2030   13.9090 C.3    69  LEU69       0.0022
     70  CD1       51.2450   29.4590   14.9670 C.3    69  LEU69       0.0001
     71  CD2       48.9610   30.0990   14.1010 C.3    69  LEU69       0.0001
     72  N         47.5670   29.8220    7.5780 N.3    72  PHE72      -0.1241
     73  CA        46.3480   30.4790    8.0760 C.3    72  PHE72       0.1605
     74  C         46.3910   32.0140    7.9270 C.2    72  PHE72       0.2264
     75  O         45.4630   32.6100    7.3940 O.2    72  PHE72      -0.2867
     76  CB        46.1190   30.0600    9.5380 C.3    72  PHE72       0.0534
     77  CG        44.9460   30.7270   10.2240 C.ar   72  PHE72      -0.0203
     78  CD1       43.7590   31.0040    9.5470 C.ar   72  PHE72      -0.0042
     79  CD2       45.0160   31.0210   11.5910 C.ar   72  PHE72      -0.0042
     80  CE1       42.6890   31.6000   10.2000 C.ar   72  PHE72      -0.0003
     81  CE2       43.9310   31.6040   12.2580 C.ar   72  PHE72      -0.0003
     82  CZ        42.7700   31.8980   11.5540 C.ar   72  PHE72      -0.0000
     83  N         44.3310   38.9670   28.0090 N.3    93  ARG93      -0.1245
     84  CA        44.3850   37.4970   27.9550 C.3    93  ARG93       0.1563
     85  C         43.1770   36.8190   28.6200 C.2    93  ARG93       0.2260
     86  O         42.5730   35.9140   28.0480 O.2    93  ARG93      -0.2867
     87  CB        45.7080   36.9810   28.5250 C.3    93  ARG93       0.0307
     88  CG        46.8870   37.3310   27.6360 C.3    93  ARG93       0.0489
     89  CD        46.8840   36.5040   26.3530 C.3    93  ARG93       0.2205
     90  NE        47.6250   35.2580   26.5570 N.pl3  93  ARG93      -0.0865
     91  CZ        47.9340   34.3800   25.6090 C.cat  93  ARG93       0.5346
     92  NH1       48.6280   33.2950   25.9350 N.pl3  93  ARG93       0.1354
     93  NH2       47.5730   34.5800   24.3520 N.pl3  93  ARG93       0.1354
     94  N         43.4110   29.3000   24.5000 N.3    99  THR99      -0.1218
     95  CA        43.8520   29.0520   23.1240 C.3    99  THR99       0.1862
     96  C         42.8880   28.1510   22.3460 C.2    99  THR99       0.2287
     97  O         42.4960   28.4780   21.2280 O.2    99  THR99      -0.2866
     98  CB        45.2500   28.4000   23.1420 C.3    99  THR99       0.1770
     99  OG1       46.1120   29.2100   23.9380 O.3    99  THR99      -0.2211
    100  CG2       45.8410   28.2420   21.7390 C.3    99  THR99       0.0375
    101  N         36.9830   33.9790   22.7740 N.3   110  ARG110     -0.1245
    102  CA        37.1060   32.6420   22.2020 C.3   110  ARG110      0.1563
    103  C         35.9720   31.7090   22.6160 C.2   110  ARG110      0.2260
    104  O         35.4900   30.9300   21.7960 O.2   110  ARG110     -0.2867
    105  CB        38.4700   32.0360   22.4930 C.3   110  ARG110      0.0307
    106  CG        39.5760   32.6780   21.6630 C.3   110  ARG110      0.0489
    107  CD        40.9350   32.4450   22.2880 C.3   110  ARG110      0.2205
    108  NE        42.0280   32.9590   21.4690 N.pl3 110  ARG110     -0.0865
    109  CZ        43.2970   32.9920   21.8670 C.cat 110  ARG110      0.5346
    110  NH1       43.6200   32.5520   23.0660 N.pl3 110  ARG110      0.1354
    111  NH2       44.2460   33.4550   21.0650 N.pl3 110  ARG110      0.1354
    112  N         41.6930   21.1300   19.3530 N.3   118  PHE118     -0.1241
    113  CA        43.0190   20.6130   18.9710 C.3   118  PHE118      0.1605
    114  C         42.9630   19.2640   18.2560 C.2   118  PHE118      0.2264
    115  O         43.6420   19.0770   17.2600 O.2   118  PHE118     -0.2867
    116  CB        43.9740   20.5200   20.1670 C.3   118  PHE118      0.0534
    117  CG        44.5050   21.8490   20.6330 C.ar  118  PHE118     -0.0203
    118  CD1       44.8160   22.8650   19.7200 C.ar  118  PHE118     -0.0042
    119  CD2       44.7420   22.0730   21.9880 C.ar  118  PHE118     -0.0042
    120  CE1       45.3130   24.0910   20.1620 C.ar  118  PHE118     -0.0003
    121  CE2       45.2500   23.2860   22.4310 C.ar  118  PHE118     -0.0003
    122  CZ        45.5270   24.2970   21.5220 C.ar  118  PHE118     -0.0000
    123  N         41.7910   19.8590   14.7360 N.3   121  SER121     -0.1202
    124  CA        42.7480   20.5900   13.9230 C.3   121  SER121      0.2020
    125  C         43.9650   19.6920   13.5760 C.2   121  SER121      0.2618
    126  O         44.4550   19.7320   12.4390 O.2   121  SER121     -0.2717
    127  CB        43.0810   21.9640   14.5220 C.3   121  SER121      0.2103
    128  OG        44.2880   21.9950   15.2280 O.3   121  SER121     -0.2182
    129  N         44.3900   18.8350   14.5100 N.am  122  ASN122     -0.1974
    130  CA        45.4030   17.8120   14.1870 C.3   122  ASN122      0.1688
    131  C         44.9120   16.8660   13.0950 C.2   122  ASN122      0.2292
    132  O         45.6550   16.5030   12.1850 O.2   122  ASN122     -0.2864
    133  CB        45.8110   16.9710   15.4110 C.3   122  ASN122      0.1181
    134  CG        46.8510   15.8860   15.0620 C.2   122  ASN122      0.2629
    135  OD1       47.9770   16.2090   14.7030 O.2   122  ASN122     -0.2716
    136  ND2       46.4730   14.5990   15.1700 N.am  122  ASN122     -0.0877
    137  N         45.1560   21.7800    9.8890 N.3   126  PHE126     -0.1227
    138  CA        45.0070   23.2350    9.8290 C.3   126  PHE126      0.1736
    139  C         45.2910   23.8000   11.2200 C.2   126  PHE126      0.2596
    140  O         45.1750   23.0970   12.2190 O.2   126  PHE126     -0.2718
    141  CB        43.5610   23.6240    9.4470 C.3   126  PHE126      0.0547
    142  CG        43.2040   23.3580    8.0060 C.ar  126  PHE126     -0.0202
    143  CD1       43.2840   24.3760    7.0560 C.ar  126  PHE126     -0.0042
    144  CD2       42.7550   22.1060    7.5980 C.ar  126  PHE126     -0.0042
    145  CE1       42.9530   24.1470    5.7290 C.ar  126  PHE126     -0.0003
    146  CE2       42.4130   21.8710    6.2620 C.ar  126  PHE126     -0.0003
    147  CZ        42.5180   22.8930    5.3290 C.ar  126  PHE126     -0.0000
    148  N         45.6310   25.0820   11.2780 N.am  127  SER127     -0.1938
    149  CA        45.7590   25.7880   12.5530 C.3   127  SER127      0.2055
    150  C         44.3990   25.8580   13.2470 C.2   127  SER127      0.2642
    151  O         43.3700   25.8270   12.5880 O.2   127  SER127     -0.2714
    152  CB        46.2760   27.2020   12.2930 C.3   127  SER127      0.2130
    153  OG        46.2970   27.9780   13.4710 O.3   127  SER127     -0.2179
    154  N         44.3900   25.9490   14.5770 N.am  128  ILE128     -0.1977
    155  CA        43.1750   26.3100   15.2750 C.3   128  ILE128      0.1596
    156  C         42.7620   27.7270   14.8500 C.2   128  ILE128      0.2287
    157  O         43.6120   28.6140   14.6750 O.2   128  ILE128     -0.2864
    158  CB        43.3030   26.1440   16.8100 C.3   128  ILE128      0.0276
    159  CG1       42.0130   25.5950   17.4050 C.3   128  ILE128      0.0022
    160  CG2       43.5630   27.4580   17.5140 C.3   128  ILE128      0.0022
    161  CD1       41.9550   24.0880   17.4330 C.3   128  ILE128      0.0001
    162  N         40.8640   30.6460   16.2370 N.3   130  ASN130     -0.1240
    163  CA        40.3690   31.1170   17.5060 C.3   130  ASN130      0.1653
    164  C         40.1690   32.6280   17.5520 C.2   130  ASN130      0.2266
    165  O         40.2890   33.2390   18.6110 O.2   130  ASN130     -0.2867
    166  CB        41.2650   30.5930   18.6530 C.3   130  ASN130      0.1155
    167  CG        42.7300   31.0210   18.5210 C.2   130  ASN130      0.2627
    168  OD1       43.0930   31.8530   17.6790 O.2   130  ASN130     -0.2716
    169  ND2       43.5770   30.4530   19.3690 N.am  130  ASN130     -0.0877
    170  N         44.3330   37.0130   18.3680 N.3   133  HIS133     -0.1226
    171  CA        45.6410   36.8880   19.0210 C.3   133  HIS133      0.1752
    172  C         45.8230   38.0110   19.9900 C.2   133  HIS133      0.2595
    173  O         45.4290   39.1470   19.7090 O.2   133  HIS133     -0.2718
    174  CB        46.7950   36.9310   18.0130 C.3   133  HIS133      0.0759
    175  CG        48.1390   37.2720   18.6430 C.ar  133  HIS133      0.0818
    176  ND1       48.9780   36.3280   19.1310 N.ar  133  HIS133     -0.2268
    177  CD2       48.7590   38.5070   18.8760 C.ar  133  HIS133      0.1154
    178  CE1       50.0820   36.9270   19.6430 C.ar  133  HIS133      0.1986
    179  NE2       49.9440   38.2580   19.4890 N.ar  133  HIS133     -0.2212
    180  N         46.4500   37.7230   21.1270 N.am  134  ALA134     -0.1980
    181  CA        46.9170   38.7840   22.0200 C.3   134  ALA134      0.1597
    182  C         48.2500   38.4240   22.6600 C.2   134  ALA134      0.2287
    183  O         48.4610   37.2820   23.0910 O.2   134  ALA134     -0.2864
    184  CB        45.8780   39.1110   23.0870 C.3   134  ALA134      0.0319
    185  N         51.1230   37.4470   24.8770 N.3   136  ALA136     -0.1245
    186  CA        51.0160   36.5720   26.0370 C.3   136  ALA136      0.1562
    187  C         51.6740   37.1390   27.3050 C.2   136  ALA136      0.2260
    188  O         51.3230   36.7400   28.4160 O.2   136  ALA136     -0.2867
    189  CB        51.5880   35.2010   25.7120 C.3   136  ALA136      0.0290
@<TRIPOS>BOND
     1   147   145   ar
     2   147   146   ar
     3   145   143   ar
     4   146   144   ar
     5   143   142   ar
     6    75    74    2
     7    72    73    1
     8   144   142   ar
     9    74    73    1
    10   142   141    1
    11    73    76    1
    12    59    58    1
    13    59    60    1
    14    59    62    1
    15   141   138    1
    16    76    77    1
    17    78    80   ar
    18    78    77   ar
    19    61    60    2
    20   138   137    1
    21   138   139    1
    22    67    66    2
    23    60    64   am
    24    62    63    1
    25    80    82   ar
    26    66    65    1
    27    77    79   ar
    28    64    65    1
    29   139   148   am
    30   139   140    2
    31   148   149    1
    32    65    68    1
    33    82    81   ar
    34     3     4    2
    35     3     2    1
    36    79    81   ar
    37   132   131    2
    38   152   149    1
    39   152   153    1
    40   126   125    2
    41    68    69    1
    42   149   150    1
    43   151   150    2
    44     2     5    1
    45     2     1    1
    46    54    53    2
    47   131   130    1
    48    51    52    1
    49    53    52    1
    50    13    12    2
    51   150   154   am
    52    17    19   ar
    53    17    15   ar
    54     5     6    1
    55   125   124    1
    56   125   129   am
    57    19    20   ar
    58    52    55    1
    59    69    71    1
    60    69    70    1
    61   124   127    1
    62   124   123    1
    63    14    15    1
    64    14    11    1
    65    10    11    1
    66   130   129    1
    67   130   133    1
    68    12    11    1
    69     6     7    1
    70    15    16   ar
    71   127   128    1
    72   154   155    1
    73   157   156    2
    74   135   134    2
    75   156   155    1
    76     7     8    1
    77   134   136   am
    78   134   133    1
    79    20    21    1
    80    20    18   ar
    81   155   158    1
    82    55    57    1
    83    55    56    1
    84    16    18   ar
    85     8     9    1
    86   162   163    1
    87    28    26    1
    88    26    27    1
    89    26    23    1
    90    27    29    1
    91   158   159    1
    92   158   160    1
    93   115   114    2
    94   159   161    1
    95   163   164    1
    96   163   166    1
    97   164   165    2
    98   168   167    2
    99    24    23    1
   100    24    25    2
   101    23    22    1
   102   174   175    1
   103   174   171    1
   104   114   113    1
   105   170   171    1
   106   167   166    1
   107   167   169   am
   108    43    44    2
   109    43    42    1
   110   175   177   ar
   111   175   176   ar
   112    45    42    1
   113    45    46    1
   114   177   179   ar
   115   113   112    1
   116   113   116    1
   117   171   172    1
   118   176   178   ar
   119    42    41    1
   120   179   178   ar
   121   173   172    2
   122   118   120   ar
   123   118   117   ar
   124    46    48   ar
   125    46    47   ar
   126   172   180   am
   127    48    50   ar
   128   120   122   ar
   129   116   117    1
   130    41    32   am
   131    47    49   ar
   132   117   119   ar
   133    50    49   ar
   134   111   109    1
   135   180   181    1
   136    97    96    2
   137    30    31    1
   138   108   109    2
   139   108   107    1
   140    32    31    1
   141    32    33    2
   142   122   121   ar
   143   106   107    1
   144   106   105    1
   145    40    38    1
   146   100    98    1
   147   104   103    2
   148   109   110    1
   149   119   121   ar
   150   181   182    1
   151   181   184    1
   152    31    34    1
   153   102   105    1
   154   102   103    1
   155   102   101    1
   156    96    95    1
   157    34    35    1
   158   182   183    2
   159    38    37    2
   160    38    39    1
   161    37    36    1
   162    95    98    1
   163    95    94    1
   164    98    99    1
   165    35    36    1
   166    93    91    1
   167   185   186    1
   168    91    92    1
   169    91    90    2
   170   189   186    1
   171   186   187    1
   172    89    90    1
   173    89    88    1
   174   187   188    2
   175    88    87    1
   176    84    83    1
   177    84    87    1
   178    84    85    1
   179    86    85    2
