@<TRIPOS>MOLECULE
tmp/4dz7A00.pdb
 147 143 0 0 0
SMALL
GASTEIGER

@<TRIPOS>ATOM
      1  N         -3.4080    0.6060    3.7070 N.3    59  ASN59      -0.1240
      2  CA        -2.2710    1.4360    4.1420 C.3    59  ASN59       0.1653
      3  C         -1.0080    0.6460    4.4150 C.2    59  ASN59       0.2266
      4  O         -0.0290    1.1890    4.9490 O.2    59  ASN59      -0.2867
      5  CB        -2.6340    2.2510    5.3770 C.3    59  ASN59       0.1155
      6  CG        -2.9900    1.3950    6.5500 C.2    59  ASN59       0.2627
      7  OD1       -2.6680    0.2130    6.5870 O.2    59  ASN59      -0.2716
      8  ND2       -3.6620    1.9880    7.5400 N.am   59  ASN59      -0.0877
      9  N         -0.7210   -1.9300    6.4050 N.3    61  HIS61      -0.1241
     10  CA        -0.8150   -2.6890    7.6760 C.3    61  HIS61       0.1621
     11  C         -2.2140   -3.2380    7.9330 C.2    61  HIS61       0.2264
     12  O         -2.3730   -4.2140    8.6490 O.2    61  HIS61      -0.2867
     13  CB        -0.1720   -2.0320    8.9070 C.3    61  HIS61       0.0745
     14  CG        -0.5770   -0.6170    9.1440 C.ar   61  HIS61       0.0817
     15  ND1        0.1030    0.4500    8.5990 N.ar   61  HIS61      -0.2268
     16  CD2       -1.5540   -0.0870    9.9190 C.ar   61  HIS61       0.1154
     17  CE1       -0.4650    1.5770    8.9930 C.ar   61  HIS61       0.1986
     18  NE2       -1.4660    1.2780    9.8030 N.ar   61  HIS61      -0.2212
     19  N        -12.6370    6.3140   11.2750 N.3    89  GLN89      -0.1245
     20  CA       -12.3960    5.1570   10.4220 C.3    89  GLN89       0.1566
     21  C        -12.6360    3.9010   11.2200 C.2    89  GLN89       0.2260
     22  O        -12.6530    3.9220   12.4500 O.2    89  GLN89      -0.2867
     23  CB       -10.9670    5.1540    9.8530 C.3    89  GLN89       0.0367
     24  CG        -9.8670    5.2980   10.9060 C.3    89  GLN89       0.0905
     25  CD        -9.1470    4.0220   11.2900 C.2    89  GLN89       0.2608
     26  OE1       -9.6910    2.9180   11.2570 O.2    89  GLN89      -0.2717
     27  NE2       -7.9030    4.1850   11.6990 N.am   89  GLN89      -0.0878
     28  N        -11.2250   -0.3700   10.9640 N.3    91  HIS91      -0.1241
     29  CA       -10.3460   -1.3330   10.3520 C.3    91  HIS91       0.1621
     30  C        -10.3980   -2.5980   11.1730 C.2    91  HIS91       0.2264
     31  O        -11.0280   -2.6440   12.2160 O.2    91  HIS91      -0.2867
     32  CB        -8.9150   -0.8110   10.3000 C.3    91  HIS91       0.0745
     33  CG        -8.3410   -0.5620   11.6560 C.ar   91  HIS91       0.0817
     34  ND1       -8.4920    0.6410   12.3040 N.ar   91  HIS91      -0.2268
     35  CD2       -7.6920   -1.3800   12.5270 C.ar   91  HIS91       0.1154
     36  CE1       -7.9480    0.5610   13.5040 C.ar   91  HIS91       0.1986
     37  NE2       -7.4540   -0.6580   13.6630 N.ar   91  HIS91      -0.2212
     38  N         -8.0030   -6.3100   12.4510 N.3    93  HIS93      -0.1241
     39  CA        -6.8060   -7.1210   12.5880 C.3    93  HIS93       0.1621
     40  C         -7.2430   -8.5700   12.4680 C.2    93  HIS93       0.2264
     41  O         -8.3070   -8.9380   12.9770 O.2    93  HIS93      -0.2867
     42  CB        -6.1550   -6.8820   13.9410 C.3    93  HIS93       0.0745
     43  CG        -5.8760   -5.4400   14.2270 C.ar   93  HIS93       0.0817
     44  ND1       -4.6270   -4.8790   14.0670 N.ar   93  HIS93      -0.2268
     45  CD2       -6.6910   -4.4390   14.6420 C.ar   93  HIS93       0.1154
     46  CE1       -4.6860   -3.5900   14.3630 C.ar   93  HIS93       0.1986
     47  NE2       -5.9210   -3.2980   14.7300 N.ar   93  HIS93      -0.2212
     48  N        -11.9780   -2.5730   14.8880 N.3   116  HIS116     -0.1241
     49  CA       -11.7580   -1.3340   15.6090 C.3   116  HIS116      0.1621
     50  C        -12.4360   -0.1740   14.9500 C.2   116  HIS116      0.2264
     51  O        -12.0840    0.1950   13.8480 O.2   116  HIS116     -0.2867
     52  CB       -10.2660   -1.0590   15.6940 C.3   116  HIS116      0.0745
     53  CG        -9.5610   -2.0210   16.5810 C.ar  116  HIS116      0.0817
     54  ND1       -8.1920   -2.1900   16.5740 N.ar  116  HIS116     -0.2268
     55  CD2      -10.0480   -2.8690   17.5150 C.ar  116  HIS116      0.1154
     56  CE1       -7.8770   -3.1160   17.4590 C.ar  116  HIS116      0.1986
     57  NE2       -8.9790   -3.5330   18.0540 N.ar  116  HIS116     -0.2212
     58  N        -12.8160    3.5960   15.3030 N.3   118  VAL118     -0.1245
     59  CA       -11.9370    4.6040   15.9180 C.3   118  VAL118      0.1561
     60  C        -12.6450    5.9480   15.9420 C.2   118  VAL118      0.2260
     61  O        -13.0890    6.4310   14.8950 O.2   118  VAL118     -0.2867
     62  CB       -10.6320    4.7440   15.1260 C.3   118  VAL118      0.0252
     63  CG1       -9.7290    5.7630   15.7640 C.3   118  VAL118      0.0019
     64  CG2       -9.9100    3.3680   14.9830 C.3   118  VAL118      0.0019
     65  N         -8.1010   14.9500   14.7570 N.3   127  PHE127     -0.1241
     66  CA        -7.5540   13.6590   15.1630 C.3   127  PHE127      0.1605
     67  C         -6.0990   13.7820   15.5820 C.2   127  PHE127      0.2264
     68  O         -5.6830   13.1880   16.5650 O.2   127  PHE127     -0.2867
     69  CB        -7.7010   12.6520   14.0150 C.3   127  PHE127      0.0534
     70  CG        -7.1340   11.3120   14.3120 C.ar  127  PHE127     -0.0203
     71  CD1       -7.8880   10.3360   14.9620 C.ar  127  PHE127     -0.0042
     72  CD2       -5.8400   11.0110   13.9440 C.ar  127  PHE127     -0.0042
     73  CE1       -7.3450    9.1120   15.2490 C.ar  127  PHE127     -0.0003
     74  CE2       -5.3000    9.7870   14.2180 C.ar  127  PHE127     -0.0003
     75  CZ        -6.0600    8.8290   14.8650 C.ar  127  PHE127     -0.0000
     76  N         -4.8120   12.5130   19.3990 N.3   131  VAL131     -0.1245
     77  CA        -3.9110   11.4050   19.7610 C.3   131  VAL131      0.1561
     78  C         -2.8060   11.8090   20.7410 C.2   131  VAL131      0.2260
     79  O         -2.1150   10.9400   21.3070 O.2   131  VAL131     -0.2867
     80  CB        -3.2700   10.7040   18.5380 C.3   131  VAL131      0.0252
     81  CG1       -4.3510   10.1140   17.6860 C.3   131  VAL131      0.0019
     82  CG2       -2.4010   11.6340   17.7250 C.3   131  VAL131      0.0019
     83  N        -11.9240    3.8250   21.1750 N.3   139  VAL139     -0.1245
     84  CA       -11.9740    2.7670   20.1640 C.3   139  VAL139      0.1561
     85  C        -12.9280    1.6870   20.6360 C.2   139  VAL139      0.2260
     86  O        -12.7760    1.1650   21.7420 O.2   139  VAL139     -0.2867
     87  CB       -10.5890    2.1840   19.8060 C.3   139  VAL139      0.0252
     88  CG1      -10.7480    1.1720   18.6950 C.3   139  VAL139      0.0019
     89  CG2       -9.6500    3.2690   19.3610 C.3   139  VAL139      0.0019
     90  N         -2.9650    3.1520   21.2800 N.3   194  LEU194     -0.1231
     91  CA        -2.9480    2.6450   19.9130 C.3   194  LEU194      0.1693
     92  C         -2.2180    1.3190   19.9300 C.2   194  LEU194      0.2593
     93  O         -1.2250    1.1390   20.6560 O.2   194  LEU194     -0.2718
     94  CB        -2.2090    3.6220   18.9950 C.3   194  LEU194      0.0284
     95  CG        -2.7300    5.0520   18.9720 C.3   194  LEU194      0.0019
     96  CD1       -1.8860    5.8880   18.0430 C.3   194  LEU194      0.0001
     97  CD2       -4.1810    5.1270   18.5900 C.3   194  LEU194      0.0001
     98  N         -2.6650    0.3750   19.1160 N.am  195  THR195     -0.1939
     99  CA        -2.0130   -0.9290   19.0640 C.3   195  THR195      0.2028
    100  C         -1.0040   -1.0560   17.9350 C.2   195  THR195      0.2643
    101  O         -0.4080   -2.1150   17.7650 O.2   195  THR195     -0.2714
    102  CB        -3.0440   -2.0630   18.9290 C.3   195  THR195      0.1808
    103  OG1       -3.6640   -1.9660   17.6500 O.3   195  THR195     -0.2208
    104  CG2       -4.0570   -2.0260   20.0920 C.3   195  THR195      0.0379
    105  N         -0.8120    0.0100   17.1620 N.am  196  THR196     -0.1937
    106  CA         0.2820    0.0960   16.1960 C.3   196  THR196      0.2013
    107  C          1.0680    1.3550   16.4910 C.2   196  THR196      0.2484
    108  O          0.5560    2.3130   17.1200 O.2   196  THR196     -0.2729
    109  CB        -0.2080    0.1820   14.7330 C.3   196  THR196      0.1807
    110  OG1       -0.8540    1.4300   14.5240 O.3   196  THR196     -0.2208
    111  CG2       -1.1790   -0.8970   14.4050 C.3   196  THR196      0.0379
    112  N          2.3280    1.3790   16.0620 N.am  197  PRO197     -0.2715
    113  CA         3.0950    2.6180   16.1580 C.3   197  PRO197      0.1521
    114  C          2.2420    3.7680   15.6130 C.2   197  PRO197      0.2440
    115  O          1.5700    3.5990   14.5820 O.2   197  PRO197     -0.2731
    116  CB         4.3180    2.3030   15.2920 C.3   197  PRO197      0.0310
    117  CG         4.5420    0.8570   15.5070 C.3   197  PRO197      0.0237
    118  CD         3.1300    0.2880   15.4860 C.3   197  PRO197      0.0939
    119  N          2.2700    4.9320   16.2680 N.am  198  PRO198     -0.2727
    120  CA         3.1760    5.3450   17.3540 C.3   198  PRO198      0.1402
    121  C          2.8300    4.9070   18.7870 C.2   198  PRO198      0.2269
    122  O          3.4910    5.3430   19.7190 O.2   198  PRO198     -0.2865
    123  CB         3.1500    6.8680   17.2470 C.3   198  PRO198      0.0296
    124  CG         1.7950    7.1530   16.7110 C.3   198  PRO198      0.0237
    125  CD         1.4720    6.0630   15.7560 C.3   198  PRO198      0.0939
    126  N          0.6410    5.5570   20.9330 N.3   200  LEU200     -0.1245
    127  CA         0.3210    6.6200   21.8610 C.3   200  LEU200      0.1561
    128  C         -0.7520    6.2100   22.8550 C.2   200  LEU200      0.2260
    129  O         -1.7460    5.5280   22.5150 O.2   200  LEU200     -0.2867
    130  CB        -0.1080    7.8740   21.0960 C.3   200  LEU200      0.0270
    131  CG         0.9780    8.4590   20.1820 C.3   200  LEU200      0.0019
    132  CD1        0.3810    9.5280   19.2610 C.3   200  LEU200      0.0001
    133  CD2        2.1010    9.0430   21.0130 C.3   200  LEU200      0.0001
    134  N        -10.4340    2.2830   25.7010 N.3   205  TRP205     -0.1241
    135  CA       -10.8970    1.0800   25.0230 C.3   205  TRP205      0.1605
    136  C        -12.2600    0.6640   25.5330 C.2   205  TRP205      0.2264
    137  O        -12.4950    0.6110   26.7430 O.2   205  TRP205     -0.2867
    138  CB        -9.8900   -0.0800   25.1800 C.3   205  TRP205      0.0550
    139  CG        -8.7980    0.0520   24.1950 C.ar  205  TRP205      0.0003
    140  CD1       -7.5900    0.6530   24.3930 C.ar  205  TRP205      0.0946
    141  CD2       -8.8390   -0.3380   22.8250 C.ar  205  TRP205      0.0152
    142  NE1       -6.8700    0.6420   23.2260 N.ar  205  TRP205     -0.2442
    143  CE2       -7.6070    0.0320   22.2470 C.ar  205  TRP205      0.0810
    144  CE3       -9.7950   -0.9810   22.0370 C.ar  205  TRP205      0.0012
    145  CZ2       -7.3210   -0.2040   20.9090 C.ar  205  TRP205      0.0191
    146  CZ3       -9.5120   -1.2290   20.7150 C.ar  205  TRP205      0.0001
    147  CH2       -8.2810   -0.8430   20.1630 C.ar  205  TRP205      0.0015
@<TRIPOS>BOND
     1     1     2    1
     2     2     3    1
     3     2     5    1
     4     3     4    2
     5     5     6    1
     6     9    10    1
     7     6     7    2
     8     6     8   am
     9    10    11    1
    10    10    13    1
    11    11    12    2
    12    15    17   ar
    13    15    14   ar
    14    13    14    1
    15    17    18   ar
    16    14    16   ar
    17    18    16   ar
    18    23    20    1
    19    23    24    1
    20    32    29    1
    21    32    33    1
    22    29    28    1
    23    29    30    1
    24    20    21    1
    25    20    19    1
    26    24    25    1
    27    30    31    2
    28    21    22    2
    29    26    25    2
    30    25    27   am
    31    33    34   ar
    32    33    35   ar
    33    34    36   ar
    34    38    39    1
    35    40    39    1
    36    40    41    2
    37    35    37   ar
    38    39    42    1
    39    36    37   ar
    40    51    50    2
    41    42    43    1
    42    72    74   ar
    43    72    70   ar
    44    69    70    1
    45    69    66    1
    46    44    43   ar
    47    44    46   ar
    48    74    75   ar
    49    43    45   ar
    50    70    71   ar
    51    46    47   ar
    52   111   109    1
    53   110   109    1
    54   115   114    2
    55    45    47   ar
    56   109   106    1
    57    65    66    1
    58    75    73   ar
    59    48    49    1
    60    61    60    2
    61    50    49    1
    62    71    73   ar
    63    64    62    1
    64    62    63    1
    65    62    59    1
    66    66    67    1
    67   116   117    1
    68   116   113    1
    69    58    59    1
    70   118   117    1
    71   118   112    1
    72    67    68    2
    73    49    52    1
    74   114   113    1
    75   114   119   am
    76    52    53    1
    77   125   119    1
    78   125   124    1
    79    59    60    1
    80   112   113    1
    81   112   107   am
    82   106   107    1
    83   106   105    1
    84   119   120    1
    85   107   108    2
    86    54    53   ar
    87    54    56   ar
    88    53    55   ar
    89   124   123    1
    90   105   100   am
    91   123   120    1
    92   120   121    1
    93    56    57   ar
    94    55    57   ar
    95   103   102    1
    96    81    80    1
    97    82    80    1
    98   101   100    2
    99   100    99    1
   100    96    95    1
   101    80    77    1
   102    97    95    1
   103    88    87    1
   104   121   122    2
   105   102    99    1
   106   102   104    1
   107    95    94    1
   108    94    91    1
   109    99    98    1
   110    98    92   am
   111   132   131    1
   112    89    87    1
   113    76    77    1
   114    77    78    1
   115    87    84    1
   116    91    92    1
   117    91    90    1
   118    92    93    2
   119   147   146   ar
   120   147   145   ar
   121    84    85    1
   122    84    83    1
   123   131   133    1
   124   131   130    1
   125    85    86    2
   126   146   144   ar
   127    78    79    2
   128   145   143   ar
   129   126   127    1
   130   130   127    1
   131   127   128    1
   132   144   141   ar
   133   143   141   ar
   134   143   142   ar
   135   129   128    2
   136   141   139   ar
   137   142   140   ar
   138   139   140   ar
   139   139   138    1
   140   135   138    1
   141   135   136    1
   142   135   134    1
   143   136   137    2
