@<TRIPOS>MOLECULE
tmp/4dz9A00.pdb
 133 130 0 0 0
SMALL
GASTEIGER

@<TRIPOS>ATOM
      1  N        -12.6250    6.3280   11.2910 N.3    89  GLN89      -0.1245
      2  CA       -12.3590    5.1730   10.4500 C.3    89  GLN89       0.1566
      3  C        -12.6160    3.9130   11.2250 C.2    89  GLN89       0.2260
      4  O        -12.6450    3.9260   12.4620 O.2    89  GLN89      -0.2867
      5  CB       -10.9230    5.1610    9.9080 C.3    89  GLN89       0.0367
      6  CG        -9.8260    5.2940   10.9680 C.3    89  GLN89       0.0905
      7  CD        -9.0960    4.0120   11.2830 C.2    89  GLN89       0.2608
      8  OE1       -9.6640    2.9180   11.2770 O.2    89  GLN89      -0.2717
      9  NE2       -7.8130    4.1420   11.6130 N.am   89  GLN89      -0.0878
     10  N        -11.2290   -0.3720   10.9540 N.3    91  HIS91      -0.1241
     11  CA       -10.3350   -1.3330   10.3480 C.3    91  HIS91       0.1621
     12  C        -10.3770   -2.6040   11.1690 C.2    91  HIS91       0.2264
     13  O        -10.9980   -2.6480   12.2250 O.2    91  HIS91      -0.2867
     14  CB        -8.8960   -0.8090   10.3090 C.3    91  HIS91       0.0745
     15  CG        -8.3260   -0.5630   11.6640 C.ar   91  HIS91       0.0817
     16  ND1       -8.4920    0.6310   12.3240 N.ar   91  HIS91      -0.2268
     17  CD2       -7.6850   -1.3840   12.5260 C.ar   91  HIS91       0.1154
     18  CE1       -7.9360    0.5520   13.5170 C.ar   91  HIS91       0.1986
     19  NE2       -7.4520   -0.6690   13.6710 N.ar   91  HIS91      -0.2212
     20  N         -7.9980   -6.3040   12.4380 N.3    93  HIS93      -0.1241
     21  CA        -6.8120   -7.1230   12.5740 C.3    93  HIS93       0.1621
     22  C         -7.2470   -8.5710   12.4380 C.2    93  HIS93       0.2264
     23  O         -8.3010   -8.9470   12.9600 O.2    93  HIS93      -0.2867
     24  CB        -6.1530   -6.8990   13.9230 C.3    93  HIS93       0.0745
     25  CG        -5.8670   -5.4560   14.2160 C.ar   93  HIS93       0.0817
     26  ND1       -4.6200   -4.8850   14.0480 N.ar   93  HIS93      -0.2268
     27  CD2       -6.6860   -4.4560   14.6190 C.ar   93  HIS93       0.1154
     28  CE1       -4.6800   -3.6050   14.3660 C.ar   93  HIS93       0.1986
     29  NE2       -5.9190   -3.3140   14.7210 N.ar   93  HIS93      -0.2212
     30  N        -11.9760   -2.5720   14.8790 N.3   116  HIS116     -0.1241
     31  CA       -11.7480   -1.3460   15.6260 C.3   116  HIS116      0.1621
     32  C        -12.4320   -0.1890   14.9520 C.2   116  HIS116      0.2264
     33  O        -12.0810    0.1660   13.8400 O.2   116  HIS116     -0.2867
     34  CB       -10.2540   -1.0810   15.6950 C.3   116  HIS116      0.0745
     35  CG        -9.5440   -2.0450   16.5820 C.ar  116  HIS116      0.0817
     36  ND1       -8.1760   -2.2220   16.5650 N.ar  116  HIS116     -0.2268
     37  CD2      -10.0260   -2.8930   17.5180 C.ar  116  HIS116      0.1154
     38  CE1       -7.8520   -3.1290   17.4640 C.ar  116  HIS116      0.1986
     39  NE2       -8.9540   -3.5600   18.0520 N.ar  116  HIS116     -0.2212
     40  N        -12.7950    3.6000   15.2860 N.3   118  VAL118     -0.1245
     41  CA       -11.9220    4.6010   15.9040 C.3   118  VAL118      0.1561
     42  C        -12.6190    5.9410   15.9430 C.2   118  VAL118      0.2260
     43  O        -13.0990    6.4110   14.9070 O.2   118  VAL118     -0.2867
     44  CB       -10.6200    4.7360   15.1130 C.3   118  VAL118      0.0252
     45  CG1       -9.6940    5.7400   15.7650 C.3   118  VAL118      0.0019
     46  CG2       -9.9330    3.3690   14.9660 C.3   118  VAL118      0.0019
     47  N         -8.0930   14.9870   14.7750 N.3   127  PHE127     -0.1227
     48  CA        -7.5730   13.6860   15.1840 C.3   127  PHE127      0.1736
     49  C         -6.1050   13.8010   15.5950 C.2   127  PHE127      0.2596
     50  O         -5.6800   13.1950   16.5750 O.2   127  PHE127     -0.2718
     51  CB        -7.7520   12.6850   14.0370 C.3   127  PHE127      0.0547
     52  CG        -7.1830   11.3410   14.3090 C.ar  127  PHE127     -0.0202
     53  CD1       -7.9130   10.3650   14.9820 C.ar  127  PHE127     -0.0042
     54  CD2       -5.9090   11.0340   13.8910 C.ar  127  PHE127     -0.0042
     55  CE1       -7.3720    9.1510   15.2320 C.ar  127  PHE127     -0.0003
     56  CE2       -5.3740    9.8020   14.1470 C.ar  127  PHE127     -0.0003
     57  CZ        -6.1190    8.8620   14.8180 C.ar  127  PHE127     -0.0000
     58  N         -5.3040   14.5570   14.8460 N.am  128  GLY128     -0.1957
     59  CA        -3.9070   14.6800   15.1940 C.3   128  GLY128      0.1869
     60  C         -3.6450   15.3090   16.5530 C.2   128  GLY128      0.2309
     61  O         -2.6550   14.9890   17.2280 O.2   128  GLY128     -0.2863
     62  N         -4.7860   12.5080   19.3790 N.3   131  VAL131     -0.1245
     63  CA        -3.8550   11.4150   19.7260 C.3   131  VAL131      0.1561
     64  C         -2.7610   11.8280   20.7180 C.2   131  VAL131      0.2260
     65  O         -2.0830   10.9670   21.2860 O.2   131  VAL131     -0.2867
     66  CB        -3.2130   10.7350   18.4980 C.3   131  VAL131      0.0252
     67  CG1       -4.3160   10.1540   17.6480 C.3   131  VAL131      0.0019
     68  CG2       -2.3460   11.6510   17.6950 C.3   131  VAL131      0.0019
     69  N        -11.8920    3.8050   21.1760 N.3   139  VAL139     -0.1245
     70  CA       -11.9440    2.7730   20.1510 C.3   139  VAL139      0.1561
     71  C        -12.8900    1.6890   20.6260 C.2   139  VAL139      0.2260
     72  O        -12.7490    1.1610   21.7290 O.2   139  VAL139     -0.2867
     73  CB       -10.5620    2.1790   19.7720 C.3   139  VAL139      0.0252
     74  CG1      -10.7540    1.1390   18.6690 C.3   139  VAL139      0.0019
     75  CG2       -9.6000    3.2640   19.3080 C.3   139  VAL139      0.0019
     76  N         -2.9590    3.1570   21.2580 N.3   194  LEU194     -0.1231
     77  CA        -2.9290    2.6510   19.8930 C.3   194  LEU194      0.1693
     78  C         -2.1960    1.3170   19.9220 C.2   194  LEU194      0.2593
     79  O         -1.1910    1.1540   20.6300 O.2   194  LEU194     -0.2718
     80  CB        -2.1650    3.6130   18.9830 C.3   194  LEU194      0.0284
     81  CG        -2.6980    5.0410   18.9310 C.3   194  LEU194      0.0019
     82  CD1       -1.8500    5.8820   18.0050 C.3   194  LEU194      0.0001
     83  CD2       -4.1630    5.1400   18.5330 C.3   194  LEU194      0.0001
     84  N         -2.6540    0.3630   19.1320 N.am  195  THR195     -0.1939
     85  CA        -1.9960   -0.9320   19.0820 C.3   195  THR195      0.2028
     86  C         -0.9740   -1.0490   17.9790 C.2   195  THR195      0.2643
     87  O         -0.3660   -2.1120   17.8390 O.2   195  THR195     -0.2714
     88  CB        -3.0010   -2.0740   18.9050 C.3   195  THR195      0.1808
     89  OG1       -3.6370   -1.9530   17.6290 O.3   195  THR195     -0.2208
     90  CG2       -4.0400   -2.0370   20.0350 C.3   195  THR195      0.0379
     91  N         -0.7950    0.0090   17.1850 N.am  196  THR196     -0.1937
     92  CA         0.3110    0.0670   16.2310 C.3   196  THR196      0.2013
     93  C          1.1040    1.3290   16.5120 C.2   196  THR196      0.2484
     94  O          0.5850    2.3020   17.1040 O.2   196  THR196     -0.2729
     95  CB        -0.1580    0.1280   14.7780 C.3   196  THR196      0.1807
     96  OG1       -0.6990    1.4080   14.5010 O.3   196  THR196     -0.2208
     97  CG2       -1.2160   -0.8960   14.4850 C.3   196  THR196      0.0379
     98  N          2.3790    1.3420   16.1010 N.am  197  PRO197     -0.2715
     99  CA         3.1350    2.5930   16.1720 C.3   197  PRO197      0.1521
    100  C          2.3020    3.7390   15.6050 C.2   197  PRO197      0.2440
    101  O          1.6370    3.5660   14.5750 O.2   197  PRO197     -0.2731
    102  CB         4.3580    2.2770   15.3080 C.3   197  PRO197      0.0310
    103  CG         4.5580    0.7960   15.5260 C.3   197  PRO197      0.0237
    104  CD         3.1630    0.2500   15.4960 C.3   197  PRO197      0.0939
    105  N          2.3240    4.9010   16.2540 N.am  198  PRO198     -0.2727
    106  CA         3.2130    5.3210   17.3480 C.3   198  PRO198      0.1402
    107  C          2.8570    4.8850   18.7810 C.2   198  PRO198      0.2269
    108  O          3.5130    5.3310   19.7140 O.2   198  PRO198     -0.2865
    109  CB         3.1660    6.8420   17.2410 C.3   198  PRO198      0.0296
    110  CG         1.8240    7.1300   16.6970 C.3   198  PRO198      0.0237
    111  CD         1.5190    6.0270   15.7400 C.3   198  PRO198      0.0939
    112  N          0.6620    5.5330   20.9070 N.3   200  LEU200     -0.1245
    113  CA         0.3490    6.6080   21.8270 C.3   200  LEU200      0.1561
    114  C         -0.7150    6.2030   22.8280 C.2   200  LEU200      0.2260
    115  O         -1.6990    5.5300   22.4930 O.2   200  LEU200     -0.2867
    116  CB        -0.0900    7.8550   21.0560 C.3   200  LEU200      0.0270
    117  CG         0.9890    8.4320   20.1250 C.3   200  LEU200      0.0019
    118  CD1        0.4040    9.5280   19.2250 C.3   200  LEU200      0.0001
    119  CD2        2.1510    8.9830   20.9270 C.3   200  LEU200      0.0001
    120  N        -10.4170    2.2820   25.6870 N.3   205  TRP205     -0.1241
    121  CA       -10.8590    1.0790   24.9980 C.3   205  TRP205      0.1605
    122  C        -12.2220    0.6600   25.5120 C.2   205  TRP205      0.2264
    123  O        -12.4560    0.6150   26.7170 O.2   205  TRP205     -0.2867
    124  CB        -9.8410   -0.0750   25.1610 C.3   205  TRP205      0.0550
    125  CG        -8.7640    0.0570   24.1740 C.ar  205  TRP205      0.0003
    126  CD1       -7.5470    0.6460   24.3630 C.ar  205  TRP205      0.0946
    127  CD2       -8.8120   -0.3430   22.8080 C.ar  205  TRP205      0.0152
    128  NE1       -6.8320    0.6330   23.1910 N.ar  205  TRP205     -0.2442
    129  CE2       -7.5800    0.0200   22.2190 C.ar  205  TRP205      0.0810
    130  CE3       -9.7740   -0.9820   22.0190 C.ar  205  TRP205      0.0012
    131  CZ2       -7.3040   -0.2240   20.8750 C.ar  205  TRP205      0.0191
    132  CZ3       -9.4980   -1.2400   20.7170 C.ar  205  TRP205      0.0001
    133  CH2       -8.2830   -0.8560   20.1400 C.ar  205  TRP205      0.0015
@<TRIPOS>BOND
     1     5     2    1
     2     5     6    1
     3    14    11    1
     4    14    15    1
     5    11    10    1
     6    11    12    1
     7     2     3    1
     8     2     1    1
     9     6     7    1
    10    12    13    2
    11     3     4    2
    12     8     7    2
    13     7     9   am
    14    15    16   ar
    15    15    17   ar
    16    16    18   ar
    17    22    21    1
    18    22    23    2
    19    20    21    1
    20    17    19   ar
    21    21    24    1
    22    18    19   ar
    23    33    32    2
    24    54    56   ar
    25    54    52   ar
    26    24    25    1
    27    51    52    1
    28    51    48    1
    29    26    25   ar
    30    26    28   ar
    31    56    57   ar
    32    25    27   ar
    33    52    53   ar
    34    28    29   ar
    35    97    95    1
    36    96    95    1
    37   101   100    2
    38    27    29   ar
    39    47    48    1
    40    95    92    1
    41    57    55   ar
    42    58    59    1
    43    58    49   am
    44    30    31    1
    45    43    42    2
    46    32    31    1
    47    46    44    1
    48    53    55   ar
    49    44    45    1
    50    44    41    1
    51    48    49    1
    52    59    60    1
    53    40    41    1
    54   102   103    1
    55   102    99    1
    56   104   103    1
    57   104    98    1
    58    49    50    2
    59   100    99    1
    60   100   105   am
    61    31    34    1
    62    34    35    1
    63   111   105    1
    64   111   110    1
    65    41    42    1
    66    98    99    1
    67    98    93   am
    68    92    93    1
    69    92    91    1
    70   105   106    1
    71    93    94    2
    72    60    61    2
    73    36    35   ar
    74    36    38   ar
    75    35    37   ar
    76   110   109    1
    77    91    86   am
    78   109   106    1
    79   106   107    1
    80    38    39   ar
    81    37    39   ar
    82    89    88    1
    83    67    66    1
    84    68    66    1
    85    87    86    2
    86    86    85    1
    87    82    81    1
    88    66    63    1
    89    83    81    1
    90    74    73    1
    91   107   108    2
    92    88    85    1
    93    88    90    1
    94    81    80    1
    95    80    77    1
    96    85    84    1
    97    84    78   am
    98   118   117    1
    99    75    73    1
   100    62    63    1
   101    63    64    1
   102    73    70    1
   103    77    78    1
   104    77    76    1
   105    78    79    2
   106   117   119    1
   107   117   116    1
   108   133   132   ar
   109   133   131   ar
   110    70    71    1
   111    70    69    1
   112    71    72    2
   113   132   130   ar
   114    64    65    2
   115   131   129   ar
   116   112   113    1
   117   116   113    1
   118   113   114    1
   119   130   127   ar
   120   129   127   ar
   121   129   128   ar
   122   115   114    2
   123   127   125   ar
   124   128   126   ar
   125   125   126   ar
   126   125   124    1
   127   121   124    1
   128   121   122    1
   129   121   120    1
   130   122   123    2
