@<TRIPOS>MOLECULE
tmp/4dztA00.pdb
 86 82 0 0 0
SMALL
GASTEIGER

@<TRIPOS>ATOM
      1  N         42.0730   16.3990    6.3490 N.3    70  HIS70      -0.1241
      2  CA        40.7560   17.0020    6.5550 C.3    70  HIS70       0.1621
      3  C         39.6130   16.0090    6.4050 C.2    70  HIS70       0.2264
      4  O         38.7570   15.9660    7.2960 O.2    70  HIS70      -0.2867
      5  CB        40.5670   18.1610    5.5760 C.3    70  HIS70       0.0745
      6  CG        41.5280   19.2900    5.8240 C.ar   70  HIS70       0.0817
      7  ND1       42.3860   19.3150    6.8980 N.ar   70  HIS70      -0.2268
      8  CD2       41.7810   20.4270    5.1360 C.ar   70  HIS70       0.1154
      9  CE1       43.1190   20.4100    6.8710 C.ar   70  HIS70       0.1986
     10  NE2       42.7670   21.1080    5.8070 N.ar   70  HIS70      -0.2212
     11  N         32.3710   19.8980    3.7530 N.3   128  SER128     -0.1202
     12  CA        33.1800   20.7890    4.5630 C.3   128  SER128      0.2020
     13  C         34.1650   21.5160    3.6610 C.2   128  SER128      0.2619
     14  O         35.3790   21.3940    3.7890 O.2   128  SER128     -0.2717
     15  CB        33.9370   20.0330    5.6630 C.3   128  SER128      0.2103
     16  OG        33.0100   19.7280    6.7090 O.3   128  SER128     -0.2182
     17  N         33.6050   22.2590    2.7220 N.am  129  LEU129     -0.1965
     18  CA        34.4310   23.0460    1.8030 C.3   129  LEU129      0.1728
     19  C         33.5570   24.2000    1.3160 C.2   129  LEU129      0.2616
     20  O         32.3530   24.2220    1.5840 O.2   129  LEU129     -0.2715
     21  CB        35.0300   22.2480    0.6580 C.3   129  LEU129      0.0311
     22  CG        34.2720   21.2840   -0.2390 C.3   129  LEU129      0.0022
     23  CD1       33.6120   20.1760    0.5650 C.3   129  LEU129      0.0001
     24  CD2       33.2240   21.9840   -1.1040 C.3   129  LEU129      0.0001
     25  N         34.1740   25.1520    0.6220 N.am  130  GLY130     -0.1955
     26  CA        33.4700   26.3250    0.1290 C.3   130  GLY130      0.1869
     27  C         34.3860   27.1720   -0.7390 C.2   130  GLY130      0.2309
     28  O         35.5970   26.9880   -0.7430 O.2   130  GLY130     -0.2863
     29  N         29.5160   23.6480    5.0030 N.3   154  ALA154     -0.1245
     30  CA        30.1700   24.6520    5.8510 C.3   154  ALA154      0.1562
     31  C         29.7250   26.0580    5.4760 C.2   154  ALA154      0.2260
     32  O         29.5720   26.3370    4.2790 O.2   154  ALA154     -0.2867
     33  CB        31.6800   24.5570    5.7150 C.3   154  ALA154      0.0290
     34  N         31.6490   28.6160    5.8820 N.3   156  GLY156     -0.1210
     35  CA        32.8830   29.2040    5.3850 C.3   156  GLY156      0.1956
     36  C         33.5940   29.9990    6.4600 C.2   156  GLY156      0.2611
     37  O         33.0020   30.3620    7.4730 O.2   156  GLY156     -0.2717
     38  N         34.8750   30.2890    6.2920 N.am  157  ASN157     -0.1974
     39  CA        35.6610   30.8510    7.3770 C.3   157  ASN157      0.1688
     40  C         36.1950   32.2520    7.0510 C.2   157  ASN157      0.2292
     41  O         37.3350   32.5860    7.3870 O.2   157  ASN157     -0.2864
     42  CB        36.8650   29.9820    7.6960 C.3   157  ASN157      0.1181
     43  CG        36.5600   28.5680    8.1160 C.2   157  ASN157      0.2629
     44  OD1       35.5350   28.2210    8.6890 O.2   157  ASN157     -0.2716
     45  ND2       37.5260   27.7030    7.8180 N.am  157  ASN157     -0.0877
     46  N         41.5250   20.6070   15.2950 N.3   218  LEU218     -0.1231
     47  CA        41.3350   21.6280   14.2770 C.3   218  LEU218      0.1693
     48  C         40.2210   22.6270   14.6000 C.2   218  LEU218      0.2592
     49  O         39.3430   22.4050   15.4330 O.2   218  LEU218     -0.2718
     50  CB        41.0130   21.0030   12.9160 C.3   218  LEU218      0.0284
     51  CG        42.0290   20.0520   12.3080 C.3   218  LEU218      0.0019
     52  CD1       41.6430   19.6920   10.8760 C.3   218  LEU218      0.0001
     53  CD2       43.4190   20.6730   12.3470 C.3   218  LEU218      0.0001
     54  N         40.3130   23.7600   13.8910 N.am  219  ASN219     -0.1960
     55  CA        39.3630   24.8520   13.9590 C.3   219  ASN219      0.1819
     56  C         38.7610   25.1380   12.5750 C.2   219  ASN219      0.2622
     57  O         39.5260   25.1870   11.6140 O.2   219  ASN219     -0.2715
     58  CB        39.9410   26.2020   14.3820 C.3   219  ASN219      0.1195
     59  CG        40.8480   26.0890   15.5930 C.2   219  ASN219      0.2630
     60  OD1       42.0510   26.3110   15.5210 O.2   219  ASN219     -0.2716
     61  ND2       40.2200   25.7310   16.6880 N.am  219  ASN219     -0.0877
     62  N         37.4450   25.3420   12.5520 N.am  220  GLY220     -0.1940
     63  CA        36.8540   25.7980   11.2980 C.3   220  GLY220      0.2014
     64  C         35.3920   25.4420   11.2070 C.2   220  GLY220      0.2640
     65  O         34.8670   24.5670   11.9020 O.2   220  GLY220     -0.2714
     66  N         34.6970   26.1410   10.2890 N.am  221  THR221     -0.1936
     67  CA        33.3210   25.7380   10.0360 C.3   221  THR221      0.2028
     68  C         33.3230   24.3390    9.4020 C.2   221  THR221      0.2643
     69  O         32.2980   23.6410    9.4460 O.2   221  THR221     -0.2714
     70  CB        32.5310   26.7250    9.1620 C.3   221  THR221      0.1808
     71  OG1       33.1920   26.9650    7.9160 O.3   221  THR221     -0.2208
     72  CG2       32.4060   28.0910    9.8400 C.3   221  THR221      0.0379
     73  N         34.4470   23.8960    8.8340 N.am  222  SER222     -0.1935
     74  CA        34.5270   22.5200    8.3550 C.3   222  SER222      0.2055
     75  C         34.3880   21.4690    9.4530 C.2   222  SER222      0.2642
     76  O         34.0160   20.3280    9.1620 O.2   222  SER222     -0.2714
     77  CB        35.8710   22.3160    7.6440 C.3   222  SER222      0.2130
     78  OG        35.7080   22.7510    6.2970 O.3   222  SER222     -0.2179
     79  N         34.6830   21.8530   10.6860 N.am  223  MET223     -0.1976
     80  CA        34.5850   20.9940   11.8570 C.3   223  MET223      0.1605
     81  C         33.2030   21.0520   12.5050 C.2   223  MET223      0.2287
     82  O         32.7980   20.1070   13.1850 O.2   223  MET223     -0.2864
     83  CB        35.6360   21.4080   12.8850 C.3   223  MET223      0.0413
     84  CG        37.0590   20.9210   12.6480 C.3   223  MET223      0.0598
     85  SD        37.8650   21.6370   11.2170 S.3   223  MET223     -0.1393
     86  CE        37.7820   20.2830   10.0500 C.3   223  MET223      0.0692
@<TRIPOS>BOND
     1    24    22    1
     2    28    27    2
     3    27    26    1
     4    22    23    1
     5    22    21    1
     6    26    25    1
     7    25    19   am
     8    21    18    1
     9    19    20    2
    10    19    18    1
    11    18    17    1
    12    17    13   am
    13    13    14    2
    14    13    12    1
    15    11    12    1
    16    32    31    2
    17    12    15    1
    18    29    30    1
    19     8    10   ar
    20     8     6   ar
    21    35    34    1
    22    35    36    1
    23    31    30    1
    24     5     6    1
    25     5     2    1
    26    15    16    1
    27    33    30    1
    28    10     9   ar
    29     6     7   ar
    30    38    36   am
    31    38    39    1
    32    78    77    1
    33     1     2    1
    34     3     2    1
    35     3     4    2
    36    36    37    2
    37     9     7   ar
    38    40    39    1
    39    40    41    2
    40    39    42    1
    41    77    74    1
    42    42    43    1
    43    45    43   am
    44    71    70    1
    45    43    44    2
    46    74    73    1
    47    74    75    1
    48    73    68   am
    49    76    75    2
    50    70    72    1
    51    70    67    1
    52    68    69    2
    53    68    67    1
    54    75    79   am
    55    67    66    1
    56    86    85    1
    57    66    64   am
    58    79    80    1
    59    52    51    1
    60    64    63    1
    61    64    65    2
    62    85    84    1
    63    63    62    1
    64    57    56    2
    65    80    81    1
    66    80    83    1
    67    51    53    1
    68    51    50    1
    69    81    82    2
    70    62    56   am
    71    56    55    1
    72    84    83    1
    73    50    47    1
    74    54    55    1
    75    54    48   am
    76    55    58    1
    77    47    48    1
    78    47    46    1
    79    58    59    1
    80    48    49    2
    81    60    59    2
    82    59    61   am
