@<TRIPOS>MOLECULE
tmp/4dzwA00.pdb
 175 161 0 0 0
SMALL
GASTEIGER

@<TRIPOS>ATOM
      1  N         -6.4850  -18.9290  -27.1000 N.3    90  GLN90      -0.1245
      2  CA        -7.4200  -18.1400  -26.3190 C.3    90  GLN90       0.1566
      3  C         -8.4040  -17.3910  -27.2060 C.2    90  GLN90       0.2260
      4  O         -9.6160  -17.4680  -26.9820 O.2    90  GLN90      -0.2867
      5  CB        -6.7010  -17.1570  -25.4210 C.3    90  GLN90       0.0367
      6  CG        -7.6620  -16.4040  -24.5480 C.3    90  GLN90       0.0905
      7  CD        -7.0410  -15.2120  -23.8980 C.2    90  GLN90       0.2608
      8  OE1       -5.8790  -14.8850  -24.1440 O.2    90  GLN90      -0.2717
      9  NE2       -7.8160  -14.5390  -23.0560 N.am   90  GLN90      -0.0878
     10  N        -11.0890  -19.5270  -28.2000 N.3    93  TYR93      -0.1227
     11  CA       -12.1200  -19.6890  -27.1720 C.3    93  TYR93       0.1736
     12  C        -12.9290  -18.4320  -26.9100 C.2    93  TYR93       0.2595
     13  O        -14.1480  -18.5030  -26.8080 O.2    93  TYR93      -0.2718
     14  CB       -11.5500  -20.2640  -25.8640 C.3    93  TYR93       0.0548
     15  CG       -11.4480  -21.7690  -25.9100 C.ar   93  TYR93      -0.0200
     16  CD1      -12.5870  -22.5540  -26.0980 C.ar   93  TYR93      -0.0009
     17  CD2      -10.2170  -22.4100  -25.7970 C.ar   93  TYR93      -0.0009
     18  CE1      -12.5050  -23.9310  -26.1620 C.ar   93  TYR93       0.0417
     19  CE2      -10.1240  -23.7970  -25.8610 C.ar   93  TYR93       0.0417
     20  CZ       -11.2750  -24.5450  -26.0440 C.ar   93  TYR93       0.1957
     21  OH       -11.2010  -25.9120  -26.1190 O.3    93  TYR93      -0.2866
     22  N        -12.2590  -17.2880  -26.8120 N.am   94  LEU94      -0.1980
     23  CA       -12.9590  -16.0330  -26.5660 C.3    94  LEU94       0.1596
     24  C        -14.0460  -15.8310  -27.6130 C.2    94  LEU94       0.2287
     25  O        -15.2180  -15.7200  -27.2720 O.2    94  LEU94      -0.2864
     26  CB       -11.9940  -14.8400  -26.5310 C.3    94  LEU94       0.0297
     27  CG       -10.9310  -14.7660  -25.4260 C.3    94  LEU94       0.0022
     28  CD1      -10.0280  -13.5620  -25.6480 C.3    94  LEU94       0.0001
     29  CD2      -11.5380  -14.7270  -24.0340 C.3    94  LEU94       0.0001
     30  N        -16.7750  -18.3540  -27.0270 N.3    97  ASP97      -0.1225
     31  CA       -17.4210  -18.1640  -25.7330 C.3    97  ASP97       0.1805
     32  C        -18.4170  -17.0060  -25.7910 C.2    97  ASP97       0.2597
     33  O        -19.5320  -17.1140  -25.2790 O.2    97  ASP97      -0.2718
     34  CB       -16.3750  -17.9050  -24.6440 C.3    97  ASP97       0.1424
     35  CG       -16.9730  -17.8850  -23.2480 C.2    97  ASP97       0.3668
     36  OD1      -17.4270  -18.9480  -22.7650 O.co2  97  ASP97      -0.2456
     37  OD2      -16.9820  -16.8000  -22.6290 O.co2  97  ASP97      -0.2456
     38  N        -18.0150  -15.9090  -26.4290 N.am   98  ASP98      -0.1974
     39  CA       -18.8510  -14.7170  -26.5180 C.3    98  ASP98       0.1709
     40  C        -20.1220  -14.9350  -27.3340 C.2    98  ASP98       0.2293
     41  O        -21.1650  -14.3660  -27.0120 O.2    98  ASP98      -0.2864
     42  CB       -18.0550  -13.5420  -27.0720 C.3    98  ASP98       0.1436
     43  CG       -16.9770  -13.0770  -26.1220 C.2    98  ASP98       0.3671
     44  OD1      -17.1030  -13.3110  -24.8990 O.co2  98  ASP98      -0.2456
     45  OD2      -15.9960  -12.4750  -26.6000 O.co2  98  ASP98      -0.2456
     46  N        -22.2850  -17.1180  -24.8750 N.3   101  ASP101     -0.1239
     47  CA       -22.8420  -16.2900  -23.8080 C.3   101  ASP101      0.1674
     48  C        -23.8150  -15.2440  -24.3550 C.2   101  ASP101      0.2266
     49  O        -24.8650  -14.9950  -23.7580 O.2   101  ASP101     -0.2867
     50  CB       -21.7230  -15.6250  -22.9950 C.3   101  ASP101      0.1410
     51  CG       -20.7590  -16.6350  -22.3730 C.2   101  ASP101      0.3668
     52  OD1      -21.1710  -17.7760  -22.0670 O.co2 101  ASP101     -0.2456
     53  OD2      -19.5780  -16.2750  -22.1900 O.co2 101  ASP101     -0.2456
     54  N        -15.7770   -6.4780  -25.3130 N.3   106  ARG106     -0.1245
     55  CA       -14.5950   -7.2380  -24.8920 C.3   106  ARG106      0.1563
     56  C        -13.3680   -6.4110  -25.2910 C.2   106  ARG106      0.2260
     57  O        -13.1070   -6.2150  -26.4850 O.2   106  ARG106     -0.2867
     58  CB       -14.5870   -8.6330  -25.5530 C.3   106  ARG106      0.0307
     59  CG       -13.2420   -9.3590  -25.5940 C.3   106  ARG106      0.0489
     60  CD       -13.0400  -10.3000  -24.4210 C.3   106  ARG106      0.2205
     61  NE       -13.9210  -11.4660  -24.4900 N.pl3 106  ARG106     -0.0865
     62  CZ       -14.1390  -12.3100  -23.4810 C.cat 106  ARG106      0.5346
     63  NH1      -13.5360  -12.1300  -22.3090 N.pl3 106  ARG106      0.1354
     64  NH2      -14.9610  -13.3380  -23.6430 N.pl3 106  ARG106      0.1354
     65  N         -9.7640  -27.1710  -21.3440 N.3   162  THR162     -0.1218
     66  CA       -10.4720  -25.9070  -21.4770 C.3   162  THR162      0.1862
     67  C        -11.8810  -26.1130  -22.0230 C.2   162  THR162      0.2287
     68  O        -12.8260  -25.5210  -21.5140 O.2   162  THR162     -0.2866
     69  CB        -9.6740  -24.8780  -22.3030 C.3   162  THR162      0.1770
     70  OG1       -8.3560  -24.7470  -21.7510 O.3   162  THR162     -0.2211
     71  CG2      -10.3440  -23.5100  -22.2590 C.3   162  THR162      0.0375
     72  N        -15.3270  -25.3850  -20.1390 N.3   166  GLN166     -0.1245
     73  CA       -16.2920  -24.5360  -20.8290 C.3   166  GLN166      0.1566
     74  C        -17.7170  -25.1070  -20.7070 C.2   166  GLN166      0.2260
     75  O        -18.6820  -24.3560  -20.5690 O.2   166  GLN166     -0.2867
     76  CB       -15.8800  -24.3840  -22.2990 C.3   166  GLN166      0.0367
     77  CG       -16.6650  -23.3580  -23.0870 C.3   166  GLN166      0.0905
     78  CD       -16.2770  -21.9330  -22.7580 C.2   166  GLN166      0.2608
     79  OE1      -16.1110  -21.5650  -21.5870 O.2   166  GLN166     -0.2717
     80  NE2      -16.1410  -21.1120  -23.7990 N.am  166  GLN166     -0.0878
     81  N        -18.7640  -24.6410  -17.0860 N.3   169  ASP169     -0.1239
     82  CA       -19.1320  -23.2470  -16.8590 C.3   169  ASP169      0.1674
     83  C        -20.5330  -22.9110  -17.3470 C.2   169  ASP169      0.2266
     84  O        -21.3040  -22.2420  -16.6530 O.2   169  ASP169     -0.2867
     85  CB       -18.1340  -22.3030  -17.5230 C.3   169  ASP169      0.1410
     86  CG       -18.3830  -20.8630  -17.1500 C.2   169  ASP169      0.3668
     87  OD1      -17.8730  -20.4290  -16.0990 O.co2 169  ASP169     -0.2456
     88  OD2      -19.1100  -20.1650  -17.8860 O.co2 169  ASP169     -0.2456
     89  N        -11.7520  -24.5170  -16.8990 N.3   206  LYS206     -0.1231
     90  CA       -12.1060  -23.4450  -17.8390 C.3   206  LYS206      0.1693
     91  C        -11.0720  -22.3130  -17.9460 C.2   206  LYS206      0.2592
     92  O        -11.1510  -21.5050  -18.8720 O.2   206  LYS206     -0.2718
     93  CB       -13.4990  -22.8730  -17.5360 C.3   206  LYS206      0.0285
     94  CG       -13.5500  -21.8830  -16.3900 C.3   206  LYS206      0.0035
     95  CD       -14.7430  -20.9560  -16.4780 C.3   206  LYS206      0.0206
     96  CE       -14.5840  -19.8060  -15.4900 C.3   206  LYS206      0.1093
     97  NZ       -15.8220  -19.0040  -15.2520 N.3   206  LYS206     -0.1314
     98  N        -10.1210  -22.2420  -17.0090 N.am  207  THR207     -0.1953
     99  CA        -9.1280  -21.1590  -17.0170 C.3   207  THR207      0.1897
    100  C         -7.7010  -21.5780  -16.6730 C.2   207  THR207      0.2313
    101  O         -6.7840  -21.3660  -17.4670 O.2   207  THR207     -0.2863
    102  CB        -9.4880  -20.0130  -16.0500 C.3   207  THR207      0.1794
    103  OG1      -10.9100  -19.8850  -15.9270 O.3   207  THR207     -0.2208
    104  CG2       -8.8910  -18.7130  -16.5480 C.3   207  THR207      0.0378
    105  N         -5.1480  -23.4470  -19.1860 N.3   210  TYR210     -0.1241
    106  CA        -4.6140  -22.7310  -20.3410 C.3   210  TYR210      0.1605
    107  C         -3.9780  -21.3910  -20.0040 C.2   210  TYR210      0.2264
    108  O         -3.0310  -20.9960  -20.6830 O.2   210  TYR210     -0.2867
    109  CB        -5.6540  -22.5880  -21.4680 C.3   210  TYR210      0.0534
    110  CG        -6.3780  -21.2530  -21.5160 C.ar  210  TYR210     -0.0201
    111  CD1       -5.7900  -20.1350  -22.1110 C.ar  210  TYR210     -0.0009
    112  CD2       -7.6580  -21.1150  -20.9860 C.ar  210  TYR210     -0.0009
    113  CE1       -6.4490  -18.9140  -22.1500 C.ar  210  TYR210      0.0417
    114  CE2       -8.3240  -19.9000  -21.0280 C.ar  210  TYR210      0.0417
    115  CZ        -7.7190  -18.8060  -21.6110 C.ar  210  TYR210      0.1957
    116  OH        -8.3850  -17.6020  -21.6510 O.3   210  TYR210     -0.2866
    117  N         -9.3890  -15.9550  -11.8570 N.3   246  GLN246     -0.1245
    118  CA       -10.8150  -15.9700  -12.1540 C.3   246  GLN246      0.1566
    119  C        -11.6230  -15.3480  -11.0290 C.2   246  GLN246      0.2260
    120  O        -12.6520  -14.7220  -11.2820 O.2   246  GLN246     -0.2867
    121  CB       -11.3090  -17.3900  -12.4190 C.3   246  GLN246      0.0367
    122  CG       -12.7690  -17.4690  -12.8780 C.3   246  GLN246      0.0905
    123  CD       -13.0010  -16.8180  -14.2320 C.2   246  GLN246      0.2608
    124  OE1      -12.3550  -17.1670  -15.2280 O.2   246  GLN246     -0.2717
    125  NE2      -13.9270  -15.8660  -14.2760 N.am  246  GLN246     -0.0878
    126  N        -11.6770  -11.8090  -11.6240 N.3   249  ASP249     -0.1225
    127  CA       -12.5940  -11.5300  -12.7240 C.3   249  ASP249      0.1805
    128  C        -14.0190  -11.4380  -12.2010 C.2   249  ASP249      0.2597
    129  O        -14.7410  -10.4940  -12.5150 O.2   249  ASP249     -0.2718
    130  CB       -12.4780  -12.6180  -13.8040 C.3   249  ASP249      0.1424
    131  CG       -13.2270  -12.2680  -15.0800 C.2   249  ASP249      0.3668
    132  OD1      -12.5550  -12.0330  -16.1100 O.co2 249  ASP249     -0.2456
    133  OD2      -14.4790  -12.2320  -15.0600 O.co2 249  ASP249     -0.2456
    134  N        -14.3990  -12.4130  -11.3820 N.am  250  ASP250     -0.1974
    135  CA       -15.7590  -12.5280  -10.8770 C.3   250  ASP250      0.1709
    136  C        -16.1760  -11.3210  -10.0500 C.2   250  ASP250      0.2293
    137  O        -17.3020  -10.8380  -10.1710 O.2   250  ASP250     -0.2864
    138  CB       -15.9100  -13.8140  -10.0640 C.3   250  ASP250      0.1436
    139  CG       -16.0020  -15.0460  -10.9360 C.2   250  ASP250      0.3671
    140  OD1      -16.2020  -14.9270  -12.1660 O.co2 250  ASP250     -0.2456
    141  OD2      -15.8820  -16.1480  -10.3800 O.co2 250  ASP250     -0.2456
    142  N        -16.1980   -8.0300  -12.5100 N.3   253  ASP253     -0.1239
    143  CA       -17.4840   -8.1150  -13.1980 C.3   253  ASP253      0.1674
    144  C        -18.5850   -7.3330  -12.4660 C.2   253  ASP253      0.2266
    145  O        -19.1450   -6.3790  -13.0080 O.2   253  ASP253     -0.2867
    146  CB       -17.8690   -9.5890  -13.3660 C.3   253  ASP253      0.1410
    147  CG       -19.1890   -9.7730  -14.0610 C.2   253  ASP253      0.3668
    148  OD1      -19.1810  -10.1230  -15.2580 O.co2 253  ASP253     -0.2456
    149  OD2      -20.2340   -9.5660  -13.4090 O.co2 253  ASP253     -0.2456
    150  N        -15.8510   -4.2350  -20.6170 N.3   263  LYS263     -0.1245
    151  CA       -17.1660   -4.7850  -20.9580 C.3   263  LYS263      0.1561
    152  C        -18.2270   -4.4090  -19.9140 C.2   263  LYS263      0.2260
    153  O        -17.9000   -3.8730  -18.8560 O.2   263  LYS263     -0.2867
    154  CB       -17.0920   -6.3140  -21.1060 C.3   263  LYS263      0.0271
    155  CG       -17.2110   -7.0900  -19.7960 C.3   263  LYS263      0.0035
    156  CD       -17.9680   -8.4020  -19.9850 C.3   263  LYS263      0.0206
    157  CE       -17.0250   -9.5950  -20.0580 C.3   263  LYS263      0.1093
    158  NZ       -16.5060   -9.9600  -18.7100 N.3   263  LYS263     -0.1314
    159  N        -23.0300  -11.3760  -15.0500 N.3   267  ASP267     -0.1239
    160  CA       -22.9290  -12.7060  -14.4790 C.3   267  ASP267      0.1674
    161  C        -24.2070  -12.9850  -13.7040 C.2   267  ASP267      0.2266
    162  O        -24.7020  -14.1130  -13.7070 O.2   267  ASP267     -0.2867
    163  CB       -21.6920  -12.8340  -13.5790 C.3   267  ASP267      0.1410
    164  CG       -20.4180  -13.1600  -14.3590 C.2   267  ASP267      0.3668
    165  OD1      -20.4480  -13.1590  -15.6100 O.co2 267  ASP267     -0.2456
    166  OD2      -19.3790  -13.4210  -13.7130 O.co2 267  ASP267     -0.2456
    167  N        -24.6680  -16.8270  -13.3480 N.3   272  LYS272     -0.1245
    168  CA       -23.3690  -17.4840  -13.2770 C.3   272  LYS272      0.1561
    169  C        -23.0600  -18.0210  -11.8850 C.2   272  LYS272      0.2260
    170  O        -23.4400  -17.4210  -10.8800 O.2   272  LYS272     -0.2867
    171  CB       -22.2650  -16.5290  -13.7310 C.3   272  LYS272      0.0271
    172  CG       -21.9720  -16.5840  -15.2200 C.3   272  LYS272      0.0035
    173  CD       -20.8450  -17.5570  -15.5200 C.3   272  LYS272      0.0206
    174  CE       -20.2310  -17.2800  -16.8790 C.3   272  LYS272      0.1093
    175  NZ       -18.7820  -17.6170  -16.9020 N.3   272  LYS272     -0.1314
@<TRIPOS>BOND
     1    10    11    1
     2    24    25    2
     3    24    23    1
     4    40    41    2
     5    40    39    1
     6     3     4    2
     7     3     2    1
     8    11    12    1
     9    11    14    1
    10     1     2    1
    11    42    39    1
    12    42    43    1
    13    30    31    1
    14    12    22   am
    15    12    13    2
    16    22    23    1
    17    45    43   ar
    18    23    26    1
    19    26    27    1
    20    39    38    1
    21    57    56    2
    22    38    32   am
    23     2     5    1
    24    18    16   ar
    25    18    20   ar
    26    43    44   ar
    27    21    20    1
    28    16    15   ar
    29    20    19   ar
    30    15    14    1
    31    15    17   ar
    32    19    17   ar
    33    32    31    1
    34    32    33    2
    35    31    34    1
    36    28    27    1
    37    59    58    1
    38    59    60    1
    39    58    55    1
    40    27    29    1
    41     5     6    1
    42    54    55    1
    43    56    55    1
    44    46    47    1
    45    34    35    1
    46     6     7    1
    47    61    60    1
    48    61    62    2
    49    48    47    1
    50    48    49    2
    51     8     7    2
    52     7     9   am
    53    47    50    1
    54    80    78   am
    55    64    62    1
    56    62    63    1
    57    35    36   ar
    58    35    37   ar
    59    77    78    1
    60    77    76    1
    61    50    51    1
    62    78    79    2
    63    51    53   ar
    64    51    52   ar
    65    69    71    1
    66    69    70    1
    67    69    66    1
    68    76    73    1
    69   113   111   ar
    70   113   115   ar
    71   111   110   ar
    72    67    68    2
    73    67    66    1
    74   116   115    1
    75   115   114   ar
    76   110   109    1
    77   110   112   ar
    78    66    65    1
    79   109   106    1
    80   154   151    1
    81   154   155    1
    82   114   112   ar
    83   151   150    1
    84   151   152    1
    85    73    74    1
    86    73    72    1
    87    74    75    2
    88   108   107    2
    89   106   107    1
    90   106   105    1
    91   157   156    1
    92   157   158    1
    93   156   155    1
    94   152   153    2
    95    92    91    2
    96    91    90    1
    97    91    98   am
    98    88    86   ar
    99    90    93    1
   100    90    89    1
   101    93    94    1
   102    85    86    1
   103    85    82    1
   104   101   100    2
   105    83    82    1
   106    83    84    2
   107    86    87   ar
   108    81    82    1
   109    99    98    1
   110    99   100    1
   111    99   102    1
   112   175   174    1
   113   174   173    1
   114   104   102    1
   115    95    94    1
   116    95    96    1
   117   132   131   ar
   118   102   103    1
   119   165   164   ar
   120   173   172    1
   121    96    97    1
   122   148   147   ar
   123   124   123    2
   124   172   171    1
   125   131   133   ar
   126   131   130    1
   127   159   160    1
   128   160   161    1
   129   160   163    1
   130   164   166   ar
   131   164   163    1
   132   125   123   am
   133   123   122    1
   134   147   149   ar
   135   147   146    1
   136   130   127    1
   137   171   168    1
   138   162   161    2
   139   146   143    1
   140   167   168    1
   141   168   169    1
   142   143   142    1
   143   143   144    1
   144   145   144    2
   145   122   121    1
   146   127   128    1
   147   127   126    1
   148   129   128    2
   149   121   118    1
   150   128   134   am
   151   140   139   ar
   152   118   117    1
   153   118   119    1
   154   169   170    2
   155   134   135    1
   156   120   119    2
   157   139   141   ar
   158   139   138    1
   159   135   138    1
   160   135   136    1
   161   137   136    2
