@<TRIPOS>MOLECULE
tmp/4e00A01.pdb
 116 106 0 0 0
SMALL
GASTEIGER

@<TRIPOS>ATOM
      1  N         -9.4960  -25.2940   23.2110 N.3    30  LEU30      -0.1245
      2  CA        -9.8710  -25.9940   21.9850 C.3    30  LEU30       0.1561
      3  C        -11.2100  -25.5620   21.3710 C.2    30  LEU30       0.2260
      4  O        -11.2990  -25.3870   20.1570 O.2    30  LEU30      -0.2867
      5  CB        -9.8650  -27.5050   22.1900 C.3    30  LEU30       0.0270
      6  CG        -8.4910  -28.1190   22.4330 C.3    30  LEU30       0.0019
      7  CD1       -8.6320  -29.6230   22.5650 C.3    30  LEU30       0.0001
      8  CD2       -7.5390  -27.7660   21.3050 C.3    30  LEU30       0.0001
      9  N        -11.5810  -24.3910   17.5050 N.3    34  ILE34      -0.1245
     10  CA       -12.4780  -25.0840   16.5860 C.3    34  ILE34       0.1561
     11  C        -13.5250  -24.0780   16.0420 C.2    34  ILE34       0.2260
     12  O        -13.7730  -24.0100   14.8360 O.2    34  ILE34      -0.2867
     13  CB       -13.1350  -26.2970   17.2560 C.3    34  ILE34       0.0252
     14  CG1      -12.0520  -27.2990   17.6890 C.3    34  ILE34       0.0019
     15  CG2      -14.1090  -26.9760   16.3030 C.3    34  ILE34       0.0019
     16  CD1      -12.5690  -28.3670   18.6570 C.3    34  ILE34       0.0001
     17  N        -15.8060  -30.7580   11.8990 N.3    61  TYR61      -0.1241
     18  CA       -15.4130  -29.6830   12.8170 C.3    61  TYR61       0.1605
     19  C        -16.5560  -29.2520   13.7420 C.2    61  TYR61       0.2264
     20  O        -16.3390  -28.9840   14.9230 O.2    61  TYR61      -0.2867
     21  CB       -14.7990  -28.4900   12.0670 C.3    61  TYR61       0.0534
     22  CG       -13.2830  -28.6090   11.9620 C.ar   61  TYR61      -0.0201
     23  CD1      -12.7000  -29.6330   11.2260 C.ar   61  TYR61      -0.0009
     24  CD2      -12.4480  -27.7110   12.6100 C.ar   61  TYR61      -0.0009
     25  CE1      -11.3130  -29.7570   11.1390 C.ar   61  TYR61       0.0417
     26  CE2      -11.0530  -27.8220   12.5310 C.ar   61  TYR61       0.0417
     27  CZ       -10.4980  -28.8550   11.7950 C.ar   61  TYR61       0.1957
     28  OH        -9.1300  -28.9860   11.7110 O.3    61  TYR61      -0.2866
     29  N        -16.8630  -31.8990   16.3970 N.3    64  ALA64      -0.1245
     30  CA       -15.8060  -31.7910   17.3980 C.3    64  ALA64       0.1562
     31  C        -16.1410  -30.7020   18.4070 C.2    64  ALA64       0.2260
     32  O        -16.0160  -30.9010   19.6190 O.2    64  ALA64      -0.2867
     33  CB       -14.4470  -31.5220   16.7370 C.3    64  ALA64       0.0290
     34  N        -16.8700  -31.4070   22.4760 N.3    68  LEU68      -0.1245
     35  CA       -16.0880  -30.7740   23.5370 C.3    68  LEU68       0.1561
     36  C        -16.9890  -29.9320   24.4380 C.2    68  LEU68       0.2260
     37  O        -16.8470  -29.9480   25.6650 O.2    68  LEU68      -0.2867
     38  CB       -14.9390  -29.9220   22.9830 C.3    68  LEU68       0.0270
     39  CG       -13.7350  -30.6370   22.3540 C.3    68  LEU68       0.0019
     40  CD1      -12.6540  -29.6270   22.0180 C.3    68  LEU68       0.0001
     41  CD2      -13.1680  -31.7120   23.2630 C.3    68  LEU68       0.0001
     42  N        -10.5380  -36.9770   23.5950 N.3    87  VAL87      -0.1245
     43  CA        -9.4190  -36.3980   22.8470 C.3    87  VAL87       0.1561
     44  C         -8.7890  -37.4030   21.8700 C.2    87  VAL87       0.2260
     45  O         -8.5210  -37.0530   20.7170 O.2    87  VAL87      -0.2867
     46  CB        -8.3470  -35.8240   23.7870 C.3    87  VAL87       0.0252
     47  CG1       -7.1300  -35.3100   22.9860 C.3    87  VAL87       0.0019
     48  CG2       -8.9450  -34.7240   24.6260 C.3    87  VAL87       0.0019
     49  N        -11.1250  -37.9370   18.8580 N.3    90  LEU90      -0.1231
     50  CA       -11.1090  -36.8050   17.9300 C.3    90  LEU90       0.1693
     51  C         -9.8180  -36.7530   17.1130 C.2    90  LEU90       0.2591
     52  O         -9.8470  -36.5630   15.8940 O.2    90  LEU90      -0.2718
     53  CB       -11.3320  -35.4830   18.6720 C.3    90  LEU90       0.0284
     54  CG       -12.7580  -35.3290   19.2010 C.3    90  LEU90       0.0019
     55  CD1      -12.9420  -34.0070   19.9240 C.3    90  LEU90       0.0001
     56  CD2      -13.7290  -35.4510   18.0410 C.3    90  LEU90       0.0001
     57  N         -8.6840  -36.9220   17.7830 N.am   91  LEU91      -0.1980
     58  CA        -7.4040  -36.9860   17.0800 C.3    91  LEU91       0.1596
     59  C         -7.4740  -38.0150   15.9610 C.2    91  LEU91       0.2287
     60  O         -7.0910  -37.7330   14.8300 O.2    91  LEU91      -0.2864
     61  CB        -6.2700  -37.3290   18.0480 C.3    91  LEU91       0.0297
     62  CG        -5.7440  -36.1300   18.8300 C.3    91  LEU91       0.0022
     63  CD1       -4.8350  -36.5910   19.9560 C.3    91  LEU91       0.0001
     64  CD2       -4.9960  -35.1850   17.8860 C.3    91  LEU91       0.0001
     65  N        -10.0040  -37.1630   13.0690 N.3    94  HIS94      -0.1241
     66  CA        -9.5320  -36.0540   12.2450 C.3    94  HIS94       0.1621
     67  C         -8.1780  -36.2770   11.5580 C.2    94  HIS94       0.2264
     68  O         -7.6130  -35.3410   10.9950 O.2    94  HIS94      -0.2867
     69  CB        -9.4530  -34.7820   13.0950 C.3    94  HIS94       0.0745
     70  CG       -10.7840  -34.1700   13.4030 C.ar   94  HIS94       0.0817
     71  ND1      -11.0850  -32.8560   13.1060 N.ar   94  HIS94      -0.2268
     72  CD2      -11.8960  -34.6880   13.9840 C.ar   94  HIS94       0.1154
     73  CE1      -12.3260  -32.5920   13.4860 C.ar   94  HIS94       0.1986
     74  NE2      -12.8400  -33.6860   14.0210 N.ar   94  HIS94      -0.2212
     75  N         -7.7370  -35.2960    7.7850 N.3    97  VAL97      -0.1245
     76  CA        -8.3070  -34.0040    7.3990 C.3    97  VAL97       0.1561
     77  C         -7.5010  -33.2770    6.3200 C.2    97  VAL97       0.2260
     78  O         -8.0900  -32.6930    5.4120 O.2    97  VAL97      -0.2867
     79  CB        -8.5620  -33.0850    8.6200 C.3    97  VAL97       0.0252
     80  CG1       -8.6780  -31.6020    8.1790 C.3    97  VAL97       0.0019
     81  CG2       -9.8050  -33.5510    9.3510 C.3    97  VAL97       0.0019
     82  N         -4.9090  -26.2140   12.8550 N.3   129  ARG129     -0.1245
     83  CA        -5.0390  -27.6320   13.1270 C.3   129  ARG129      0.1563
     84  C         -3.7700  -28.2100   13.7630 C.2   129  ARG129      0.2260
     85  O         -3.8400  -29.0090   14.7020 O.2   129  ARG129     -0.2867
     86  CB        -5.3990  -28.4000   11.8520 C.3   129  ARG129      0.0307
     87  CG        -5.3130  -29.9160   12.0070 C.3   129  ARG129      0.0489
     88  CD        -5.8190  -30.5990   10.7520 C.3   129  ARG129      0.2205
     89  NE        -5.7980  -32.0570   10.8470 N.pl3 129  ARG129     -0.0865
     90  CZ        -4.7090  -32.8020   10.6490 C.cat 129  ARG129      0.5346
     91  NH1       -3.5500  -32.2250   10.3780 N.pl3 129  ARG129      0.1354
     92  NH2       -4.7800  -34.1220   10.7340 N.pl3 129  ARG129      0.1354
     93  N         -3.8330  -27.2680   17.3010 N.3   132  ILE132     -0.1231
     94  CA        -4.8120  -28.0610   18.0280 C.3   132  ILE132      0.1692
     95  C         -4.2570  -29.4590   18.3260 C.2   132  ILE132      0.2591
     96  O         -4.3280  -29.9570   19.4630 O.2   132  ILE132     -0.2718
     97  CB        -6.1440  -28.1520   17.2560 C.3   132  ILE132      0.0266
     98  CG1       -6.8500  -26.7930   17.2790 C.3   132  ILE132      0.0019
     99  CG2       -7.0320  -29.2470   17.8450 C.3   132  ILE132      0.0020
    100  CD1       -8.0020  -26.6760   16.3050 C.3   132  ILE132      0.0001
    101  N         -3.6790  -30.0860   17.3140 N.am  133  ARG133     -0.1980
    102  CA        -3.1580  -31.4360   17.5040 C.3   133  ARG133      0.1597
    103  C         -1.9800  -31.4630   18.4790 C.2   133  ARG133      0.2287
    104  O         -1.8280  -32.4120   19.2450 O.2   133  ARG133     -0.2864
    105  CB        -2.8020  -32.0770   16.1590 C.3   133  ARG133      0.0334
    106  CG        -4.0400  -32.2780   15.2630 C.3   133  ARG133      0.0492
    107  CD        -3.7100  -33.0910   13.9940 C.3   133  ARG133      0.2205
    108  NE        -3.3930  -34.4890   14.3000 N.pl3 133  ARG133     -0.0865
    109  CZ        -4.2930  -35.4650   14.3830 C.cat 133  ARG133      0.5346
    110  NH1       -5.5850  -35.2060   14.1800 N.pl3 133  ARG133      0.1354
    111  NH2       -3.8990  -36.7060   14.6670 N.pl3 133  ARG133      0.1354
    112  N         -3.4030  -31.1600   22.0170 N.3   136  ALA136     -0.1245
    113  CA        -4.1480  -32.3500   22.4120 C.3   136  ALA136      0.1562
    114  C         -3.2020  -33.5100   22.7040 C.2   136  ALA136      0.2260
    115  O         -3.3700  -34.2230   23.6910 O.2   136  ALA136     -0.2867
    116  CB        -5.1540  -32.7360   21.3360 C.3   136  ALA136      0.0290
@<TRIPOS>BOND
     1    78    77    2
     2    77    76    1
     3    76    75    1
     4    76    79    1
     5    80    79    1
     6    79    81    1
     7    91    90    1
     8    90    92    1
     9    90    89    2
    10    88    89    1
    11    88    87    1
    12    68    67    2
    13    25    23   ar
    14    25    27   ar
    15    23    22   ar
    16    67    66    1
    17    28    27    1
    18    27    26   ar
    19    86    87    1
    20    86    83    1
    21    17    18    1
    22    22    21    1
    23    22    24   ar
    24    21    18    1
    25    66    65    1
    26    66    69    1
    27    26    24   ar
    28    18    19    1
    29    82    83    1
    30    69    70    1
    31    71    70   ar
    32    71    73   ar
    33    83    84    1
    34    70    72   ar
    35    73    74   ar
    36    19    20    2
    37    84    85    2
    38    72    74   ar
    39   107   108    1
    40   107   106    1
    41   110   109    1
    42   108   109    2
    43   109   111    1
    44    60    59    2
    45    12    11    2
    46   106   105    1
    47    52    51    2
    48    59    58    1
    49    11    10    1
    50   105   102    1
    51    15    13    1
    52   100    98    1
    53    29    30    1
    54    10    13    1
    55    10     9    1
    56    33    30    1
    57    58    57    1
    58    58    61    1
    59    51    57   am
    60    51    50    1
    61    13    14    1
    62    97    98    1
    63    97    99    1
    64    97    94    1
    65    93    94    1
    66   101   102    1
    67   101    95   am
    68    30    31    1
    69   102   103    1
    70    14    16    1
    71    64    62    1
    72    50    53    1
    73    50    49    1
    74    94    95    1
    75    56    54    1
    76    61    62    1
    77    95    96    2
    78    31    32    2
    79   103   104    2
    80    53    54    1
    81    62    63    1
    82    54    55    1
    83     4     3    2
    84    45    44    2
    85     8     6    1
    86   116   113    1
    87     3     2    1
    88    44    43    1
    89     2     5    1
    90     2     1    1
    91   112   113    1
    92    40    39    1
    93     5     6    1
    94    39    38    1
    95    39    41    1
    96   113   114    1
    97     6     7    1
    98    34    35    1
    99   114   115    2
   100    43    42    1
   101    43    46    1
   102    38    35    1
   103    47    46    1
   104    35    36    1
   105    46    48    1
   106    36    37    2
