@<TRIPOS>MOLECULE
tmp/4e01A01.pdb
 187 178 0 0 0
SMALL
GASTEIGER

@<TRIPOS>ATOM
      1  N          8.5500  -34.2540    4.3000 N.3   206  GLU206     -0.1245
      2  CA         8.1020  -33.5910    3.0750 C.3   206  GLU206      0.1567
      3  C          9.3000  -33.0840    2.2680 C.2   206  GLU206      0.2260
      4  O          9.3700  -33.2650    1.0540 O.2   206  GLU206     -0.2867
      5  CB         7.1490  -32.4350    3.3800 C.3   206  GLU206      0.0388
      6  CG         5.8200  -32.8780    3.9680 C.3   206  GLU206      0.1160
      7  CD         5.1240  -33.9410    3.1190 C.2   206  GLU206      0.3649
      8  OE1        5.2110  -33.8890    1.8710 O.co2 206  GLU206     -0.2457
      9  OE2        4.4910  -34.8360    3.7060 O.co2 206  GLU206     -0.2457
     10  N         11.4390  -36.1650    0.8910 N.3   209  LYS209     -0.1231
     11  CA        10.8290  -36.7750   -0.2860 C.3   209  LYS209      0.1693
     12  C         11.0600  -35.9280   -1.5400 C.2   209  LYS209      0.2592
     13  O         11.3510  -36.4670   -2.6170 O.2   209  LYS209     -0.2718
     14  CB         9.3430  -37.0120   -0.0640 C.3   209  LYS209      0.0285
     15  CG         9.0560  -38.1270    0.9350 C.3   209  LYS209      0.0035
     16  CD         7.5970  -38.5490    0.8800 C.3   209  LYS209      0.0206
     17  CE         6.6780  -37.5110    1.4830 C.3   209  LYS209      0.1093
     18  NZ         5.2730  -38.0260    1.5150 N.3   209  LYS209     -0.1314
     19  N         10.9330  -34.6070   -1.3930 N.am  210  ASN210     -0.1960
     20  CA        11.1430  -33.6830   -2.5130 C.3   210  ASN210      0.1819
     21  C         12.5400  -33.7890   -3.0840 C.2   210  ASN210      0.2621
     22  O         12.7120  -33.8880   -4.2910 O.2   210  ASN210     -0.2715
     23  CB        10.8710  -32.2310   -2.0940 C.3   210  ASN210      0.1195
     24  CG         9.3890  -31.9520   -1.9290 C.2   210  ASN210      0.2630
     25  OD1        8.5670  -32.8030   -2.2750 O.2   210  ASN210     -0.2716
     26  ND2        9.0390  -30.7680   -1.4260 N.am  210  ASN210     -0.0877
     27  N         13.5360  -33.7450   -2.2040 N.am  211  ALA211     -0.1977
     28  CA        14.9310  -33.7880   -2.6200 C.3   211  ALA211      0.1597
     29  C         15.2370  -35.1170   -3.3080 C.2   211  ALA211      0.2287
     30  O         15.9300  -35.1580   -4.3210 O.2   211  ALA211     -0.2864
     31  CB        15.8440  -33.5760   -1.4110 C.3   211  ALA211      0.0319
     32  N         13.0260  -37.3880   -4.7660 N.3   213  ARG213     -0.1231
     33  CA        12.3280  -37.4960   -6.0540 C.3   213  ARG213      0.1694
     34  C         13.0910  -36.6990   -7.1150 C.2   213  ARG213      0.2591
     35  O         13.3790  -37.2020   -8.2010 O.2   213  ARG213     -0.2718
     36  CB        10.8910  -36.9690   -5.9480 C.3   213  ARG213      0.0321
     37  CG         9.8880  -37.6620   -6.8620 C.3   213  ARG213      0.0489
     38  CD         9.5350  -36.8540   -8.0960 C.3   213  ARG213      0.2205
     39  NE         8.6500  -35.7360   -7.7940 N.pl3 213  ARG213     -0.0865
     40  CZ         8.0400  -34.9860   -8.7100 C.cat 213  ARG213      0.5346
     41  NH1        8.2010  -35.2390  -10.0030 N.pl3 213  ARG213      0.1354
     42  NH2        7.2620  -33.9820   -8.3300 N.pl3 213  ARG213      0.1354
     43  N         13.4080  -35.4480   -6.7970 N.am  214  ALA214     -0.1980
     44  CA        14.1490  -34.6020   -7.7270 C.3   214  ALA214      0.1597
     45  C         15.4530  -35.2640   -8.1640 C.2   214  ALA214      0.2287
     46  O         15.7810  -35.2860   -9.3440 O.2   214  ALA214     -0.2864
     47  CB        14.4270  -33.2480   -7.0990 C.3   214  ALA214      0.0319
     48  N         20.2790  -30.5340   -2.4550 N.3   246  ASP246     -0.1239
     49  CA        20.3090  -31.6470   -3.3860 C.3   246  ASP246      0.1674
     50  C         20.9770  -31.2590   -4.6930 C.2   246  ASP246      0.2266
     51  O         21.1630  -30.0710   -4.9900 O.2   246  ASP246     -0.2867
     52  CB        18.8960  -32.2000   -3.6290 C.3   246  ASP246      0.1410
     53  CG        17.9890  -31.2100   -4.3250 C.2   246  ASP246      0.3668
     54  OD1       16.8980  -30.9160   -3.7710 O.co2 246  ASP246     -0.2456
     55  OD2       18.3540  -30.7490   -5.4340 O.co2 246  ASP246     -0.2456
     56  N         19.5410  -32.3020   -7.5390 N.3   248  GLY248     -0.1225
     57  CA        18.4350  -32.8310   -8.3220 C.3   248  GLY248      0.1811
     58  C         17.9690  -31.9590   -9.4780 C.2   248  GLY248      0.2280
     59  O         16.8670  -32.1580   -9.9990 O.2   248  GLY248     -0.2866
     60  N         17.3270  -28.6180   -9.7290 N.3   250  GLY250     -0.1210
     61  CA        16.7190  -27.3330   -9.4280 C.3   250  GLY250      0.1956
     62  C         15.2310  -27.2500   -9.7140 C.2   250  GLY250      0.2611
     63  O         14.6380  -28.1540  -10.3100 O.2   250  GLY250     -0.2717
     64  N         14.6230  -26.1560   -9.2670 N.am  251  ILE251     -0.1979
     65  CA        13.2430  -25.8470   -9.5970 C.3   251  ILE251      0.1595
     66  C         13.2720  -24.8900  -10.7750 C.2   251  ILE251      0.2287
     67  O         13.8450  -23.7980  -10.6880 O.2   251  ILE251     -0.2864
     68  CB        12.5060  -25.1910   -8.4110 C.3   251  ILE251      0.0276
     69  CG1       12.4240  -26.1630   -7.2260 C.3   251  ILE251      0.0022
     70  CG2       11.1100  -24.7360   -8.8390 C.3   251  ILE251      0.0022
     71  CD1       12.0060  -25.5020   -5.9050 C.3   251  ILE251      0.0001
     72  N          8.4430  -22.7480  -13.0560 N.3   255  ASP255     -0.1239
     73  CA         7.6960  -23.3660  -11.9520 C.3   255  ASP255      0.1674
     74  C          7.8880  -22.6400  -10.6360 C.2   255  ASP255      0.2266
     75  O          7.1230  -22.8360   -9.6910 O.2   255  ASP255     -0.2867
     76  CB         8.1420  -24.8140  -11.7570 C.3   255  ASP255      0.1410
     77  CG         7.7870  -25.6850  -12.9320 C.2   255  ASP255      0.3668
     78  OD1        6.8050  -25.3500  -13.6210 O.co2 255  ASP255     -0.2456
     79  OD2        8.4930  -26.6830  -13.1680 O.co2 255  ASP255     -0.2456
     80  N          5.4980  -23.3860   -7.1610 N.3   259  VAL259     -0.1245
     81  CA         5.7530  -24.5160   -6.2710 C.3   259  VAL259      0.1561
     82  C          5.1870  -24.3050   -4.8770 C.2   259  VAL259      0.2260
     83  O          4.8590  -25.2700   -4.2140 O.2   259  VAL259     -0.2867
     84  CB         7.2470  -24.9100   -6.1630 C.3   259  VAL259      0.0252
     85  CG1        7.7570  -25.4320   -7.5000 C.3   259  VAL259      0.0019
     86  CG2        8.0890  -23.7320   -5.6480 C.3   259  VAL259      0.0019
     87  N         -0.2110  -27.4220   -6.5970 N.3   264  PHE264     -0.1227
     88  CA         0.7170  -27.4420   -7.7270 C.3   264  PHE264      0.1736
     89  C          1.7010  -28.6060   -7.6110 C.2   264  PHE264      0.2596
     90  O          2.3950  -28.7500   -6.6250 O.2   264  PHE264     -0.2718
     91  CB         1.4910  -26.1340   -7.9070 C.3   264  PHE264      0.0547
     92  CG         2.5070  -26.2120   -9.0160 C.ar  264  PHE264     -0.0202
     93  CD1        2.1430  -25.9200  -10.3230 C.ar  264  PHE264     -0.0042
     94  CD2        3.7970  -26.6550   -8.7660 C.ar  264  PHE264     -0.0042
     95  CE1        3.0600  -26.0200  -11.3530 C.ar  264  PHE264     -0.0003
     96  CE2        4.7200  -26.7620   -9.7930 C.ar  264  PHE264     -0.0003
     97  CZ         4.3490  -26.4410  -11.0890 C.ar  264  PHE264     -0.0000
     98  N          1.7730  -29.4440   -8.6250 N.am  265  THR265     -0.1939
     99  CA         2.6970  -30.5570   -8.5590 C.3   265  THR265      0.2028
    100  C          3.1170  -30.8930   -9.9690 C.2   265  THR265      0.2643
    101  O          2.3300  -30.7340  -10.9090 O.2   265  THR265     -0.2714
    102  CB         2.0670  -31.7860   -7.8560 C.3   265  THR265      0.1808
    103  OG1        2.9800  -32.8920   -7.8990 O.3   265  THR265     -0.2208
    104  CG2        0.7310  -32.1820   -8.5170 C.3   265  THR265      0.0379
    105  N          4.3640  -31.3180  -10.1280 N.am  266  THR266     -0.1936
    106  CA         4.8450  -31.7410  -11.4370 C.3   266  THR266      0.2028
    107  C          4.7910  -33.2630  -11.5970 C.2   266  THR266      0.2642
    108  O          5.1580  -33.7850  -12.6440 O.2   266  THR266     -0.2714
    109  CB         6.2890  -31.2810  -11.6800 C.3   266  THR266      0.1808
    110  OG1        7.1250  -31.8050  -10.6430 O.3   266  THR266     -0.2208
    111  CG2        6.3850  -29.7560  -11.6870 C.3   266  THR266      0.0379
    112  N          4.3440  -33.9680  -10.5600 N.am  267  ALA267     -0.1977
    113  CA         4.3050  -35.4330  -10.5870 C.3   267  ALA267      0.1597
    114  C          3.1850  -35.9570  -11.4860 C.2   267  ALA267      0.2287
    115  O          2.3360  -35.1890  -11.9400 O.2   267  ALA267     -0.2864
    116  CB         4.1570  -35.9960   -9.1750 C.3   267  ALA267      0.0319
    117  N          1.1880  -37.2730   -4.5970 N.3   268  GLY268     -0.1210
    118  CA         0.4070  -36.4760   -3.6680 C.3   268  GLY268      0.1956
    119  C         -0.4180  -35.3930   -4.3460 C.2   268  GLY268      0.2612
    120  O         -0.5910  -35.3950   -5.5640 O.2   268  GLY268     -0.2717
    121  N         -0.9260  -34.4600   -3.5470 N.am  269  PHE269     -0.1962
    122  CA        -1.7670  -33.3820   -4.0560 C.3   269  PHE269      0.1771
    123  C         -0.9600  -32.1220   -4.3480 C.2   269  PHE269      0.2620
    124  O         -1.5070  -31.1340   -4.8350 O.2   269  PHE269     -0.2715
    125  CB        -2.8530  -33.0390   -3.0370 C.3   269  PHE269      0.0574
    126  CG        -3.9080  -34.1060   -2.8780 C.ar  269  PHE269     -0.0200
    127  CD1       -3.8200  -35.0450   -1.8610 C.ar  269  PHE269     -0.0042
    128  CD2       -4.9890  -34.1570   -3.7410 C.ar  269  PHE269     -0.0042
    129  CE1       -4.8000  -36.0230   -1.7110 C.ar  269  PHE269     -0.0003
    130  CE2       -5.9680  -35.1270   -3.5970 C.ar  269  PHE269     -0.0003
    131  CZ        -5.8720  -36.0590   -2.5810 C.ar  269  PHE269     -0.0000
    132  N          0.3360  -32.1570   -4.0380 N.am  270  GLY270     -0.1940
    133  CA         1.1850  -30.9780   -4.1480 C.3   270  GLY270      0.2014
    134  C          1.0370  -30.0920   -2.9180 C.2   270  GLY270      0.2639
    135  O          0.7830  -28.8920   -3.0300 O.2   270  GLY270     -0.2714
    136  N          1.1650  -30.6810   -1.7370 N.am  271  PHE271     -0.1959
    137  CA         0.9170  -29.9640   -0.4870 C.3   271  PHE271      0.1771
    138  C          2.1960  -29.7980    0.3350 C.2   271  PHE271      0.2620
    139  O          2.2590  -28.9640    1.2300 O.2   271  PHE271     -0.2715
    140  CB        -0.1570  -30.6900    0.3530 C.3   271  PHE271      0.0574
    141  CG        -1.5490  -30.1080    0.1890 C.ar  271  PHE271     -0.0200
    142  CD1       -2.3270  -29.7980    1.2970 C.ar  271  PHE271     -0.0042
    143  CD2       -2.0590  -29.8470   -1.0780 C.ar  271  PHE271     -0.0042
    144  CE1       -3.6010  -29.2490    1.1410 C.ar  271  PHE271     -0.0003
    145  CE2       -3.3290  -29.3040   -1.2460 C.ar  271  PHE271     -0.0003
    146  CZ        -4.0990  -28.9960   -0.1350 C.ar  271  PHE271     -0.0000
    147  N          3.2180  -30.5910    0.0330 N.am  272  GLY272     -0.1940
    148  CA         4.4190  -30.5950    0.8570 C.3   272  GLY272      0.2014
    149  C          5.0430  -29.2380    1.1610 C.2   272  GLY272      0.2639
    150  O          5.3430  -28.9260    2.3220 O.2   272  GLY272     -0.2714
    151  N          5.2510  -28.4220    0.1360 N.am  273  LEU273     -0.1963
    152  CA         5.8990  -27.1150    0.3530 C.3   273  LEU273      0.1713
    153  C          5.0200  -26.0750    1.0370 C.2   273  LEU273      0.2458
    154  O          5.4320  -25.4890    2.0310 O.2   273  LEU273     -0.2730
    155  CB         6.4680  -26.5480   -0.9620 C.3   273  LEU273      0.0310
    156  CG         7.7710  -27.2260   -1.4510 C.3   273  LEU273      0.0022
    157  CD1        8.2000  -26.6500   -2.8060 C.3   273  LEU273      0.0001
    158  CD2        8.8790  -27.0450   -0.4230 C.3   273  LEU273      0.0001
    159  N          3.8100  -25.8210    0.4980 N.am  274  PRO274     -0.2727
    160  CA         2.9630  -24.8070    1.1360 C.3   274  PRO274      0.1402
    161  C          2.6120  -25.1870    2.5690 C.2   274  PRO274      0.2269
    162  O          2.5950  -24.3230    3.4460 O.2   274  PRO274     -0.2865
    163  CB         1.7090  -24.7690    0.2470 C.3   274  PRO274      0.0296
    164  CG         1.6970  -26.0870   -0.4740 C.3   274  PRO274      0.0237
    165  CD         3.1510  -26.4440   -0.6600 C.3   274  PRO274      0.0939
    166  N         13.5640  -21.2320   -0.2370 N.3   289  LEU289     -0.1245
    167  CA        14.1280  -22.0610   -1.2990 C.3   289  LEU289      0.1561
    168  C         15.1490  -21.2790   -2.0950 C.2   289  LEU289      0.2260
    169  O         14.9330  -20.1080   -2.3820 O.2   289  LEU289     -0.2867
    170  CB        13.0220  -22.4900   -2.2670 C.3   289  LEU289      0.0270
    171  CG        11.7670  -23.1310   -1.6710 C.3   289  LEU289      0.0019
    172  CD1       10.6760  -23.2380   -2.7400 C.3   289  LEU289      0.0001
    173  CD2       12.1010  -24.4780   -1.1100 C.3   289  LEU289      0.0001
    174  N         18.8130  -27.7840   -5.6800 N.3   297  THR297     -0.1218
    175  CA        18.0400  -26.8680   -4.8450 C.3   297  THR297      0.1862
    176  C         18.5600  -26.9270   -3.4150 C.2   297  THR297      0.2287
    177  O         18.9210  -28.0060   -2.9200 O.2   297  THR297     -0.2866
    178  CB        16.5390  -27.2780   -4.8720 C.3   297  THR297      0.1770
    179  OG1       16.0660  -27.2570   -6.2270 O.3   297  THR297     -0.2211
    180  CG2       15.6670  -26.3260   -4.0210 C.3   297  THR297      0.0375
    181  N         17.1780  -26.0220    0.3290 N.3   299  VAL299     -0.1245
    182  CA        15.9880  -25.6560    1.0850 C.3   299  VAL299      0.1561
    183  C         16.3690  -25.3820    2.5300 C.2   299  VAL299      0.2260
    184  O         17.0940  -26.1730    3.1610 O.2   299  VAL299     -0.2867
    185  CB        14.9360  -26.7790    1.0280 C.3   299  VAL299      0.0252
    186  CG1       13.7370  -26.4060    1.8810 C.3   299  VAL299      0.0019
    187  CG2       14.5420  -27.0450   -0.4420 C.3   299  VAL299      0.0019
@<TRIPOS>BOND
     1    78    77   ar
     2    79    77   ar
     3    72    73    1
     4    77    76    1
     5   108   107    2
     6    73    76    1
     7    73    74    1
     8   115   114    2
     9   111   109    1
    10   109   106    1
    11   109   110    1
    12   107   106    1
    13   107   112   am
    14   114   113    1
    15   106   105    1
    16    95    97   ar
    17    95    93   ar
    18    97    96   ar
    19   101   100    2
    20    66    67    2
    21    66    65    1
    22    74    75    2
    23   113   112    1
    24   113   116    1
    25    93    92   ar
    26    63    62    2
    27   105   100   am
    28    41    40    1
    29    59    58    2
    30   100    99    1
    31    96    94   ar
    32    60    61    1
    33    62    61    1
    34    62    64   am
    35    65    64    1
    36    65    68    1
    37    58    57    1
    38    46    45    2
    39    92    94   ar
    40    92    91    1
    41    70    68    1
    42    40    42    1
    43    40    39    2
    44    98    99    1
    45    98    89   am
    46    99   102    1
    47   104   102    1
    48    68    69    1
    49    57    56    1
    50    35    34    2
    51    45    44    1
    52    38    39    1
    53    38    37    1
    54    91    88    1
    55   103   102    1
    56    88    89    1
    57    88    87    1
    58    44    47    1
    59    44    43    1
    60    89    90    2
    61    85    84    1
    62    69    71    1
    63    80    81    1
    64    34    43   am
    65    34    33    1
    66    37    36    1
    67    81    84    1
    68    81    82    1
    69   179   178    1
    70    84    86    1
    71    33    36    1
    72    33    32    1
    73   174   175    1
    74   120   119    2
    75    55    53   ar
    76    51    50    2
    77    82    83    2
    78   178   175    1
    79   178   180    1
    80   175   176    1
    81   124   123    2
    82    50    49    1
    83   117   118    1
    84   123   122    1
    85   123   132   am
    86   119   118    1
    87   119   121   am
    88    53    54   ar
    89    53    52    1
    90    30    29    2
    91    22    21    2
    92   133   132    1
    93   133   134    1
    94   122   121    1
    95   122   125    1
    96   128   130   ar
    97   128   126   ar
    98    52    49    1
    99   130   131   ar
   100   176   177    2
   101    49    48    1
   102    29    28    1
   103    21    20    1
   104    21    27   am
   105   125   126    1
   106   135   134    2
   107   134   136   am
   108   126   127   ar
   109   157   156    1
   110   172   171    1
   111    28    27    1
   112    28    31    1
   113    13    12    2
   114   131   129   ar
   115    20    23    1
   116    20    19    1
   117   169   168    2
   118    25    24    2
   119   170   171    1
   120   170   167    1
   121   168   167    1
   122    23    24    1
   123    24    26   am
   124   127   129   ar
   125   136   137    1
   126   171   173    1
   127    12    19   am
   128    12    11    1
   129   156   155    1
   130   156   158    1
   131   167   166    1
   132   145   143   ar
   133   145   146   ar
   134   143   141   ar
   135   155   152    1
   136   165   164    1
   137   165   159    1
   138   137   138    1
   139   137   140    1
   140   164   163    1
   141   187   185    1
   142    11    14    1
   143    11    10    1
   144   146   144   ar
   145    14    15    1
   146   147   138   am
   147   147   148    1
   148   151   152    1
   149   151   149   am
   150   141   140    1
   151   141   142   ar
   152   163   160    1
   153   181   182    1
   154   138   139    2
   155   152   153    1
   156   159   153   am
   157   159   160    1
   158   148   149    1
   159    16    15    1
   160    16    17    1
   161   185   182    1
   162   185   186    1
   163   153   154    2
   164     4     3    2
   165   182   183    1
   166   160   161    1
   167   144   142   ar
   168   149   150    2
   169    17    18    1
   170     8     7   ar
   171     3     2    1
   172   183   184    2
   173   161   162    2
   174     2     5    1
   175     2     1    1
   176     7     9   ar
   177     7     6    1
   178     5     6    1
