@<TRIPOS>MOLECULE
tmp/4e03B00.pdb
 144 138 0 0 0
SMALL
GASTEIGER

@<TRIPOS>ATOM
      1  N         -2.7790  -31.9840    8.4940 N.3    11  GLY11      -0.1210
      2  CA        -2.6960  -33.2830    9.1330 C.3    11  GLY11       0.1956
      3  C         -2.0470  -34.2950    8.2090 C.2    11  GLY11       0.2612
      4  O         -2.2560  -34.2540    6.9950 O.2    11  GLY11      -0.2717
      5  N         -1.2450  -35.1950    8.7710 N.am   12  GLY12      -0.1942
      6  CA        -0.5940  -36.2060    7.9570 C.3    12  GLY12       0.2014
      7  C          0.6870  -35.7750    7.2670 C.2    12  GLY12       0.2640
      8  O          1.2270  -36.5210    6.4480 O.2    12  GLY12      -0.2714
      9  N          1.1730  -34.5770    7.5820 N.am   13  SER13      -0.1935
     10  CA         2.4110  -34.0780    6.9900 C.3    13  SER13       0.2055
     11  C          3.6310  -34.7840    7.5870 C.2    13  SER13       0.2644
     12  O          4.7670  -34.5150    7.2030 O.2    13  SER13      -0.2714
     13  CB         2.5170  -32.5650    7.1870 C.3    13  SER13       0.2130
     14  OG         2.1540  -32.2030    8.5060 O.3    13  SER13      -0.2179
     15  N          3.3920  -35.6860    8.5330 N.am   14  GLY14      -0.1939
     16  CA         4.4810  -36.4340    9.1370 C.3    14  GLY14       0.2014
     17  C          5.2740  -35.7560   10.2350 C.2    14  GLY14       0.2639
     18  O          6.4350  -36.1010   10.4550 O.2    14  GLY14      -0.2714
     19  N          4.6600  -34.8030   10.9270 N.am   15  LYS15      -0.1963
     20  CA         5.3210  -34.0910   12.0130 C.3    15  LYS15       0.1728
     21  C          5.7350  -35.0260   13.1380 C.2    15  LYS15       0.2617
     22  O          6.9010  -35.0530   13.5360 O.2    15  LYS15      -0.2715
     23  CB         4.4040  -33.0020   12.5790 C.3    15  LYS15       0.0311
     24  CG         4.1300  -31.8580   11.6080 C.3    15  LYS15       0.0038
     25  CD         3.2290  -30.7940   12.2280 C.3    15  LYS15       0.0206
     26  CE         1.8240  -31.3290   12.4950 C.3    15  LYS15       0.1093
     27  NZ         1.0930  -31.6460   11.2300 N.3    15  LYS15      -0.1314
     28  N          4.7810  -35.7970   13.6450 N.am   16  THR16      -0.1937
     29  CA         5.0600  -36.7150   14.7410 C.3    16  THR16       0.2028
     30  C          6.0960  -37.7650   14.3980 C.2    16  THR16       0.2642
     31  O          7.0340  -38.0020   15.1610 O.2    16  THR16      -0.2714
     32  CB         3.7710  -37.4060   15.2220 C.3    16  THR16       0.1808
     33  OG1        2.9610  -36.4490   15.9140 O.3    16  THR16      -0.2208
     34  CG2        4.0840  -38.5500   16.1830 C.3    16  THR16       0.0379
     35  N          5.9410  -38.3910   13.2470 N.am   17  THR17      -0.1950
     36  CA         6.8940  -39.4030   12.8490 C.3    17  THR17       0.1897
     37  C          8.2920  -38.8040   12.8640 C.2    17  THR17       0.2313
     38  O          9.2370  -39.4310   13.3320 O.2    17  THR17      -0.2863
     39  CB         6.5850  -39.9410   11.4410 C.3    17  THR17       0.1794
     40  OG1        5.2840  -40.5420   11.4430 O.3    17  THR17      -0.2208
     41  CG2        7.6240  -40.9820   11.0260 C.3    17  THR17       0.0378
     42  N         -0.9270  -38.0830   19.6730 N.3    43  SER43      -0.1217
     43  CA        -0.2680  -39.1920   18.9970 C.3    43  SER43       0.1889
     44  C          1.0920  -39.5430   19.6140 C.2    43  SER43       0.2288
     45  O          1.3780  -40.7070   19.8890 O.2    43  SER43      -0.2866
     46  CB        -0.1050  -38.8620   17.5120 C.3    43  SER43       0.2089
     47  OG        -1.3420  -38.4290   16.9620 O.3    43  SER43      -0.2183
     48  N          6.0570  -30.6970   19.1460 N.3    82  ASP82      -0.1239
     49  CA         5.3690  -31.4310   18.1030 C.3    82  ASP82       0.1674
     50  C          4.0950  -30.6400   17.8350 C.2    82  ASP82       0.2266
     51  O          3.1220  -30.7560   18.5730 O.2    82  ASP82      -0.2867
     52  CB         5.0250  -32.8500   18.5610 C.3    82  ASP82       0.1410
     53  CG         4.3540  -33.6610   17.4670 C.2    82  ASP82       0.3668
     54  OD1        3.8370  -34.7590   17.7630 O.co2  82  ASP82      -0.2456
     55  OD2        4.3470  -33.2010   16.3070 O.co2  82  ASP82      -0.2456
     56  N          8.7960  -34.8230    3.6350 N.3   138  THR138     -0.1203
     57  CA         8.4420  -36.0640    4.3130 C.3   138  THR138      0.1994
     58  C          7.5470  -36.9610    3.4700 C.2   138  THR138      0.2617
     59  O          6.9240  -36.5200    2.4970 O.2   138  THR138     -0.2717
     60  CB         7.6830  -35.8030    5.6230 C.3   138  THR138      0.1784
     61  OG1        6.4260  -35.1860    5.3250 O.3   138  THR138     -0.2211
     62  CG2        8.4880  -34.9020    6.5420 C.3   138  THR138      0.0376
     63  N          7.4770  -38.2250    3.8700 N.am  139  ARG139     -0.1979
     64  CA         6.6550  -39.2060    3.1790 C.3   139  ARG139      0.1597
     65  C          6.9400  -39.2290    1.6890 C.2   139  ARG139      0.2287
     66  O          6.0220  -39.2720    0.8760 O.2   139  ARG139     -0.2864
     67  CB         5.1740  -38.9090    3.3970 C.3   139  ARG139      0.0334
     68  CG         4.8120  -38.6490    4.8360 C.3   139  ARG139      0.0492
     69  CD         3.3190  -38.5690    4.9830 C.3   139  ARG139      0.2205
     70  NE         2.6960  -39.8610    4.7270 N.pl3 139  ARG139     -0.0865
     71  CZ         1.4240  -40.1310    4.9900 C.cat 139  ARG139      0.5346
     72  NH1        0.6440  -39.1920    5.5130 N.pl3 139  ARG139      0.1354
     73  NH2        0.9360  -41.3410    4.7520 N.pl3 139  ARG139      0.1354
     74  N         12.5520  -37.4330    4.3040 N.3   166  ILE166     -0.1231
     75  CA        12.1490  -38.6500    4.9940 C.3   166  ILE166      0.1692
     76  C         11.2840  -39.4210    4.0130 C.2   166  ILE166      0.2593
     77  O         10.2820  -38.9050    3.5140 O.2   166  ILE166     -0.2718
     78  CB        11.3570  -38.3450    6.2880 C.3   166  ILE166      0.0266
     79  CG1       12.2580  -37.5820    7.2700 C.3   166  ILE166      0.0019
     80  CG2       10.8690  -39.6480    6.9290 C.3   166  ILE166      0.0020
     81  CD1       11.5870  -37.1890    8.5790 C.3   166  ILE166      0.0001
     82  N         11.6920  -40.6520    3.7290 N.am  167  THR167     -0.1939
     83  CA        10.9960  -41.5090    2.7800 C.3   167  THR167      0.2028
     84  C          9.8120  -42.2640    3.3740 C.2   167  THR167      0.2642
     85  O          9.7790  -42.5510    4.5740 O.2   167  THR167     -0.2714
     86  CB        11.9760  -42.5300    2.1780 C.3   167  THR167      0.1808
     87  OG1       13.0750  -41.8300    1.5790 O.3   167  THR167     -0.2208
     88  CG2       11.2900  -43.3950    1.1220 C.3   167  THR167      0.0379
     89  N          8.8400  -42.5710    2.5180 N.am  168  GLN168     -0.1963
     90  CA         7.6490  -43.3180    2.8920 C.3   168  GLN168      0.1733
     91  C          8.0420  -44.7800    3.0610 C.2   168  GLN168      0.2616
     92  O          8.0500  -45.5400    2.0920 O.2   168  GLN168     -0.2715
     93  CB         6.5970  -43.1930    1.7890 C.3   168  GLN168      0.0408
     94  CG         5.4690  -42.2280    2.1010 C.3   168  GLN168      0.0908
     95  CD         4.3960  -42.8620    2.9670 C.2   168  GLN168      0.2608
     96  OE1        3.7560  -42.1930    3.7840 O.2   168  GLN168     -0.2717
     97  NE2        4.1860  -44.1570    2.7840 N.am  168  GLN168     -0.0878
     98  N          8.3810  -45.1710    4.2870 N.am  169  ARG169     -0.1963
     99  CA         8.7900  -46.5440    4.5680 C.3   169  ARG169      0.1729
    100  C          7.8590  -47.1590    5.5970 C.2   169  ARG169      0.2616
    101  O          7.5190  -46.5170    6.5970 O.2   169  ARG169     -0.2715
    102  CB        10.2210  -46.5780    5.1180 C.3   169  ARG169      0.0348
    103  CG        11.2390  -45.7990    4.2960 C.3   169  ARG169      0.0492
    104  CD        12.5220  -45.5580    5.0910 C.3   169  ARG169      0.2205
    105  NE        13.5080  -44.7940    4.3320 N.pl3 169  ARG169     -0.0865
    106  CZ        14.2080  -45.2840    3.3170 C.cat 169  ARG169      0.5346
    107  NH1       14.0320  -46.5450    2.9440 N.pl3 169  ARG169      0.1354
    108  NH2       15.0730  -44.5100    2.6700 N.pl3 169  ARG169      0.1354
    109  N          7.4510  -48.4030    5.3630 N.am  170  GLN170     -0.1977
    110  CA         6.5780  -49.0800    6.3080 C.3   170  GLN170      0.1601
    111  C          7.1820  -49.0650    7.7130 C.2   170  GLN170      0.2287
    112  O          6.4620  -48.9440    8.7050 O.2   170  GLN170     -0.2864
    113  CB         6.3150  -50.5200    5.8700 C.3   170  GLN170      0.0394
    114  CG         4.9840  -50.6890    5.1690 C.3   170  GLN170      0.0908
    115  CD         3.8200  -50.2690    6.0500 C.2   170  GLN170      0.2608
    116  OE1        3.6250  -50.8100    7.1410 O.2   170  GLN170     -0.2717
    117  NE2        3.0400  -49.3000    5.5810 N.am  170  GLN170     -0.0878
    118  N          8.4760  -46.8080    9.3660 N.3   172  TYR172     -0.1227
    119  CA         8.0560  -45.6450   10.1530 C.3   172  TYR172      0.1736
    120  C          6.7160  -45.8970   10.8270 C.2   172  TYR172      0.2595
    121  O          6.4530  -45.3930   11.9200 O.2   172  TYR172     -0.2718
    122  CB         7.9700  -44.3910    9.2800 C.3   172  TYR172      0.0548
    123  CG         9.3300  -43.8120    8.9560 C.ar  172  TYR172     -0.0200
    124  CD1        9.8440  -43.8570    7.6610 C.ar  172  TYR172     -0.0009
    125  CD2       10.1290  -43.2710    9.9640 C.ar  172  TYR172     -0.0009
    126  CE1       11.1190  -43.3840    7.3740 C.ar  172  TYR172      0.0417
    127  CE2       11.4110  -42.8000    9.6900 C.ar  172  TYR172      0.0417
    128  CZ        11.8990  -42.8580    8.3930 C.ar  172  TYR172      0.1957
    129  OH        13.1630  -42.3890    8.1240 O.3   172  TYR172     -0.2866
    130  N          5.8730  -46.6900   10.1730 N.am  173  VAL173     -0.1980
    131  CA         4.5620  -47.0290   10.7100 C.3   173  VAL173      0.1595
    132  C          4.6890  -48.0520   11.8430 C.2   173  VAL173      0.2287
    133  O          4.2420  -47.8080   12.9660 O.2   173  VAL173     -0.2864
    134  CB         3.6620  -47.6200    9.6170 C.3   173  VAL173      0.0276
    135  CG1        2.2660  -47.8550   10.1680 C.3   173  VAL173      0.0022
    136  CG2        3.6260  -46.6820    8.4200 C.3   173  VAL173      0.0022
    137  N          6.2100  -46.6360   15.2430 N.3   176  ILE176     -0.1245
    138  CA         5.2790  -45.9130   16.1040 C.3   176  ILE176      0.1561
    139  C          4.3360  -46.8860   16.7970 C.2   176  ILE176      0.2260
    140  O          4.2320  -46.8980   18.0250 O.2   176  ILE176     -0.2867
    141  CB         4.4220  -44.9000   15.3180 C.3   176  ILE176      0.0252
    142  CG1        5.3140  -43.9920   14.4670 C.3   176  ILE176      0.0019
    143  CG2        3.6110  -44.0600   16.2830 C.3   176  ILE176      0.0019
    144  CD1        6.3200  -43.1920   15.2470 C.3   176  ILE176      0.0001
@<TRIPOS>BOND
     1    66    65    2
     2    88    86    1
     3    87    86    1
     4    65    64    1
     5    93    94    1
     6    93    90    1
     7    92    91    2
     8    94    95    1
     9    86    83    1
    10    59    58    2
    11    89    90    1
    12    89    84   am
    13   108   106    1
    14    83    84    1
    15    83    82    1
    16    97    95   am
    17    90    91    1
    18   107   106    1
    19    95    96    2
    20    91    98   am
    21    64    67    1
    22    64    63    1
    23   106   105    2
    24    84    85    2
    25    67    68    1
    26    58    63   am
    27    58    57    1
    28    77    76    2
    29    56    57    1
    30    82    76   am
    31    76    75    1
    32    98    99    1
    33   103   104    1
    34   103   102    1
    35    74    75    1
    36    57    60    1
    37   105   104    1
    38    99   102    1
    39    99   100    1
    40    70    69    1
    41    70    71    2
    42    73    71    1
    43    68    69    1
    44    71    72    1
    45    75    78    1
    46   114   113    1
    47   114   115    1
    48    61    60    1
    49   109   100   am
    50   109   110    1
    51   117   115   am
    52   100   101    2
    53    60    62    1
    54   113   110    1
    55   115   116    2
    56    78    80    1
    57    78    79    1
    58   110   111    1
    59     8     7    2
    60    10    13    1
    61    10     9    1
    62    10    11    1
    63     4     3    2
    64    13    14    1
    65    12    11    2
    66     7     9   am
    67     7     6    1
    68    79    81    1
    69   126   124   ar
    70   126   128   ar
    71    11    15   am
    72   124   123   ar
    73   111   112    2
    74     6     5    1
    75   129   128    1
    76     3     5   am
    77     3     2    1
    78   128   127   ar
    79   136   134    1
    80     1     2    1
    81    15    16    1
    82   123   122    1
    83   123   125   ar
    84    16    17    1
    85   122   119    1
    86   118   119    1
    87   134   135    1
    88   134   131    1
    89   127   125   ar
    90   119   120    1
    91   130   131    1
    92   130   120   am
    93    17    18    2
    94    17    19   am
    95   131   132    1
    96   120   121    2
    97    19    20    1
    98    41    39    1
    99    27    26    1
   100    39    40    1
   101    39    36    1
   102    24    25    1
   103    24    23    1
   104   132   133    2
   105    20    23    1
   106    20    21    1
   107    25    26    1
   108    36    37    1
   109    36    35    1
   110    37    38    2
   111    21    22    2
   112    21    28   am
   113    35    30   am
   114    28    29    1
   115    30    29    1
   116    30    31    2
   117   142   144    1
   118   142   141    1
   119    29    32    1
   120    32    33    1
   121    32    34    1
   122   137   138    1
   123   141   138    1
   124   141   143    1
   125   138   139    1
   126    55    53   ar
   127   139   140    2
   128    47    46    1
   129    53    54   ar
   130    53    52    1
   131    46    43    1
   132    50    49    1
   133    50    51    2
   134    49    52    1
   135    49    48    1
   136    43    44    1
   137    43    42    1
   138    44    45    2
