@<TRIPOS>MOLECULE
tmp/4e07B01.pdb
 151 143 0 0 0
SMALL
GASTEIGER

@<TRIPOS>ATOM
      1  N        -11.6360   29.4390  -11.2740 N.3    11  GLY11      -0.1210
      2  CA       -11.2600   29.7890   -9.9180 C.3    11  GLY11       0.1956
      3  C        -12.4240   29.7460   -8.9330 C.2    11  GLY11       0.2612
      4  O        -13.6040   29.8430   -9.3170 O.2    11  GLY11      -0.2717
      5  N        -12.0790   29.6080   -7.6520 N.am   12  GLY12      -0.1942
      6  CA       -13.0680   29.5400   -6.5900 C.3    12  GLY12       0.2014
      7  C        -13.8670   28.2480   -6.6190 C.2    12  GLY12       0.2640
      8  O        -14.9060   28.1320   -5.9600 O.2    12  GLY12      -0.2714
      9  N        -13.3710   27.2740   -7.3820 N.am   13  SER13      -0.1935
     10  CA       -14.0160   25.9730   -7.5410 C.3    13  SER13       0.2055
     11  C        -13.9550   25.1450   -6.2680 C.2    13  SER13       0.2644
     12  O        -14.8490   24.3410   -5.9860 O.2    13  SER13      -0.2714
     13  CB       -13.3310   25.2320   -8.6680 C.3    13  SER13       0.2130
     14  OG       -13.1670   26.1330   -9.7410 O.3    13  SER13      -0.2179
     15  N        -12.8970   25.3480   -5.4910 N.am   14  GLY14      -0.1939
     16  CA       -12.7520   24.5950   -4.2550 C.3    14  GLY14       0.2014
     17  C        -11.6760   23.5120   -4.2820 C.2    14  GLY14       0.2639
     18  O        -11.7610   22.5060   -3.5610 O.2    14  GLY14      -0.2714
     19  N        -10.6570   23.7330   -5.1120 N.am   15  LYS15      -0.1963
     20  CA        -9.5420   22.8100   -5.2560 C.3    15  LYS15       0.1728
     21  C         -8.6910   22.7100   -3.9970 C.2    15  LYS15       0.2617
     22  O         -8.5830   21.6390   -3.4030 O.2    15  LYS15      -0.2715
     23  CB        -8.6510   23.2220   -6.4420 C.3    15  LYS15       0.0311
     24  CG        -9.2910   23.0380   -7.8130 C.3    15  LYS15       0.0038
     25  CD        -8.4240   23.6150   -8.9030 C.3    15  LYS15       0.0206
     26  CE        -8.4060   25.1310   -8.8210 C.3    15  LYS15       0.1093
     27  NZ        -7.6460   25.7450   -9.9520 N.3    15  LYS15      -0.1314
     28  N         -8.1090   23.8280   -3.5800 N.am   16  THR16      -0.1937
     29  CA        -7.2290   23.8350   -2.4290 C.3    16  THR16       0.2028
     30  C         -7.9170   23.3130   -1.1920 C.2    16  THR16       0.2642
     31  O         -7.4840   22.3060   -0.6110 O.2    16  THR16      -0.2714
     32  CB        -6.6940   25.2520   -2.1640 C.3    16  THR16       0.1808
     33  OG1       -5.9650   25.6820   -3.3110 O.3    16  THR16      -0.2208
     34  CG2       -5.7630   25.2770   -0.9430 C.3    16  THR16       0.0379
     35  N         -8.9880   24.0020   -0.8010 N.am   17  THR17      -0.1950
     36  CA        -9.7520   23.6430    0.3880 C.3    17  THR17       0.1897
     37  C        -10.0590   22.1550    0.4250 C.2    17  THR17       0.2313
     38  O         -9.8170   21.4880    1.4460 O.2    17  THR17      -0.2863
     39  CB       -11.0640   24.4600    0.4790 C.3    17  THR17       0.1794
     40  OG1      -10.7580   25.7820    0.9270 O.3    17  THR17      -0.2208
     41  CG2      -12.0510   23.8170    1.4360 C.3    17  THR17       0.0378
     42  N         -0.0560   25.6610   -8.0920 N.3    39  ASP39      -0.1239
     43  CA        -0.6140   26.9760   -8.3740 C.3    39  ASP39       0.1674
     44  C          0.4630   28.0570   -8.2420 C.2    39  ASP39       0.2266
     45  O          1.2260   28.0730   -7.2700 O.2    39  ASP39      -0.2867
     46  CB        -1.7780   27.2880   -7.4210 C.3    39  ASP39       0.1410
     47  CG        -2.6540   28.4360   -7.9190 C.2    39  ASP39       0.3668
     48  OD1       -2.0970   29.4630   -8.3660 O.co2  39  ASP39      -0.2456
     49  OD2       -3.9010   28.3140   -7.8570 O.co2  39  ASP39      -0.2456
     50  N         -1.0100   29.0900   -2.8760 N.3    43  SER43      -0.1217
     51  CA        -1.9900   29.2150   -1.8140 C.3    43  SER43       0.1889
     52  C         -1.8230   28.1200   -0.7560 C.2    43  SER43       0.2288
     53  O         -1.6780   28.4030    0.4460 O.2    43  SER43      -0.2866
     54  CB        -3.3990   29.1620   -2.4070 C.3    43  SER43       0.2089
     55  OG        -3.6310   30.2710   -3.2610 O.3    43  SER43      -0.2183
     56  N         -2.7660   19.8470   -6.1180 N.3    82  ASP82      -0.1225
     57  CA        -3.6230   21.0280   -6.0750 C.3    82  ASP82       0.1805
     58  C         -3.5060   21.7280   -7.4290 C.2    82  ASP82       0.2598
     59  O         -2.5200   22.4130   -7.6900 O.2    82  ASP82      -0.2718
     60  CB        -3.1660   21.9740   -4.9590 C.3    82  ASP82       0.1424
     61  CG        -4.1970   23.0580   -4.6470 C.2    82  ASP82       0.3668
     62  OD1       -3.8750   24.0130   -3.8990 O.co2  82  ASP82      -0.2456
     63  OD2       -5.3360   22.9480   -5.1460 O.co2  82  ASP82      -0.2456
     64  N         -4.5080   21.5540   -8.2870 N.am   83  GLY83      -0.1957
     65  CA        -4.4770   22.1550   -9.6130 C.3    83  GLY83       0.1869
     66  C         -4.1500   23.6360   -9.6780 C.2    83  GLY83       0.2309
     67  O         -4.4340   24.3950   -8.7500 O.2    83  GLY83      -0.2863
     68  N         -4.0210   27.4570  -12.0720 N.3    85  GLY85      -0.1225
     69  CA        -5.0350   28.3830  -12.5520 C.3    85  GLY85       0.1811
     70  C         -5.7290   27.9700  -13.8320 C.2    85  GLY85       0.2280
     71  O         -6.6060   27.1120  -13.8000 O.2    85  GLY85      -0.2866
     72  N        -18.7980   20.8580   -4.9040 N.3   138  THR138     -0.1203
     73  CA       -18.3150   21.5530   -3.7110 C.3   138  THR138      0.1994
     74  C        -19.0280   22.8820   -3.5130 C.2   138  THR138      0.2617
     75  O        -19.6510   23.4090   -4.4340 O.2   138  THR138     -0.2717
     76  CB       -16.8110   21.8390   -3.8160 C.3   138  THR138      0.1784
     77  OG1      -16.1520   20.7040   -4.3950 O.3   138  THR138     -0.2211
     78  CG2      -16.2270   22.1400   -2.4160 C.3   138  THR138      0.0376
     79  N        -18.9140   23.4370   -2.3120 N.am  139  ARG139     -0.1979
     80  CA       -19.5650   24.7000   -2.0080 C.3   139  ARG139      0.1597
     81  C        -21.0520   24.5300   -2.2900 C.2   139  ARG139      0.2287
     82  O        -21.7610   25.4870   -2.6060 O.2   139  ARG139     -0.2864
     83  CB       -18.9810   25.8230   -2.8680 C.3   139  ARG139      0.0334
     84  CG       -17.5930   26.2610   -2.4530 C.3   139  ARG139      0.0492
     85  CD       -16.9470   27.1320   -3.5410 C.3   139  ARG139      0.2205
     86  NE       -16.5860   28.4800   -3.1020 N.pl3 139  ARG139     -0.0865
     87  CZ       -17.4480   29.3570   -2.6060 C.cat 139  ARG139      0.5346
     88  NH1      -18.7330   29.0300   -2.4860 N.pl3 139  ARG139      0.1354
     89  NH2      -17.0150   30.5530   -2.2120 N.pl3 139  ARG139      0.1354
     90  N        -19.1950   18.1370   -0.9730 N.3   166  ILE166     -0.1231
     91  CA       -18.7710   19.0060    0.1130 C.3   166  ILE166      0.1692
     92  C        -19.7580   20.1700    0.2400 C.2   166  ILE166      0.2593
     93  O        -19.9770   20.9360   -0.7020 O.2   166  ILE166     -0.2718
     94  CB       -17.3670   19.5790   -0.1270 C.3   166  ILE166      0.0266
     95  CG1      -16.4230   18.5070   -0.6670 C.3   166  ILE166      0.0019
     96  CG2      -16.8130   20.0990    1.1680 C.3   166  ILE166      0.0020
     97  CD1      -15.1750   19.0830   -1.3320 C.3   166  ILE166      0.0001
     98  N        -20.3660   20.2830    1.4110 N.am  167  THR167     -0.1939
     99  CA       -21.3370   21.3370    1.6850 C.3   167  THR167      0.2028
    100  C        -20.6400   22.6780    1.9420 C.2   167  THR167      0.2642
    101  O        -19.4880   22.7190    2.3800 O.2   167  THR167     -0.2714
    102  CB       -22.1760   20.9860    2.9420 C.3   167  THR167      0.1808
    103  OG1      -22.6100   19.6240    2.8580 O.3   167  THR167     -0.2208
    104  CG2      -23.4040   21.8850    3.0550 C.3   167  THR167      0.0379
    105  N        -21.3410   23.7740    1.6730 N.am  168  GLN168     -0.1963
    106  CA       -20.7840   25.0970    1.9220 C.3   168  GLN168      0.1733
    107  C        -20.9670   25.3690    3.4130 C.2   168  GLN168      0.2616
    108  O        -22.0790   25.6250    3.8670 O.2   168  GLN168     -0.2715
    109  CB       -21.5210   26.1500    1.1030 C.3   168  GLN168      0.0408
    110  CG       -21.0720   27.5770    1.3630 C.3   168  GLN168      0.0908
    111  CD       -21.7860   28.5930    0.4520 C.2   168  GLN168      0.2608
    112  OE1      -21.3690   28.8380   -0.6950 O.2   168  GLN168     -0.2717
    113  NE2      -22.8750   29.1770    0.9590 N.am  168  GLN168     -0.0878
    114  N        -19.8730   25.2830    4.1680 N.am  169  ARG169     -0.1977
    115  CA       -19.8800   25.4870    5.6200 C.3   169  ARG169      0.1597
    116  C        -18.8070   26.5070    6.0240 C.2   169  ARG169      0.2287
    117  O        -17.6380   26.3890    5.6440 O.2   169  ARG169     -0.2864
    118  CB       -19.6220   24.1520    6.3480 C.3   169  ARG169      0.0334
    119  CG       -20.5880   23.0320    5.9810 C.3   169  ARG169      0.0492
    120  CD       -20.0780   21.6900    6.4450 C.3   169  ARG169      0.2205
    121  NE       -20.9330   20.5800    6.0160 N.pl3 169  ARG169     -0.0865
    122  CZ       -22.1080   20.2630    6.5600 C.cat 169  ARG169      0.5346
    123  NH1      -22.5890   20.9750    7.5720 N.pl3 169  ARG169      0.1354
    124  NH2      -22.8010   19.2240    6.0940 N.pl3 169  ARG169      0.1354
    125  N        -15.2880   25.7400    6.9140 N.3   172  TYR172     -0.1227
    126  CA       -14.2780   25.4900    5.8970 C.3   172  TYR172      0.1736
    127  C        -13.4450   26.7190    5.6370 C.2   172  TYR172      0.2595
    128  O        -12.2910   26.6160    5.2320 O.2   172  TYR172     -0.2718
    129  CB       -14.9200   25.0340    4.5990 C.3   172  TYR172      0.0548
    130  CG       -15.3350   23.5830    4.6090 C.ar  172  TYR172     -0.0200
    131  CD1      -16.6740   23.2170    4.4350 C.ar  172  TYR172     -0.0009
    132  CD2      -14.3870   22.5700    4.7920 C.ar  172  TYR172     -0.0009
    133  CE1      -17.0580   21.8760    4.4420 C.ar  172  TYR172      0.0417
    134  CE2      -14.7590   21.2210    4.8010 C.ar  172  TYR172      0.0417
    135  CZ       -16.0950   20.8860    4.6270 C.ar  172  TYR172      0.1957
    136  OH       -16.4720   19.5680    4.6460 O.3   172  TYR172     -0.2866
    137  N        -14.0350   27.8830    5.8740 N.am  173  VAL173     -0.1980
    138  CA       -13.3480   29.1460    5.6720 C.3   173  VAL173      0.1595
    139  C        -12.5400   29.5050    6.9050 C.2   173  VAL173      0.2287
    140  O        -11.3650   29.8420    6.8000 O.2   173  VAL173     -0.2864
    141  CB       -14.3450   30.2660    5.3880 C.3   173  VAL173      0.0276
    142  CG1      -13.6020   31.5850    5.1380 C.3   173  VAL173      0.0022
    143  CG2      -15.1970   29.8830    4.1770 C.3   173  VAL173      0.0022
    144  N         -9.3380   26.9490    7.5040 N.3   176  ILE176     -0.1245
    145  CA        -8.2110   27.2750    6.6420 C.3   176  ILE176      0.1561
    146  C         -7.6390   28.6370    6.9900 C.2   176  ILE176      0.2260
    147  O         -6.4490   28.8810    6.7900 O.2   176  ILE176     -0.2867
    148  CB        -8.6190   27.2380    5.1340 C.3   176  ILE176      0.0252
    149  CG1       -8.6100   25.7870    4.6160 C.3   176  ILE176      0.0019
    150  CG2       -7.6680   28.0910    4.2980 C.3   176  ILE176      0.0019
    151  CD1       -9.7640   24.8630    5.1420 C.3   176  ILE176      0.0001
@<TRIPOS>BOND
     1    70    71    2
     2    70    69    1
     3    69    68    1
     4     1     2    1
     5    27    26    1
     6     2     3    1
     7    14    13    1
     8    66    65    1
     9    66    67    2
    10    65    64    1
    11     4     3    2
    12     3     5   am
    13    25    26    1
    14    25    24    1
    15    13    10    1
    16    43    44    1
    17    43    42    1
    18    43    46    1
    19    48    47   ar
    20    64    58   am
    21    44    45    2
    22    47    49   ar
    23    47    46    1
    24    24    23    1
    25    59    58    2
    26     5     6    1
    27    10     9    1
    28    10    11    1
    29    58    57    1
    30     9     7   am
    31     7     6    1
    32     7     8    2
    33    23    20    1
    34    11    12    2
    35    11    15   am
    36    56    57    1
    37    57    60    1
    38    15    16    1
    39    20    19    1
    40    20    21    1
    41    63    61   ar
    42    19    17   am
    43    60    61    1
    44    72    73    1
    45    61    62   ar
    46    75    74    2
    47    77    76    1
    48    17    16    1
    49    17    18    2
    50    21    28   am
    51    21    22    2
    52    76    73    1
    53    76    78    1
    54    73    74    1
    55    28    29    1
    56    85    86    1
    57    85    84    1
    58    74    79   am
    59    33    32    1
    60    55    54    1
    61    86    87    2
    62    50    51    1
    63    83    84    1
    64    83    80    1
    65    87    88    1
    66    87    89    1
    67    82    81    2
    68    29    32    1
    69    29    30    1
    70    54    51    1
    71    79    80    1
    72    81    80    1
    73    32    34    1
    74    51    52    1
    75    97    95    1
    76    30    35   am
    77    30    31    2
    78    90    91    1
    79    35    36    1
    80    52    53    2
    81    93    92    2
    82   112   111    2
    83    95    94    1
    84    94    91    1
    85    94    96    1
    86    91    92    1
    87    92    98   am
    88    36    37    1
    89    36    39    1
    90    37    38    2
    91   111   113   am
    92   111   110    1
    93    39    40    1
    94    39    41    1
    95   109   110    1
    96   109   106    1
    97    98    99    1
    98   105   106    1
    99   105   100   am
   100    99   100    1
   101    99   102    1
   102   106   107    1
   103   100   101    2
   104   103   102    1
   105   102   104    1
   106   107   108    2
   107   107   114   am
   108   114   115    1
   109   143   141    1
   110   150   148    1
   111   131   133   ar
   112   131   130   ar
   113   133   135   ar
   114   129   130    1
   115   129   126    1
   116   130   132   ar
   117   149   148    1
   118   149   151    1
   119   135   136    1
   120   135   134   ar
   121   132   134   ar
   122   148   145    1
   123   142   141    1
   124   128   127    2
   125   141   138    1
   126   115   116    1
   127   115   118    1
   128   127   137   am
   129   127   126    1
   130   117   116    2
   131   138   137    1
   132   138   139    1
   133   126   125    1
   134   119   118    1
   135   119   120    1
   136   121   120    1
   137   121   122    2
   138   124   122    1
   139   122   123    1
   140   145   146    1
   141   145   144    1
   142   147   146    2
   143   140   139    2
