@<TRIPOS>MOLECULE
tmp/4e0dA03.pdb
 125 119 0 0 0
SMALL
GASTEIGER

@<TRIPOS>ATOM
      1  N         -9.9880    6.7200   22.7820 N.3   357  ASP357     -0.1239
      2  CA        -9.8320    5.5550   21.9170 C.3   357  ASP357      0.1674
      3  C         -8.5590    5.6400   21.0730 C.2   357  ASP357      0.2266
      4  O         -8.2080    6.7140   20.5900 O.2   357  ASP357     -0.2867
      5  CB       -11.0630    5.3990   20.9780 C.3   357  ASP357      0.1410
      6  CG       -11.1740    6.5130   19.9510 C.2   357  ASP357      0.3668
      7  OD1      -11.5220    7.6460   20.3110 O.co2 357  ASP357     -0.2456
      8  OD2      -10.8920    6.2670   18.7420 O.co2 357  ASP357     -0.2456
      9  N         -6.5740    5.3260   17.7440 N.3   359  SER359     -0.1202
     10  CA        -6.8080    5.4160   16.3220 C.3   359  SER359      0.2020
     11  C         -5.9760    4.3540   15.5940 C.2   359  SER359      0.2618
     12  O         -4.7490    4.4000   15.6050 O.2   359  SER359     -0.2717
     13  CB        -6.4040    6.8110   15.8470 C.3   359  SER359      0.2103
     14  OG        -6.7070    6.9630   14.4710 O.3   359  SER359     -0.2182
     15  N         -6.6660    3.3790   15.0180 N.am  360  GLN360     -0.1979
     16  CA        -6.0400    2.3190   14.2260 C.3   360  GLN360      0.1601
     17  C         -4.9140    1.5940   14.9450 C.2   360  GLN360      0.2287
     18  O         -3.8450    1.3660   14.3920 O.2   360  GLN360     -0.2864
     19  CB        -5.5670    2.8870   12.8750 C.3   360  GLN360      0.0394
     20  CG        -6.7070    3.5230   12.0740 C.3   360  GLN360      0.0908
     21  CD        -7.6900    2.5000   11.5640 C.2   360  GLN360      0.2608
     22  OE1       -7.3320    1.3450   11.3310 O.2   360  GLN360     -0.2717
     23  NE2       -8.9310    2.9240   11.3600 N.am  360  GLN360     -0.0878
     24  N         -1.4780   -0.0350   13.2090 N.3   364  ARG364     -0.1245
     25  CA        -0.2070    0.4750   13.7260 C.3   364  ARG364      0.1563
     26  C          0.6900   -0.6220   14.2860 C.2   364  ARG364      0.2260
     27  O          1.9090   -0.6650   14.0010 O.2   364  ARG364     -0.2867
     28  CB        -0.4500    1.6050   14.7310 C.3   364  ARG364      0.0307
     29  CG        -1.0210    2.8780   14.1010 C.3   364  ARG364      0.0489
     30  CD        -1.4560    3.8680   15.2100 C.3   364  ARG364      0.2205
     31  NE        -2.0930    5.0460   14.6290 N.pl3 364  ARG364     -0.0865
     32  CZ        -1.4730    6.1920   14.3670 C.cat 364  ARG364      0.5346
     33  NH1       -0.1760    6.3480   14.6240 N.pl3 364  ARG364      0.1354
     34  NH2       -2.1360    7.1810   13.8090 N.pl3 364  ARG364      0.1354
     35  N          1.6020    5.9040    8.7590 N.3   379  PHE379     -0.1241
     36  CA         1.2510    6.2410   10.1200 C.3   379  PHE379      0.1605
     37  C          2.1660    7.3430   10.6690 C.2   379  PHE379      0.2264
     38  O          1.7190    8.1730   11.4380 O.2   379  PHE379     -0.2867
     39  CB         1.2220    4.9940   11.0160 C.3   379  PHE379      0.0534
     40  CG        -0.0230    4.1580   10.8250 C.ar  379  PHE379     -0.0203
     41  CD1        0.0600    2.8620   10.3910 C.ar  379  PHE379     -0.0042
     42  CD2       -1.2880    4.7160   10.9890 C.ar  379  PHE379     -0.0042
     43  CE1       -1.0700    2.0930   10.1900 C.ar  379  PHE379     -0.0003
     44  CE2       -2.4410    3.9040   10.7870 C.ar  379  PHE379     -0.0003
     45  CZ        -2.3090    2.6180   10.3750 C.ar  379  PHE379     -0.0000
     46  N          0.5000   10.3130    9.7570 N.3   382  ASP382     -0.1225
     47  CA        -0.8590   10.2690   10.2970 C.3   382  ASP382      0.1805
     48  C         -1.9090   10.3820    9.1980 C.2   382  ASP382      0.2598
     49  O         -2.8920   11.1400    9.2930 O.2   382  ASP382     -0.2718
     50  CB        -1.0770   11.3470   11.3590 C.3   382  ASP382      0.1424
     51  CG        -2.3480   11.1480   12.1590 C.2   382  ASP382      0.3668
     52  OD1       -2.8060    9.9910   12.3380 O.co2 382  ASP382     -0.2456
     53  OD2       -2.8770   12.1840   12.6500 O.co2 382  ASP382     -0.2456
     54  N         -1.6990    9.6180    8.1360 N.am  383  LEU383     -0.1966
     55  CA        -2.6350    9.6130    7.0300 C.3   383  LEU383      0.1728
     56  C         -3.9500    8.9410    7.4110 C.2   383  LEU383      0.2616
     57  O         -3.9870    8.0900    8.2910 O.2   383  LEU383     -0.2715
     58  CB        -2.0540    8.8600    5.8390 C.3   383  LEU383      0.0311
     59  CG        -0.7770    9.4140    5.1740 C.3   383  LEU383      0.0022
     60  CD1       -0.3980    8.5580    3.9670 C.3   383  LEU383      0.0001
     61  CD2       -0.9540   10.8460    4.7760 C.3   383  LEU383      0.0001
     62  N         -5.0130    9.3090    6.7100 N.am  384  ASP384     -0.1957
     63  CA        -6.2110    8.4960    6.6850 C.3   384  ASP384      0.1840
     64  C         -5.8420    7.1860    5.9820 C.2   384  ASP384      0.2622
     65  O         -5.5100    7.1590    4.7890 O.2   384  ASP384     -0.2715
     66  CB        -7.3160    9.2060    5.9090 C.3   384  ASP384      0.1450
     67  CG        -8.6130    8.4070    5.8760 C.2   384  ASP384      0.3671
     68  OD1       -8.5730    7.1890    5.6280 O.co2 384  ASP384     -0.2456
     69  OD2       -9.6850    9.0040    6.1160 O.co2 384  ASP384     -0.2456
     70  N         -5.8240    6.1090    6.7610 N.am  385  ILE385     -0.1963
     71  CA        -5.2510    4.8490    6.3020 C.3   385  ILE385      0.1727
     72  C         -6.1340    4.1970    5.2490 C.2   385  ILE385      0.2616
     73  O         -5.6370    3.4630    4.3920 O.2   385  ILE385     -0.2715
     74  CB        -4.9600    3.8820    7.4910 C.3   385  ILE385      0.0290
     75  CG1       -4.0370    2.7390    7.0620 C.3   385  ILE385      0.0022
     76  CG2       -6.2500    3.3430    8.1050 C.3   385  ILE385      0.0023
     77  CD1       -2.7510    3.1950    6.3470 C.3   385  ILE385      0.0001
     78  N         -7.4400    4.4530    5.2770 N.am  386  HIS386     -0.1973
     79  CA        -8.2810    3.8300    4.2570 C.3   386  HIS386      0.1656
     80  C         -8.1230    4.5380    2.9150 C.2   386  HIS386      0.2291
     81  O         -8.0390    3.9000    1.8700 O.2   386  HIS386     -0.2864
     82  CB        -9.7500    3.7960    4.6800 C.3   386  HIS386      0.0771
     83  CG        -9.9480    3.2080    6.0400 C.ar  386  HIS386      0.0820
     84  ND1       -9.4190    1.9930    6.4040 N.ar  386  HIS386     -0.2267
     85  CD2      -10.5670    3.7000    7.1370 C.ar  386  HIS386      0.1154
     86  CE1       -9.7040    1.7590    7.6730 C.ar  386  HIS386      0.1986
     87  NE2      -10.4190    2.7660    8.1320 N.ar  386  HIS386     -0.2212
     88  N        -12.6610    4.1720   -1.4420 N.3   406  ARG406     -0.1245
     89  CA       -12.2660    4.1690   -0.0440 C.3   406  ARG406      0.1563
     90  C        -12.9750    3.0670    0.7190 C.2   406  ARG406      0.2260
     91  O        -12.3670    2.3940    1.5480 O.2   406  ARG406     -0.2867
     92  CB       -12.5280    5.5060    0.6230 C.3   406  ARG406      0.0307
     93  CG       -11.9350    5.5900    2.0150 C.3   406  ARG406      0.0489
     94  CD       -12.2950    6.9020    2.6700 C.3   406  ARG406      0.2205
     95  NE       -11.7140    7.1180    4.0060 N.pl3 406  ARG406     -0.0865
     96  CZ       -12.2710    6.7200    5.1530 C.cat 406  ARG406      0.5346
     97  NH1      -13.4050    6.0280    5.1500 N.pl3 406  ARG406      0.1354
     98  NH2      -11.6820    6.9960    6.3130 N.pl3 406  ARG406      0.1354
     99  N         -1.6560    6.8900   18.5990 N.3   567  LYS567     -0.1245
    100  CA        -2.4680    8.0980   18.5760 C.3   567  LYS567      0.1561
    101  C         -3.7990    7.8080   19.2550 C.2   567  LYS567      0.2260
    102  O         -4.4500    6.7910   18.9700 O.2   567  LYS567     -0.2867
    103  CB        -2.7150    8.5600   17.1440 C.3   567  LYS567      0.0271
    104  CG        -3.6080    9.7740   17.0820 C.3   567  LYS567      0.0035
    105  CD        -3.7370   10.2940   15.6780 C.3   567  LYS567      0.0206
    106  CE        -4.6280   11.5120   15.6080 C.3   567  LYS567      0.1093
    107  NZ        -5.1770   11.6480   14.2350 N.3   567  LYS567     -0.1314
    108  N         -7.5470    9.5160   20.4320 N.3   569  ASP569     -0.1239
    109  CA        -8.5840   10.5450   20.3460 C.3   569  ASP569      0.1674
    110  C         -9.4270   10.4980   21.6080 C.2   569  ASP569      0.2266
    111  O         -9.4460    9.4900   22.3040 O.2   569  ASP569     -0.2867
    112  CB        -9.4420   10.2960   19.1250 C.3   569  ASP569      0.1410
    113  CG        -8.6610   10.4740   17.8300 C.2   569  ASP569      0.3668
    114  OD1       -8.9590    9.7490   16.8670 O.co2 569  ASP569     -0.2456
    115  OD2       -7.7640   11.3410   17.7870 O.co2 569  ASP569     -0.2456
    116  N        -12.9730   12.4630   23.9510 N.3   571  HIS571     -0.1241
    117  CA       -14.1390   13.3150   23.9930 C.3   571  HIS571      0.1621
    118  C        -14.7580   13.1700   25.3630 C.2   571  HIS571      0.2264
    119  O        -14.5480   12.1640   26.0480 O.2   571  HIS571     -0.2867
    120  CB       -15.1910   12.8410   22.9880 C.3   571  HIS571      0.0745
    121  CG       -14.6560   12.6080   21.6090 C.ar  571  HIS571      0.0817
    122  ND1      -14.5910   13.6020   20.6580 N.ar  571  HIS571     -0.2268
    123  CD2      -14.1440   11.4940   21.0290 C.ar  571  HIS571      0.1154
    124  CE1      -14.0610   13.1100   19.5510 C.ar  571  HIS571      0.1986
    125  NE2      -13.7830   11.8330   19.7510 N.ar  571  HIS571     -0.2212
@<TRIPOS>BOND
     1    88    89    1
     2    89    92    1
     3    89    90    1
     4    92    93    1
     5    90    91    2
     6    81    80    2
     7    93    94    1
     8    94    95    1
     9    80    79    1
    10    60    59    1
    11    95    96    2
    12    79    82    1
    13    79    78    1
    14    73    72    2
    15    82    83    1
    16    61    59    1
    17    65    64    2
    18    97    96    1
    19    96    98    1
    20    59    58    1
    21    72    78   am
    22    72    71    1
    23    68    67   ar
    24    58    55    1
    25    67    66    1
    26    67    69   ar
    27    66    63    1
    28    64    63    1
    29    64    70   am
    30    83    84   ar
    31    83    85   ar
    32    71    70    1
    33    71    74    1
    34    77    75    1
    35    84    86   ar
    36    63    62    1
    37    62    56   am
    38    55    56    1
    39    55    54    1
    40    75    74    1
    41    85    87   ar
    42    56    57    2
    43    74    76    1
    44    86    87   ar
    45    54    48   am
    46    35    36    1
    47    48    49    2
    48    48    47    1
    49    46    47    1
    50    36    37    1
    51    36    39    1
    52    43    45   ar
    53    43    41   ar
    54    47    50    1
    55    45    44   ar
    56    41    40   ar
    57    37    38    2
    58    44    42   ar
    59    40    42   ar
    60    40    39    1
    61    22    21    2
    62    50    51    1
    63    23    21   am
    64    21    20    1
    65    20    19    1
    66    51    52   ar
    67    51    53   ar
    68    19    16    1
    69    24    25    1
    70    25    26    1
    71    25    28    1
    72    34    32    1
    73    27    26    2
    74    29    28    1
    75    29    30    1
    76    16    17    1
    77    16    15    1
    78   107   106    1
    79    32    33    1
    80    32    31    2
    81    18    17    2
    82    14    13    1
    83    31    30    1
    84    15    11   am
    85    11    12    2
    86    11    10    1
    87   106   105    1
    88   105   104    1
    89    13    10    1
    90    10     9    1
    91   114   113   ar
    92   104   103    1
    93   103   100    1
    94   115   113   ar
    95   113   112    1
    96   100    99    1
    97   100   101    1
    98     8     6   ar
    99   102   101    2
   100   112   109    1
   101   124   125   ar
   102   124   122   ar
   103   125   123   ar
   104     6     7   ar
   105     6     5    1
   106   109   108    1
   107   109   110    1
   108     4     3    2
   109   122   121   ar
   110     5     2    1
   111   123   121   ar
   112     3     2    1
   113   110   111    2
   114   121   120    1
   115     2     1    1
   116   120   117    1
   117   116   117    1
   118   117   118    1
   119   118   119    2
