@<TRIPOS>MOLECULE
tmp/4e0fA00.pdb
 123 121 0 0 0
SMALL
GASTEIGER

@<TRIPOS>ATOM
      1  N         -9.9030   -1.4080   35.6500 N.3    40  SER40      -0.1217
      2  CA        -9.9840   -0.8220   34.3270 C.3    40  SER40       0.1889
      3  C        -10.3820   -1.8920   33.3220 C.2    40  SER40       0.2288
      4  O         -9.7600   -2.9570   33.2570 O.2    40  SER40      -0.2866
      5  CB        -8.6430   -0.1970   33.9390 C.3    40  SER40       0.2089
      6  OG        -8.2590    0.8050   34.8670 O.3    40  SER40      -0.2183
      7  N        -11.9760    1.9910   24.7190 N.3    46  VAL46      -0.1231
      8  CA       -11.9970    3.0550   25.7130 C.3    46  VAL46       0.1692
      9  C        -11.7990    2.4470   27.0930 C.2    46  VAL46       0.2592
     10  O        -12.5720    1.5900   27.5220 O.2    46  VAL46      -0.2718
     11  CB       -13.3200    3.8590   25.6790 C.3    46  VAL46       0.0266
     12  CG1      -13.1870    5.1430   26.4920 C.3    46  VAL46       0.0020
     13  CG2      -13.7180    4.1750   24.2450 C.3    46  VAL46       0.0020
     14  N        -10.7520    2.8910   27.7780 N.am   47  CYS47      -0.1956
     15  CA       -10.4650    2.4240   29.1250 C.3    47  CYS47       0.1843
     16  C        -11.3590    3.1450   30.1260 C.2    47  CYS47       0.2625
     17  O        -11.2920    4.3710   30.2620 O.2    47  CYS47      -0.2714
     18  CB        -8.9940    2.6390   29.4690 C.3    47  CYS47       0.0997
     19  SG        -8.5830    2.1980   31.1590 S.3    47  CYS47      -0.0797
     20  N        -12.1940    2.3680   30.8160 N.am   48  LEU48      -0.1963
     21  CA       -13.1760    2.8870   31.7640 C.3    48  LEU48       0.1728
     22  C        -13.0060    2.2330   33.1320 C.2    48  LEU48       0.2616
     23  O        -12.4700    1.1290   33.2340 O.2    48  LEU48      -0.2715
     24  CB       -14.5900    2.6380   31.2310 C.3    48  LEU48       0.0311
     25  CG       -15.3810    3.7040   30.4580 C.3    48  LEU48       0.0022
     26  CD1      -14.5460    4.8710   29.9430 C.3    48  LEU48       0.0001
     27  CD2      -16.1340    3.0440   29.3200 C.3    48  LEU48       0.0001
     28  N        -13.4780    2.9180   34.1740 N.am   49  THR49      -0.1951
     29  CA       -13.3160    2.4610   35.5540 C.3    49  THR49       0.1897
     30  C        -14.6090    1.8900   36.1390 C.2    49  THR49       0.2313
     31  O        -15.6380    2.5670   36.1840 O.2    49  THR49      -0.2863
     32  CB       -12.7690    3.5970   36.4540 C.3    49  THR49       0.1794
     33  OG1      -11.4890    4.0130   35.9640 O.3    49  THR49      -0.2208
     34  CG2      -12.6210    3.1440   37.9040 C.3    49  THR49       0.0378
     35  N        -18.5040    4.7370   34.4050 N.3    66  GLU66      -0.1231
     36  CA       -18.9870    6.0950   34.1470 C.3    66  GLU66       0.1699
     37  C        -18.1440    6.7810   33.0730 C.2    66  GLU66       0.2592
     38  O        -16.9210    6.7250   33.1170 O.2    66  GLU66      -0.2718
     39  CB       -19.0020    6.9200   35.4410 C.3    66  GLU66       0.0402
     40  CG       -20.0970    6.5090   36.4340 C.3    66  GLU66       0.1161
     41  CD       -20.0210    7.2400   37.7760 C.2    66  GLU66       0.3649
     42  OE1      -18.9380    7.7520   38.1420 O.co2  66  GLU66      -0.2457
     43  OE2      -21.0530    7.2930   38.4770 O.co2  66  GLU66      -0.2457
     44  N        -18.8030    7.4180   32.1080 N.am   67  ALA67      -0.1966
     45  CA       -18.1090    8.1280   31.0280 C.3    67  ALA67       0.1728
     46  C        -18.3410    9.6340   31.1170 C.2    67  ALA67       0.2616
     47  O        -19.4820   10.0810   31.2200 O.2    67  ALA67      -0.2715
     48  CB       -18.5420    7.5950   29.6690 C.3    67  ALA67       0.0334
     49  N        -17.2570   10.4070   31.0650 N.am   68  TRP68      -0.1974
     50  CA       -17.3170   11.8590   31.2720 C.3    68  TRP68       0.1640
     51  C        -16.9170   12.6440   30.0180 C.2    68  TRP68       0.2290
     52  O        -16.8640   12.0690   28.9310 O.2    68  TRP68      -0.2864
     53  CB       -16.4930   12.2490   32.5060 C.3    68  TRP68       0.0576
     54  CG       -16.9130   11.4570   33.7050 C.ar   68  TRP68       0.0006
     55  CD1      -16.3030   10.3430   34.2080 C.ar   68  TRP68       0.0946
     56  CD2      -18.0710   11.6810   34.5220 C.ar   68  TRP68       0.0152
     57  NE1      -16.9960    9.8720   35.2980 N.ar   68  TRP68      -0.2442
     58  CE2      -18.0850   10.6740   35.5130 C.ar   68  TRP68       0.0810
     59  CE3      -19.0920   12.6430   34.5200 C.ar   68  TRP68       0.0012
     60  CZ2      -19.0810   10.5980   36.4900 C.ar   68  TRP68       0.0191
     61  CZ3      -20.0820   12.5660   35.4940 C.ar   68  TRP68       0.0001
     62  CH2      -20.0680   11.5500   36.4660 C.ar   68  TRP68       0.0015
     63  N        -14.3410   13.8930   28.2350 N.3    70  GLU70      -0.1231
     64  CA       -13.3850   13.3930   27.2380 C.3    70  GLU70       0.1699
     65  C        -13.8510   12.1240   26.5280 C.2    70  GLU70       0.2592
     66  O        -13.7010   11.9990   25.3110 O.2    70  GLU70      -0.2718
     67  CB       -12.0010   13.1820   27.8570 C.3    70  GLU70       0.0402
     68  CG       -11.2060   14.4660   28.0520 C.3    70  GLU70       0.1161
     69  CD       -10.7440   15.1010   26.7420 C.2    70  GLU70       0.3649
     70  OE1      -10.0500   14.4260   25.9460 O.co2  70  GLU70      -0.2457
     71  OE2      -11.0650   16.2880   26.5210 O.co2  70  GLU70      -0.2457
     72  N        -14.4190   11.1920   27.2920 N.am   71  ALA71      -0.1980
     73  CA       -14.9290    9.9420   26.7330 C.3    71  ALA71       0.1597
     74  C        -16.0840   10.1920   25.7660 C.2    71  ALA71       0.2287
     75  O        -16.1320    9.6060   24.6880 O.2    71  ALA71      -0.2864
     76  CB       -15.3480    8.9920   27.8400 C.3    71  ALA71       0.0319
     77  N        -14.8520   12.4040   22.4900 N.3    74  LEU74      -0.1231
     78  CA       -13.9750   11.7900   21.4900 C.3    74  LEU74       0.1693
     79  C        -14.3820   10.4100   20.9710 C.2    74  LEU74       0.2592
     80  O        -14.1100   10.0820   19.8160 O.2    74  LEU74      -0.2718
     81  CB       -12.5370   11.7260   22.0180 C.3    74  LEU74       0.0284
     82  CG       -11.7820   13.0390   22.2260 C.3    74  LEU74       0.0019
     83  CD1      -10.4540   12.7520   22.8850 C.3    74  LEU74       0.0001
     84  CD2      -11.5800   13.7990   20.9110 C.3    74  LEU74       0.0001
     85  N        -15.0130    9.6000   21.8160 N.am   75  THR75      -0.1953
     86  CA       -15.2580    8.1930   21.4830 C.3    75  THR75       0.1897
     87  C        -16.6540    7.9650   20.9090 C.2    75  THR75       0.2313
     88  O        -17.4420    8.9030   20.7920 O.2    75  THR75      -0.2863
     89  CB       -15.0460    7.2710   22.7080 C.3    75  THR75       0.1794
     90  OG1      -16.2370    7.2370   23.4990 O.3    75  THR75      -0.2208
     91  CG2      -13.8860    7.7610   23.5680 C.3    75  THR75       0.0378
     92  N         -3.4940    1.1940   25.4480 N.3   104  PHE104     -0.1227
     93  CA        -3.6280    1.8430   26.7510 C.3   104  PHE104      0.1736
     94  C         -5.0310    2.3680   27.0310 C.2   104  PHE104      0.2596
     95  O         -5.3520    2.7380   28.1640 O.2   104  PHE104     -0.2718
     96  CB        -2.5630    2.9310   26.9240 C.3   104  PHE104      0.0547
     97  CG        -1.1880    2.3810   27.1830 C.ar  104  PHE104     -0.0202
     98  CD1       -0.7260    2.2140   28.4830 C.ar  104  PHE104     -0.0042
     99  CD2       -0.3670    1.9990   26.1310 C.ar  104  PHE104     -0.0042
    100  CE1        0.5390    1.6930   28.7280 C.ar  104  PHE104     -0.0003
    101  CE2        0.8950    1.4790   26.3670 C.ar  104  PHE104     -0.0003
    102  CZ         1.3490    1.3260   27.6670 C.ar  104  PHE104     -0.0000
    103  N         -5.8680    2.3710   26.0010 N.am  105  GLY105     -0.1942
    104  CA        -7.2480    2.8170   26.1340 C.3   105  GLY105      0.2014
    105  C         -7.4320    4.3100   25.9610 C.2   105  GLY105      0.2639
    106  O         -8.5160    4.8300   26.2240 O.2   105  GLY105     -0.2714
    107  N         -6.3760    5.0010   25.5270 N.am  106  HIS106     -0.1959
    108  CA        -6.4550    6.4340   25.2400 C.3   106  HIS106      0.1787
    109  C         -6.7950    6.6420   23.7670 C.2   106  HIS106      0.2620
    110  O         -5.8990    6.7110   22.9190 O.2   106  HIS106     -0.2715
    111  CB        -5.1430    7.1670   25.5660 C.3   106  HIS106      0.0785
    112  CG        -4.5190    6.7850   26.8740 C.ar  106  HIS106      0.0821
    113  ND1       -5.2120    6.1580   27.8880 N.ar  106  HIS106     -0.2267
    114  CD2       -3.2630    6.9780   27.3440 C.ar  106  HIS106      0.1154
    115  CE1       -4.4040    5.9590   28.9140 C.ar  106  HIS106      0.1986
    116  NE2       -3.2170    6.4510   28.6110 N.ar  106  HIS106     -0.2212
    117  N         -8.0830    6.7350   23.4520 N.am  107  VAL107     -0.1977
    118  CA        -8.4850    6.8930   22.0570 C.3   107  VAL107      0.1596
    119  C         -8.4100    8.3630   21.6280 C.2   107  VAL107      0.2287
    120  O         -8.7030    9.2720   22.4130 O.2   107  VAL107     -0.2864
    121  CB        -9.8690    6.2420   21.7380 C.3   107  VAL107      0.0276
    122  CG1      -10.0270    4.9090   22.4710 C.3   107  VAL107      0.0022
    123  CG2      -11.0130    7.1670   22.0800 C.3   107  VAL107      0.0022
@<TRIPOS>BOND
     1    80    79    2
     2    88    87    2
     3    87    86    1
     4    84    82    1
     5    79    78    1
     6    79    85   am
     7    86    85    1
     8    86    89    1
     9    78    81    1
    10    78    77    1
    11   119   118    1
    12   119   120    2
    13   121   118    1
    14   121   123    1
    15   121   122    1
    16    81    82    1
    17   118   117    1
    18    82    83    1
    19    89    90    1
    20    89    91    1
    21   110   109    2
    22   117   109   am
    23   109   108    1
    24    13    11    1
    25    75    74    2
    26     7     8    1
    27   108   107    1
    28   108   111    1
    29    66    65    2
    30    92    93    1
    31   107   105   am
    32   111   112    1
    33    11     8    1
    34    11    12    1
    35     8     9    1
    36    74    73    1
    37    70    69   ar
    38   105   104    1
    39   105   106    2
    40   103   104    1
    41   103    94   am
    42    99   101   ar
    43    99    97   ar
    44   101   102   ar
    45    71    69   ar
    46    65    64    1
    47    65    72   am
    48    73    72    1
    49    73    76    1
    50    69    68    1
    51    93    96    1
    52    93    94    1
    53   112   114   ar
    54   112   113   ar
    55    96    97    1
    56    94    95    2
    57     9    10    2
    58     9    14   am
    59    97    98   ar
    60    64    67    1
    61    64    63    1
    62   114   116   ar
    63   102   100   ar
    64    14    15    1
    65    67    68    1
    66   113   115   ar
    67    98   100   ar
    68   116   115   ar
    69    52    51    2
    70    15    18    1
    71    15    16    1
    72    27    25    1
    73    18    19    1
    74    48    45    1
    75    26    25    1
    76    51    50    1
    77    16    17    2
    78    16    20   am
    79    25    24    1
    80    20    21    1
    81    45    46    1
    82    45    44    1
    83    49    46   am
    84    49    50    1
    85    46    47    2
    86    24    21    1
    87    50    53    1
    88    21    22    1
    89    44    37   am
    90    53    54    1
    91    37    38    2
    92    37    36    1
    93    22    23    2
    94    22    28   am
    95     4     3    2
    96     3     2    1
    97    54    55   ar
    98    54    56   ar
    99     5     2    1
   100     5     6    1
   101    36    35    1
   102    36    39    1
   103    28    29    1
   104    55    57   ar
   105     2     1    1
   106    59    56   ar
   107    59    61   ar
   108    56    58   ar
   109    57    58   ar
   110    39    40    1
   111    61    62   ar
   112    58    60   ar
   113    29    30    1
   114    29    32    1
   115    33    32    1
   116    30    31    2
   117    40    41    1
   118    32    34    1
   119    62    60   ar
   120    41    42   ar
   121    41    43   ar
