@<TRIPOS>MOLECULE
tmp/4e0fB00.pdb
 76 68 0 0 0
SMALL
GASTEIGER

@<TRIPOS>ATOM
      1  N         -2.7900    3.2950   40.2190 N.3     5  ILE5       -0.1245
      2  CA        -4.1630    3.1690   40.6920 C.3     5  ILE5        0.1561
      3  C         -4.1770    3.2100   42.2200 C.2     5  ILE5        0.2260
      4  O         -3.6640    2.3060   42.8900 O.2     5  ILE5       -0.2867
      5  CB        -4.8640    1.8980   40.1480 C.3     5  ILE5        0.0252
      6  CG1       -5.1380    2.0530   38.6490 C.3     5  ILE5        0.0019
      7  CG2       -6.1640    1.6210   40.9120 C.3     5  ILE5        0.0019
      8  CD1       -6.0980    1.0300   38.0810 C.3     5  ILE5        0.0001
      9  N         -3.7520   -1.6880   35.9570 N.3    99  GLY99      -0.1210
     10  CA        -4.8500   -0.8370   35.4990 C.3    99  GLY99       0.1956
     11  C         -4.4590    0.3380   34.6240 C.2    99  GLY99       0.2612
     12  O         -4.9900    0.4970   33.5210 O.2    99  GLY99      -0.2717
     13  N         -3.5420    1.1670   35.1150 N.am  100  GLY100     -0.1956
     14  CA        -3.0350    2.3040   34.3510 C.3   100  GLY100      0.1869
     15  C         -1.8350    1.9150   33.5130 C.2   100  GLY100      0.2309
     16  O         -1.9260    1.0170   32.6750 O.2   100  GLY100     -0.2863
     17  N         -2.8010   12.2880   24.5800 N.3   140  LYS140     -0.1245
     18  CA        -3.3210   10.9170   24.7140 C.3   140  LYS140      0.1561
     19  C         -2.2730    9.8730   25.1160 C.2   140  LYS140      0.2260
     20  O         -2.4060    8.6870   24.8050 O.2   140  LYS140     -0.2867
     21  CB        -4.1190   10.4890   23.4720 C.3   140  LYS140      0.0271
     22  CG        -5.6280   10.6370   23.6430 C.3   140  LYS140      0.0035
     23  CD        -6.0730   12.0890   23.5510 C.3   140  LYS140      0.0206
     24  CE        -7.0230   12.4740   24.6810 C.3   140  LYS140      0.1093
     25  NZ        -8.1580   11.5300   24.8660 N.3   140  LYS140     -0.1314
     26  N          0.3820    8.7640   28.6840 N.3   142  SER142     -0.1217
     27  CA         0.2010    8.6030   30.1180 C.3   142  SER142      0.1889
     28  C          1.1260    9.4940   30.9330 C.2   142  SER142      0.2288
     29  O          2.1780    9.9260   30.4560 O.2   142  SER142     -0.2866
     30  CB         0.3830    7.1390   30.5180 C.3   142  SER142      0.2089
     31  OG        -0.5130    6.3050   29.8080 O.3   142  SER142     -0.2183
     32  N         -2.1530    7.5460   37.8770 N.3   149  SER149     -0.1202
     33  CA        -1.8890    7.4550   36.4430 C.3   149  SER149      0.2020
     34  C         -3.0510    8.0840   35.6850 C.2   149  SER149      0.2619
     35  O         -4.2080    7.7270   35.9110 O.2   149  SER149     -0.2717
     36  CB        -1.6610    6.0040   36.0060 C.3   149  SER149      0.2103
     37  OG        -2.8640    5.3730   35.6090 O.3   149  SER149     -0.2182
     38  N         -2.7340    9.0270   34.8010 N.am  150  LEU150     -0.1965
     39  CA        -3.7490    9.8310   34.1170 C.3   150  LEU150      0.1728
     40  C         -3.4800    9.9900   32.6210 C.2   150  LEU150      0.2616
     41  O         -2.3310    9.9420   32.1740 O.2   150  LEU150     -0.2715
     42  CB        -3.8660   11.2120   34.7750 C.3   150  LEU150      0.0311
     43  CG        -4.5020   11.3010   36.1670 C.3   150  LEU150      0.0022
     44  CD1       -4.0360   12.5530   36.9020 C.3   150  LEU150      0.0001
     45  CD2       -6.0240   11.2520   36.0880 C.3   150  LEU150      0.0001
     46  N         -4.5550   10.1810   31.8590 N.am  151  THR151     -0.1951
     47  CA        -4.4700   10.4190   30.4210 C.3   151  THR151      0.1897
     48  C         -4.2350   11.9080   30.1630 C.2   151  THR151      0.2313
     49  O         -4.9460   12.7550   30.7030 O.2   151  THR151     -0.2863
     50  CB        -5.7650    9.9640   29.6960 C.3   151  THR151      0.1794
     51  OG1       -6.1000    8.6260   30.0890 O.3   151  THR151     -0.2208
     52  CG2       -5.5960   10.0160   28.1840 C.3   151  THR151      0.0378
     53  N         -4.7860   14.9710   28.0770 N.3   153  ASN153     -0.1240
     54  CA        -5.8800   15.3150   27.1690 C.3   153  ASN153      0.1653
     55  C         -5.5780   16.4470   26.1910 C.2   153  ASN153      0.2266
     56  O         -6.3360   16.6840   25.2500 O.2   153  ASN153     -0.2867
     57  CB        -7.1490   15.6310   27.9660 C.3   153  ASN153      0.1155
     58  CG        -7.7340   14.4070   28.6510 C.2   153  ASN153      0.2627
     59  OD1       -8.3200   14.5170   29.7240 O.2   153  ASN153     -0.2716
     60  ND2       -7.5820   13.2370   28.0340 N.am  153  ASN153     -0.0877
     61  N         -8.1110   15.1520   32.8260 N.3   163  LEU163     -0.1245
     62  CA        -9.4890   15.0710   33.3060 C.3   163  LEU163      0.1561
     63  C         -9.5790   14.0080   34.3930 C.2   163  LEU163      0.2260
     64  O         -9.1740   12.8600   34.1930 O.2   163  LEU163     -0.2867
     65  CB       -10.4590   14.7700   32.1550 C.3   163  LEU163      0.0270
     66  CG       -11.9850   14.9260   32.2820 C.3   163  LEU163      0.0019
     67  CD1      -12.6510   13.6530   32.7820 C.3   163  LEU163      0.0001
     68  CD2      -12.4050   16.1340   33.1230 C.3   163  LEU163      0.0001
     69  N        -11.9250   11.7780   36.5860 N.3   165  ILE165     -0.1245
     70  CA       -13.2560   11.1820   36.6470 C.3   165  ILE165      0.1561
     71  C        -13.8180   11.2040   38.0720 C.2   165  ILE165      0.2260
     72  O        -13.0630   11.3240   39.0370 O.2   165  ILE165     -0.2867
     73  CB       -13.2510    9.7400   36.0670 C.3   165  ILE165      0.0252
     74  CG1      -12.3300    8.8210   36.8780 C.3   165  ILE165      0.0019
     75  CG2      -12.8160    9.7650   34.5990 C.3   165  ILE165      0.0019
     76  CD1      -12.6260    7.3440   36.7170 C.3   165  ILE165      0.0001
@<TRIPOS>BOND
     1    21    22    1
     2    21    18    1
     3    23    22    1
     4    23    24    1
     5    17    18    1
     6    24    25    1
     7    18    19    1
     8    20    19    2
     9    56    55    2
    10    55    54    1
    11    54    57    1
    12    54    53    1
    13    57    58    1
    14    60    58   am
    15    52    50    1
    16    58    59    2
    17    26    27    1
    18    50    51    1
    19    50    47    1
    20    31    30    1
    21    27    30    1
    22    27    28    1
    23    48    47    1
    24    48    49    2
    25    47    46    1
    26    29    28    2
    27    46    40   am
    28    65    66    1
    29    65    62    1
    30    41    40    2
    31    66    67    1
    32    66    68    1
    33    40    39    1
    34    16    15    2
    35    61    62    1
    36    62    63    1
    37    15    14    1
    38    12    11    2
    39    39    42    1
    40    39    38    1
    41    64    63    2
    42    14    13    1
    43    75    73    1
    44    11    13   am
    45    11    10    1
    46    42    43    1
    47    38    34   am
    48    10     9    1
    49    37    36    1
    50    34    35    2
    51    34    33    1
    52    36    33    1
    53    73    70    1
    54    73    74    1
    55    45    43    1
    56    43    44    1
    57    33    32    1
    58    69    70    1
    59    70    71    1
    60    76    74    1
    61    71    72    2
    62     8     6    1
    63     6     5    1
    64     5     2    1
    65     5     7    1
    66     1     2    1
    67     2     3    1
    68     3     4    2
