@<TRIPOS>MOLECULE
tmp/4e0iA00.pdb
 246 244 0 0 0
SMALL
GASTEIGER

@<TRIPOS>ATOM
      1  N         -1.2520   -6.9460   19.2970 N.3    51  VAL51      -0.1231
      2  CA        -2.7080   -6.7540   19.3340 C.3    51  VAL51       0.1692
      3  C         -3.4620   -7.7760   18.4810 C.2    51  VAL51       0.2591
      4  O         -4.4800   -8.3250   18.9090 O.2    51  VAL51      -0.2718
      5  CB        -3.1180   -5.3240   18.8970 C.3    51  VAL51       0.0266
      6  CG1       -2.7200   -4.3030   19.9500 C.3    51  VAL51       0.0020
      7  CG2       -2.5140   -4.9580   17.5450 C.3    51  VAL51       0.0020
      8  N         -2.9370   -8.0270   17.2820 N.am   52  GLU52      -0.1979
      9  CA        -3.5510   -8.9240   16.3070 C.3    52  GLU52       0.1602
     10  C         -3.4650  -10.3860   16.7410 C.2    52  GLU52       0.2287
     11  O         -4.4420  -11.1290   16.6190 O.2    52  GLU52      -0.2864
     12  CB        -2.9020   -8.7440   14.9290 C.3    52  GLU52       0.0415
     13  CG        -3.0210   -7.3400   14.3430 C.3    52  GLU52       0.1163
     14  CD        -2.2610   -7.1690   13.0350 C.2    52  GLU52       0.3649
     15  OE1       -2.1180   -8.1560   12.2800 O.co2  52  GLU52      -0.2457
     16  OE2       -1.8080   -6.0380   12.7570 O.co2  52  GLU52      -0.2457
     17  N         -5.4880  -10.8020   20.0060 N.3    55  GLY55      -0.1210
     18  CA        -6.8830  -10.6640   19.6070 C.3    55  GLY55       0.1956
     19  C         -7.4990  -11.9470   19.0850 C.2    55  GLY55       0.2611
     20  O         -8.5070  -12.4130   19.6180 O.2    55  GLY55      -0.2717
     21  N         -6.8880  -12.5230   18.0510 N.am   56  ARG56      -0.1979
     22  CA        -7.4040  -13.7520   17.4380 C.3    56  ARG56       0.1597
     23  C         -7.2330  -14.9810   18.3330 C.2    56  ARG56       0.2287
     24  O         -7.9640  -15.9610   18.1880 O.2    56  ARG56      -0.2864
     25  CB        -6.7970  -13.9860   16.0460 C.3    56  ARG56       0.0334
     26  CG        -5.3540  -14.4730   16.0260 C.3    56  ARG56       0.0492
     27  CD        -4.8950  -14.7830   14.6090 C.3    56  ARG56       0.2205
     28  NE        -4.7320  -13.5710   13.8070 N.pl3  56  ARG56      -0.0865
     29  CZ        -3.6070  -12.8650   13.7240 C.cat  56  ARG56       0.5346
     30  NH1       -2.5220  -13.2430   14.3900 N.pl3  56  ARG56       0.1354
     31  NH2       -3.5640  -11.7760   12.9700 N.pl3  56  ARG56       0.1354
     32  N         -7.5920  -14.7170   21.6150 N.3    58  SER58      -0.1202
     33  CA        -8.6440  -14.5170   22.6030 C.3    58  SER58       0.2020
     34  C        -10.0030  -14.9170   22.0360 C.2    58  SER58       0.2618
     35  O        -10.8510  -15.4360   22.7630 O.2    58  SER58      -0.2717
     36  CB        -8.6700  -13.0640   23.0770 C.3    58  SER58       0.2103
     37  OG        -7.4190  -12.6770   23.6160 O.3    58  SER58      -0.2182
     38  N        -10.1980  -14.6790   20.7380 N.am   59  TRP59      -0.1975
     39  CA       -11.4560  -15.0070   20.0640 C.3    59  TRP59       0.1640
     40  C        -11.6940  -16.4840   19.9470 C.2    59  TRP59       0.2290
     41  O        -12.8110  -16.9510   20.1780 O.2    59  TRP59      -0.2864
     42  CB       -11.5360  -14.3550   18.6880 C.3    59  TRP59       0.0576
     43  CG       -11.8580  -12.8800   18.7260 C.ar   59  TRP59       0.0006
     44  CD1      -11.1120  -11.8360   18.1900 C.ar   59  TRP59       0.0946
     45  CD2      -13.0290  -12.2310   19.3410 C.ar   59  TRP59       0.0152
     46  NE1      -11.7190  -10.6280   18.4180 N.ar   59  TRP59      -0.2442
     47  CE2      -12.8710  -10.7910   19.1000 C.ar   59  TRP59       0.0810
     48  CE3      -14.1490  -12.6800   20.0340 C.ar   59  TRP59       0.0012
     49  CZ2      -13.8010   -9.8640   19.5490 C.ar   59  TRP59       0.0191
     50  CZ3      -15.0810  -11.7340   20.4800 C.ar   59  TRP59       0.0001
     51  CH2      -14.9080  -10.3610   20.2440 C.ar   59  TRP59       0.0015
     52  N        -12.8670  -17.6290   23.3390 N.3    62  LEU62      -0.1231
     53  CA       -14.2010  -17.0920   23.6360 C.3    62  LEU62       0.1693
     54  C        -15.3340  -17.7900   22.8800 C.2    62  LEU62       0.2592
     55  O        -16.3980  -18.0420   23.4500 O.2    62  LEU62      -0.2718
     56  CB       -14.2480  -15.5800   23.3840 C.3    62  LEU62       0.0284
     57  CG       -13.5990  -14.6600   24.4240 C.3    62  LEU62       0.0019
     58  CD1      -13.3290  -13.2870   23.8260 C.3    62  LEU62       0.0001
     59  CD2      -14.4470  -14.5400   25.6830 C.3    62  LEU62       0.0001
     60  N        -15.1030  -18.0980   21.6060 N.am   63  HIS63      -0.1976
     61  CA       -16.0870  -18.8150   20.7960 C.3    63  HIS63       0.1656
     62  C        -16.1360  -20.2800   21.1260 C.2    63  HIS63       0.2291
     63  O        -17.1990  -20.9000   21.0450 O.2    63  HIS63      -0.2864
     64  CB       -15.8190  -18.6170   19.3110 C.3    63  HIS63       0.0771
     65  CG       -16.0620  -17.2090   18.8300 C.ar   63  HIS63       0.0820
     66  ND1      -17.2910  -16.6640   18.7720 N.ar   63  HIS63      -0.2267
     67  CD2      -15.1800  -16.2360   18.3680 C.ar   63  HIS63       0.1154
     68  CE1      -17.2000  -15.4060   18.3060 C.ar   63  HIS63       0.1986
     69  NE2      -15.9080  -15.1460   18.0590 N.ar   63  HIS63      -0.2212
     70  N        -13.1360  -10.4630   32.2630 N.3    88  PHE88      -0.1241
     71  CA       -12.4290  -10.3780   30.9840 C.3    88  PHE88       0.1605
     72  C        -12.3380   -8.9400   30.4730 C.2    88  PHE88       0.2264
     73  O        -11.2630   -8.4890   30.0750 O.2    88  PHE88      -0.2867
     74  CB       -13.1120  -11.2630   29.9360 C.3    88  PHE88       0.0534
     75  CG       -12.2680  -11.5330   28.7230 C.ar   88  PHE88      -0.0203
     76  CD1      -11.3420  -12.5700   28.7240 C.ar   88  PHE88      -0.0042
     77  CD2      -12.4030  -10.7570   27.5760 C.ar   88  PHE88      -0.0042
     78  CE1      -10.5620  -12.8240   27.6080 C.ar   88  PHE88      -0.0003
     79  CE2      -11.6260  -11.0080   26.4560 C.ar   88  PHE88      -0.0003
     80  CZ       -10.7040  -12.0430   26.4720 C.ar   88  PHE88      -0.0000
     81  N         -8.5100   -7.5890   30.2530 N.3    92  TYR92      -0.1241
     82  CA        -8.0180   -7.7690   28.8880 C.3    92  TYR92       0.1605
     83  C         -6.8240   -6.8430   28.6500 C.2    92  TYR92       0.2264
     84  O         -6.9430   -5.6270   28.8200 O.2    92  TYR92      -0.2867
     85  CB        -9.1140   -7.5340   27.8440 C.3    92  TYR92       0.0534
     86  CG        -8.6960   -7.9290   26.4430 C.ar   92  TYR92      -0.0201
     87  CD1       -8.5780   -9.2720   26.0830 C.ar   92  TYR92      -0.0009
     88  CD2       -8.4090   -6.9630   25.4800 C.ar   92  TYR92      -0.0009
     89  CE1       -8.1890   -9.6410   24.8050 C.ar   92  TYR92       0.0417
     90  CE2       -8.0200   -7.3220   24.1980 C.ar   92  TYR92       0.0417
     91  CZ        -7.9120   -8.6620   23.8660 C.ar   92  TYR92       0.1957
     92  OH        -7.5270   -9.0250   22.5950 O.3    92  TYR92      -0.2866
     93  N         -7.2120    0.0910   26.0670 N.3    96  TRP96      -0.1227
     94  CA        -8.0660    0.9030   25.1980 C.3    96  TRP96       0.1737
     95  C         -9.1130    0.0990   24.4660 C.2    96  TRP96       0.2596
     96  O        -10.1680    0.6270   24.1080 O.2    96  TRP96      -0.2718
     97  CB        -7.2210    1.7320   24.2280 C.3    96  TRP96       0.0564
     98  CG        -6.0320    1.0000   23.6430 C.ar   96  TRP96       0.0003
     99  CD1       -4.8090    0.7300   24.2580 C.ar   96  TRP96       0.0946
    100  CD2       -5.9100    0.4310   22.2940 C.ar   96  TRP96       0.0152
    101  NE1       -3.9730    0.0470   23.4110 N.ar   96  TRP96      -0.2442
    102  CE2       -4.5690   -0.1640   22.2170 C.ar   96  TRP96       0.0810
    103  CE3       -6.7470    0.3540   21.1840 C.ar   96  TRP96       0.0012
    104  CZ2       -4.1110   -0.8000   21.0720 C.ar   96  TRP96       0.0191
    105  CZ3       -6.2730   -0.2910   20.0340 C.ar   96  TRP96       0.0001
    106  CH2       -4.9870   -0.8530   19.9820 C.ar   96  TRP96       0.0015
    107  N         -8.8330   -1.1860   24.2470 N.am   97  SER97      -0.1952
    108  CA        -9.7970   -2.1060   23.6420 C.3    97  SER97       0.1924
    109  C        -10.7230   -2.7150   24.6930 C.2    97  SER97       0.2314
    110  O        -11.9080   -2.9340   24.4310 O.2    97  SER97      -0.2863
    111  CB        -9.0770   -3.2150   22.8720 C.3    97  SER97       0.2116
    112  OG        -8.3000   -2.6820   21.8140 O.3    97  SER97      -0.2180
    113  N        -13.5850   -0.3800   25.6700 N.3   100  ASP100     -0.1225
    114  CA       -14.6070   -0.4050   24.6220 C.3   100  ASP100      0.1805
    115  C        -15.5340   -1.6070   24.7730 C.2   100  ASP100      0.2597
    116  O        -16.7560   -1.4730   24.6770 O.2   100  ASP100     -0.2718
    117  CB       -13.9570   -0.4340   23.2340 C.3   100  ASP100      0.1424
    118  CG       -13.6830    0.9550   22.6780 C.2   100  ASP100      0.3668
    119  OD1      -13.3670    1.8760   23.4620 O.co2 100  ASP100     -0.2456
    120  OD2      -13.7780    1.1230   21.4430 O.co2 100  ASP100     -0.2456
    121  N        -14.9370   -2.7760   25.0050 N.am  101  PHE101     -0.1976
    122  CA       -15.6780   -4.0260   25.1590 C.3   101  PHE101      0.1639
    123  C        -16.5370   -4.0250   26.4200 C.2   101  PHE101      0.2290
    124  O        -17.6310   -4.5940   26.4330 O.2   101  PHE101     -0.2864
    125  CB       -14.7140   -5.2190   25.1570 C.3   101  PHE101      0.0560
    126  CG       -15.3950   -6.5580   25.2450 C.ar  101  PHE101     -0.0200
    127  CD1      -16.4150   -6.8990   24.3590 C.ar  101  PHE101     -0.0042
    128  CD2      -15.0040   -7.4880   26.2020 C.ar  101  PHE101     -0.0042
    129  CE1      -17.0400   -8.1340   24.4370 C.ar  101  PHE101     -0.0003
    130  CE2      -15.6240   -8.7270   26.2820 C.ar  101  PHE101     -0.0003
    131  CZ       -16.6430   -9.0500   25.3990 C.ar  101  PHE101     -0.0000
    132  N        -20.9250  -13.7130   18.4520 N.3   123  CYS123     -0.1235
    133  CA       -20.7210  -13.3980   17.0380 C.3   123  CYS123      0.1677
    134  C        -21.0160  -11.9300   16.7300 C.2   123  CYS123      0.2270
    135  O        -20.2830  -11.2930   15.9720 O.2   123  CYS123     -0.2867
    136  CB       -21.5780  -14.3110   16.1560 C.3   123  CYS123      0.0956
    137  SG       -21.5640  -13.8890   14.3990 S.3   123  CYS123     -0.0801
    138  N        -18.1790   -9.8430   18.2720 N.3   126  HIS126     -0.1226
    139  CA       -17.0360   -9.9640   17.3710 C.3   126  HIS126      0.1752
    140  C        -17.2620   -9.1400   16.1330 C.2   126  HIS126      0.2596
    141  O        -16.3390   -8.4830   15.6450 O.2   126  HIS126     -0.2718
    142  CB       -16.8230  -11.4310   17.0040 C.3   126  HIS126      0.0759
    143  CG       -15.4590  -11.7410   16.4140 C.ar  126  HIS126      0.0818
    144  ND1      -14.7620  -10.8580   15.6730 N.ar  126  HIS126     -0.2268
    145  CD2      -14.6930  -12.9060   16.4560 C.ar  126  HIS126      0.1154
    146  CE1      -13.6030  -11.4190   15.2790 C.ar  126  HIS126      0.1986
    147  NE2      -13.5640  -12.6730   15.7570 N.ar  126  HIS126     -0.2212
    148  N        -18.4950   -9.1610   15.6250 N.am  127  ASN127     -0.1974
    149  CA       -18.8780   -8.3740   14.4490 C.3   127  ASN127      0.1688
    150  C        -18.8270   -6.8620   14.6560 C.2   127  ASN127      0.2292
    151  O        -18.6490   -6.1120   13.6940 O.2   127  ASN127     -0.2864
    152  CB       -20.2640   -8.7840   13.9380 C.3   127  ASN127      0.1181
    153  CG       -20.2090   -9.9290   12.9410 C.2   127  ASN127      0.2629
    154  OD1      -19.1400  -10.3020   12.4540 O.2   127  ASN127     -0.2716
    155  ND2      -21.3720  -10.4880   12.6260 N.am  127  ASN127     -0.0877
    156  N        -16.5120   -5.3500   16.5700 N.3   129  VAL129     -0.1231
    157  CA       -15.0810   -5.0790   16.4190 C.3   129  VAL129      0.1692
    158  C        -14.6930   -5.1820   14.9410 C.2   129  VAL129      0.2592
    159  O        -13.8780   -4.3970   14.4530 O.2   129  VAL129     -0.2718
    160  CB       -14.2140   -6.0270   17.2820 C.3   129  VAL129      0.0266
    161  CG1      -12.7300   -5.7680   17.0560 C.3   129  VAL129      0.0020
    162  CG2      -14.5540   -5.8710   18.7590 C.3   129  VAL129      0.0020
    163  N        -15.2960   -6.1440   14.2390 N.am  130  ASN130     -0.1974
    164  CA       -15.0980   -6.3090   12.7980 C.3   130  ASN130      0.1688
    165  C        -15.3890   -5.0340   12.0100 C.2   130  ASN130      0.2292
    166  O        -14.6150   -4.6600   11.1270 O.2   130  ASN130     -0.2864
    167  CB       -15.9470   -7.4650   12.2530 C.3   130  ASN130      0.1181
    168  CG       -15.3800   -8.8310   12.6030 C.2   130  ASN130      0.2629
    169  OD1      -14.1800   -8.9850   12.8380 O.2   130  ASN130     -0.2716
    170  ND2      -16.2480   -9.8360   12.6280 N.am  130  ASN130     -0.0877
    171  N        -15.4980   -1.9520   13.3290 N.3   132  LYS132     -0.1231
    172  CA       -14.5560   -0.9510   13.8340 C.3   132  LYS132      0.1693
    173  C        -13.1860   -1.0720   13.1600 C.2   132  LYS132      0.2591
    174  O        -12.4930   -0.0710   12.9610 O.2   132  LYS132     -0.2718
    175  CB       -14.4130   -1.0670   15.3560 C.3   132  LYS132      0.0285
    176  CG       -13.7030    0.1100   16.0100 C.3   132  LYS132      0.0035
    177  CD       -13.2250   -0.2320   17.4120 C.3   132  LYS132      0.0206
    178  CE       -12.1510    0.7430   17.8710 C.3   132  LYS132      0.1093
    179  NZ       -11.6180    0.3920   19.2160 N.3   132  LYS132     -0.1314
    180  N        -12.8110   -2.2990   12.8070 N.am  133  LEU133     -0.1980
    181  CA       -11.5370   -2.5580   12.1410 C.3   133  LEU133      0.1596
    182  C        -11.6850   -2.6520   10.6230 C.2   133  LEU133      0.2287
    183  O        -10.7230   -2.9660    9.9160 O.2   133  LEU133     -0.2864
    184  CB       -10.8820   -3.8230   12.7090 C.3   133  LEU133      0.0297
    185  CG       -10.5310   -3.7900   14.2000 C.3   133  LEU133      0.0022
    186  CD1       -9.7850   -5.0520   14.6010 C.3   133  LEU133      0.0001
    187  CD2       -9.7200   -2.5480   14.5420 C.3   133  LEU133      0.0001
    188  N        -13.1780   -4.8170    8.8460 N.3   135  LYS135     -0.1245
    189  CA       -13.1350   -6.1910    8.3670 C.3   135  LYS135      0.1561
    190  C        -14.5410   -6.5810    7.9090 C.2   135  LYS135      0.2260
    191  O        -15.5160   -5.9390    8.3110 O.2   135  LYS135     -0.2867
    192  CB       -12.6590   -7.1290    9.4820 C.3   135  LYS135      0.0271
    193  CG       -11.3390   -6.7280   10.1240 C.3   135  LYS135      0.0035
    194  CD       -10.7770   -7.8390   10.9970 C.3   135  LYS135      0.0206
    195  CE        -9.4570   -7.4320   11.6360 C.3   135  LYS135      0.1093
    196  NZ        -8.3670   -7.2400   10.6400 N.3   135  LYS135     -0.1314
    197  N        -19.0060  -11.0570    9.5410 N.3   138  PHE138     -0.1241
    198  CA       -19.1590  -12.5120    9.6070 C.3   138  PHE138      0.1605
    199  C        -20.6230  -12.9220    9.7790 C.2   138  PHE138      0.2264
    200  O        -21.3520  -12.3260   10.5760 O.2   138  PHE138     -0.2867
    201  CB       -18.3100  -13.0520   10.7650 C.3   138  PHE138      0.0534
    202  CG       -18.2680  -14.5530   10.8610 C.ar  138  PHE138     -0.0203
    203  CD1      -19.1960  -15.2430   11.6370 C.ar  138  PHE138     -0.0042
    204  CD2      -17.2770  -15.2770   10.2060 C.ar  138  PHE138     -0.0042
    205  CE1      -19.1490  -16.6260   11.7380 C.ar  138  PHE138     -0.0003
    206  CE2      -17.2250  -16.6610   10.3040 C.ar  138  PHE138     -0.0003
    207  CZ       -18.1630  -17.3350   11.0710 C.ar  138  PHE138     -0.0000
    208  N        -21.7060  -19.7650   12.8100 N.3   143  TRP143     -0.1241
    209  CA       -20.7980  -19.7710   13.9580 C.3   143  TRP143      0.1605
    210  C        -20.5850  -21.1570   14.5120 C.2   143  TRP143      0.2264
    211  O        -19.4750  -21.4990   14.9260 O.2   143  TRP143     -0.2867
    212  CB       -21.2790  -18.8040   15.0430 C.3   143  TRP143      0.0550
    213  CG       -22.2770  -19.3970   16.0110 C.ar  143  TRP143      0.0003
    214  CD1      -23.6670  -19.3630   15.9320 C.ar  143  TRP143      0.0946
    215  CD2      -21.9850  -20.1460   17.2410 C.ar  143  TRP143      0.0152
    216  NE1      -24.2350  -20.0160   16.9960 N.ar  143  TRP143     -0.2442
    217  CE2      -23.2840  -20.5110   17.8170 C.ar  143  TRP143      0.0810
    218  CE3      -20.8210  -20.5390   17.8950 C.ar  143  TRP143      0.0012
    219  CZ2      -23.3870  -21.2330   18.9980 C.ar  143  TRP143      0.0191
    220  CZ3      -20.9390  -21.2670   19.0850 C.ar  143  TRP143      0.0001
    221  CH2      -22.1910  -21.6040   19.6220 C.ar  143  TRP143      0.0015
    222  N        -18.2000  -23.0800   12.2660 N.3   146  ARG146     -0.1231
    223  CA       -16.8400  -22.5740   12.4310 C.3   146  ARG146      0.1694
    224  C        -16.1940  -23.0120   13.7500 C.2   146  ARG146      0.2592
    225  O        -14.9900  -23.2770   13.7930 O.2   146  ARG146     -0.2718
    226  CB       -16.8300  -21.0410   12.2980 C.3   146  ARG146      0.0321
    227  CG       -15.5120  -20.3460   12.6290 C.3   146  ARG146      0.0489
    228  CD       -14.4060  -20.6740   11.6360 C.3   146  ARG146      0.2205
    229  NE       -13.1530  -19.9980   11.9730 N.pl3 146  ARG146     -0.0865
    230  CZ       -12.2130  -20.4940   12.7750 C.cat 146  ARG146      0.5346
    231  NH1      -12.3650  -21.6850   13.3420 N.pl3 146  ARG146      0.1354
    232  NH2      -11.1140  -19.7920   13.0140 N.pl3 146  ARG146      0.1354
    233  N        -16.9940  -23.1090   14.8110 N.am  147  TRP147     -0.1976
    234  CA       -16.4560  -23.2420   16.1700 C.3   147  TRP147      0.1640
    235  C        -16.8100  -24.4910   16.9260 C.2   147  TRP147      0.2290
    236  O        -16.1110  -24.8610   17.8730 O.2   147  TRP147     -0.2864
    237  CB       -16.8420  -22.0230   17.0000 C.3   147  TRP147      0.0576
    238  CG       -16.1930  -20.7530   16.5160 C.ar  147  TRP147      0.0006
    239  CD1      -16.8100  -19.6460   15.9420 C.ar  147  TRP147      0.0946
    240  CD2      -14.7620  -20.4260   16.5340 C.ar  147  TRP147      0.0152
    241  NE1      -15.8870  -18.6830   15.6240 N.ar  147  TRP147     -0.2442
    242  CE2      -14.6410  -19.0850   15.9510 C.ar  147  TRP147      0.0810
    243  CE3      -13.6130  -21.0800   16.9660 C.ar  147  TRP147      0.0012
    244  CZ2      -13.4150  -18.4510   15.8140 C.ar  147  TRP147      0.0191
    245  CZ3      -12.3830  -20.4320   16.8200 C.ar  147  TRP147      0.0001
    246  CH2      -12.2880  -19.1480   16.2580 C.ar  147  TRP147      0.0015
@<TRIPOS>BOND
     1   190   191    2
     2   190   189    1
     3   189   188    1
     4   189   192    1
     5   192   193    1
     6   197   198    1
     7   198   199    1
     8   198   201    1
     9   199   200    2
    10   183   182    2
    11   193   194    1
    12   204   206   ar
    13   204   202   ar
    14   206   207   ar
    15   182   181    1
    16   196   195    1
    17   201   202    1
    18   202   203   ar
    19   194   195    1
    20   207   205   ar
    21   166   165    2
    22   228   229    1
    23   228   227    1
    24   203   205   ar
    25   229   230    2
    26   165   164    1
    27   181   184    1
    28   181   180    1
    29   167   168    1
    30   167   164    1
    31   222   223    1
    32    15    14   ar
    33   226   223    1
    34   226   227    1
    35   223   224    1
    36   154   153    2
    37   168   170   am
    38   168   169    2
    39   155   153   am
    40   184   185    1
    41    16    14   ar
    42   230   232    1
    43   230   231    1
    44   164   163    1
    45   180   173   am
    46   208   209    1
    47   153   152    1
    48   174   173    2
    49    31    29    1
    50    14    13    1
    51   173   172    1
    52   171   172    1
    53   151   150    2
    54    29    28    2
    55    29    30    1
    56   224   225    2
    57   224   233   am
    58    28    27    1
    59   172   175    1
    60   152   149    1
    61   209   210    1
    62   209   212    1
    63   185   187    1
    64   185   186    1
    65   163   158   am
    66    13    12    1
    67   137   136    1
    68   149   150    1
    69   149   148    1
    70   159   158    2
    71   210   211    2
    72    27    26    1
    73   233   234    1
    74    12     9    1
    75   158   157    1
    76   212   213    1
    77   146   144   ar
    78   146   147   ar
    79   175   176    1
    80   241   239   ar
    81   241   242   ar
    82   148   140   am
    83   141   140    2
    84   144   143   ar
    85   147   145   ar
    86   244   242   ar
    87   244   246   ar
    88   214   213   ar
    89   214   216   ar
    90   239   238   ar
    91   242   240   ar
    92   135   134    2
    93   176   177    1
    94   213   215   ar
    95    26    25    1
    96    25    22    1
    97   140   139    1
    98   136   133    1
    99   234   235    1
   100   234   237    1
   101   246   245   ar
   102     9    10    1
   103     9     8    1
   104   143   145   ar
   105   143   142    1
   106   157   156    1
   107   157   160    1
   108   238   240   ar
   109   238   237    1
   110   240   243   ar
   111    11    10    2
   112   134   133    1
   113   245   243   ar
   114   235   236    2
   115   216   217   ar
   116   142   139    1
   117   133   132    1
   118   161   160    1
   119   215   217   ar
   120   215   218   ar
   121     8     3   am
   122   160   162    1
   123   139   138    1
   124   177   178    1
   125    22    21    1
   126    22    23    1
   127     7     5    1
   128   217   219   ar
   129   178   179    1
   130   218   220   ar
   131    21    19   am
   132    69    68   ar
   133    69    67   ar
   134    24    23    2
   135    44    46   ar
   136    44    43   ar
   137    68    66   ar
   138    67    65   ar
   139    46    47   ar
   140     3     4    2
   141     3     2    1
   142    42    43    1
   143    42    39    1
   144    43    45   ar
   145    66    65   ar
   146    65    64    1
   147     5     2    1
   148     5     6    1
   149   219   221   ar
   150   220   221   ar
   151    19    18    1
   152    19    20    2
   153    47    45   ar
   154    47    49   ar
   155     1     2    1
   156    64    61    1
   157    45    48   ar
   158    49    51   ar
   159    18    17    1
   160    40    39    1
   161    40    41    2
   162   106   105   ar
   163   106   104   ar
   164    48    50   ar
   165   105   103   ar
   166    39    38    1
   167    51    50   ar
   168    38    34   am
   169    61    62    1
   170    61    60    1
   171    63    62    2
   172   104   102   ar
   173   103   100   ar
   174   120   118   ar
   175    60    54   am
   176    32    33    1
   177   112   111    1
   178    34    33    1
   179    34    35    2
   180   102   100   ar
   181   102   101   ar
   182   100    98   ar
   183    92    91    1
   184    33    36    1
   185   118   117    1
   186   118   119   ar
   187   111   108    1
   188    54    55    2
   189    54    53    1
   190    36    37    1
   191   117   114    1
   192    52    53    1
   193    56    53    1
   194    56    57    1
   195   101    99   ar
   196   108   107    1
   197   108   109    1
   198    98    97    1
   199    98    99   ar
   200    58    57    1
   201    91    90   ar
   202    91    89   ar
   203    96    95    2
   204    90    88   ar
   205    97    94    1
   206   107    95   am
   207   127   129   ar
   208   127   126   ar
   209    57    59    1
   210   110   109    2
   211   129   131   ar
   212    95    94    1
   213   114   115    1
   214   114   113    1
   215   116   115    2
   216   115   121   am
   217    89    87   ar
   218   121   122    1
   219   125   122    1
   220   125   126    1
   221   122   123    1
   222    94    93    1
   223   126   128   ar
   224   131   130   ar
   225    88    86   ar
   226    87    86   ar
   227   128   130   ar
   228   123   124    2
   229    86    85    1
   230    79    80   ar
   231    79    77   ar
   232    80    78   ar
   233    77    75   ar
   234    78    76   ar
   235    85    82    1
   236    83    84    2
   237    83    82    1
   238    75    76   ar
   239    75    74    1
   240    82    81    1
   241    74    71    1
   242    73    72    2
   243    72    71    1
   244    71    70    1
