@<TRIPOS>MOLECULE
tmp/4e0sB05.pdb
 90 85 0 0 0
SMALL
GASTEIGER

@<TRIPOS>ATOM
      1  N         45.3130   62.3890   74.4310 N.3   245  ASN245     -0.1240
      2  CA        45.2890   61.0340   74.9940 C.3   245  ASN245      0.1653
      3  C         43.9020   60.5230   75.4430 C.2   245  ASN245      0.2266
      4  O         43.6470   60.3840   76.6440 O.2   245  ASN245     -0.2867
      5  CB        46.2850   60.9120   76.1550 C.3   245  ASN245      0.1155
      6  CG        47.7170   61.2000   75.7440 C.2   245  ASN245      0.2627
      7  OD1       48.0160   61.4610   74.5800 O.2   245  ASN245     -0.2716
      8  ND2       48.6160   61.1620   76.7170 N.am  245  ASN245     -0.0877
      9  N         50.2420   51.2910   72.0550 N.3   487  ASP487     -0.1239
     10  CA        50.3790   51.8920   73.3930 C.3   487  ASP487      0.1674
     11  C         51.8270   51.8380   73.9160 C.2   487  ASP487      0.2266
     12  O         52.5390   50.8500   73.6970 O.2   487  ASP487     -0.2867
     13  CB        49.4020   51.2360   74.3850 C.3   487  ASP487      0.1410
     14  CG        49.5470   51.7550   75.8260 C.2   487  ASP487      0.3668
     15  OD1       50.3720   52.6480   76.1070 O.co2 487  ASP487     -0.2456
     16  OD2       48.8170   51.2530   76.7040 O.co2 487  ASP487     -0.2456
     17  N         52.6580   51.9180   77.1270 N.3   489  CYS489     -0.1235
     18  CA        52.7240   51.3300   78.4570 C.3   489  CYS489      0.1677
     19  C         53.9220   50.3800   78.5690 C.2   489  CYS489      0.2270
     20  O         54.6170   50.3300   79.5890 O.2   489  CYS489     -0.2867
     21  CB        51.4170   50.6190   78.8100 C.3   489  CYS489      0.0956
     22  SG        51.0410   49.1710   77.8090 S.3   489  CYS489     -0.0801
     23  N         58.3150   61.0490   80.8840 N.3   499  ARG499     -0.1245
     24  CA        57.2620   60.2880   80.2700 C.3   499  ARG499      0.1563
     25  C         57.7630   59.7280   78.9390 C.2   499  ARG499      0.2260
     26  O         58.0140   60.4690   77.9940 O.2   499  ARG499     -0.2867
     27  CB        55.9560   61.0850   80.2170 C.3   499  ARG499      0.0307
     28  CG        55.3260   61.1420   81.6040 C.3   499  ARG499      0.0489
     29  CD        54.3890   62.3090   81.8150 C.3   499  ARG499      0.2205
     30  NE        53.0280   61.9530   81.4300 N.pl3 499  ARG499     -0.0865
     31  CZ        51.9300   62.5010   81.9440 C.cat 499  ARG499      0.5346
     32  NH1       52.0210   63.4430   82.8820 N.pl3 499  ARG499      0.1354
     33  NH2       50.7360   62.0990   81.5200 N.pl3 499  ARG499      0.1354
     34  N         53.1970   58.2270   89.3880 N.3   534  GLY534     -0.1210
     35  CA        52.8640   56.8650   88.9470 C.3   534  GLY534      0.1956
     36  C         52.3900   56.7290   87.5060 C.2   534  GLY534      0.2612
     37  O         51.6850   57.5870   86.9890 O.2   534  GLY534     -0.2717
     38  N         52.7730   55.6430   86.8490 N.am  535  GLN535     -0.1965
     39  CA        52.2130   55.3220   85.5390 C.3   535  GLN535      0.1733
     40  C         51.9660   53.8070   85.4310 C.2   535  GLN535      0.2616
     41  O         52.7700   53.0040   85.9290 O.2   535  GLN535     -0.2715
     42  CB        53.1230   55.8080   84.4060 C.3   535  GLN535      0.0408
     43  CG        53.4940   57.2770   84.4730 C.3   535  GLN535      0.0908
     44  CD        53.7830   57.8580   83.1130 C.2   535  GLN535      0.2608
     45  OE1       54.7800   57.5040   82.4780 O.2   535  GLN535     -0.2717
     46  NE2       52.9150   58.7620   82.6540 N.am  535  GLN535     -0.0878
     47  N         50.8530   53.4370   84.7830 N.am  536  TRP536     -0.1974
     48  CA        50.4110   52.0350   84.6630 C.3   536  TRP536      0.1640
     49  C         51.4200   51.1180   84.0860 C.2   536  TRP536      0.2290
     50  O         52.2000   51.5010   83.2180 O.2   536  TRP536     -0.2864
     51  CB        49.1710   51.9260   83.7900 C.3   536  TRP536      0.0576
     52  CG        48.0260   52.7110   84.3280 C.ar  536  TRP536      0.0006
     53  CD1       47.4310   53.8400   83.7800 C.ar  536  TRP536      0.0946
     54  CD2       47.3180   52.4650   85.5670 C.ar  536  TRP536      0.0152
     55  NE1       46.4180   54.2930   84.5800 N.ar  536  TRP536     -0.2442
     56  CE2       46.2950   53.5130   85.6680 C.ar  536  TRP536      0.0810
     57  CE3       47.4150   51.5110   86.5670 C.ar  536  TRP536      0.0012
     58  CZ2       45.4240   53.5840   86.7360 C.ar  536  TRP536      0.0191
     59  CZ3       46.5320   51.5870   87.6400 C.ar  536  TRP536      0.0001
     60  CH2       45.5530   52.5970   87.7190 C.ar  536  TRP536      0.0015
     61  N         45.6830   45.9460   85.5080 N.3   555  ARG555     -0.1245
     62  CA        46.9710   46.6280   85.5740 C.3   555  ARG555      0.1563
     63  C         47.2520   46.9840   87.0210 C.2   555  ARG555      0.2260
     64  O         46.3420   47.0780   87.8520 O.2   555  ARG555     -0.2867
     65  CB        46.9780   47.9480   84.7890 C.3   555  ARG555      0.0307
     66  CG        45.7510   48.2790   83.9420 C.3   555  ARG555      0.0489
     67  CD        45.3770   49.7530   84.0630 C.3   555  ARG555      0.2205
     68  NE        45.0520   50.3500   82.7700 N.pl3 555  ARG555     -0.0865
     69  CZ        44.5130   51.5530   82.6040 C.cat 555  ARG555      0.5346
     70  NH1       44.2130   52.3070   83.6600 N.pl3 555  ARG555      0.1354
     71  NH2       44.2740   52.0030   81.3750 N.pl3 555  ARG555      0.1354
     72  N         48.6030   57.2870   89.9120 N.3   569  CYS569     -0.1221
     73  CA        48.1470   57.0870   88.5510 C.3   569  CYS569      0.1808
     74  C         46.6060   56.9360   88.5260 C.2   569  CYS569      0.2601
     75  O         46.0170   56.3890   89.4630 O.2   569  CYS569     -0.2717
     76  CB        48.9970   56.0460   87.7790 C.3   569  CYS569      0.0970
     77  SG        48.8470   54.2800   88.1200 S.3   569  CYS569     -0.0800
     78  N         45.9710   57.4890   87.4920 N.am  570  GLU570     -0.1965
     79  CA        44.5080   57.6200   87.4130 C.3   570  GLU570      0.1733
     80  C         43.9280   56.7180   86.3320 C.2   570  GLU570      0.2616
     81  O         44.4280   56.6730   85.1960 O.2   570  GLU570     -0.2715
     82  CB        44.1140   59.0670   87.1090 C.3   570  GLU570      0.0429
     83  CG        44.7760   60.1060   87.9990 C.3   570  GLU570      0.1163
     84  CD        45.4540   61.2380   87.2270 C.2   570  GLU570      0.3649
     85  OE1       45.6210   62.3200   87.8200 O.co2 570  GLU570     -0.2457
     86  OE2       45.8450   61.0650   86.0510 O.co2 570  GLU570     -0.2457
     87  N         42.8590   56.0110   86.7010 N.am  571  GLY571     -0.1955
     88  CA        42.1560   55.0780   85.8080 C.3   571  GLY571      0.1869
     89  C         41.5800   53.8330   86.4810 C.2   571  GLY571      0.2309
     90  O         41.0650   53.8790   87.5990 O.2   571  GLY571     -0.2863
@<TRIPOS>BOND
     1     9    10    1
     2    10    11    1
     3    10    13    1
     4    12    11    2
     5    13    14    1
     6     1     2    1
     7     7     6    2
     8     2     3    1
     9     2     5    1
    10     3     4    2
    11     6     5    1
    12     6     8   am
    13    14    15   ar
    14    14    16   ar
    15    17    18    1
    16    22    21    1
    17    26    25    2
    18    18    19    1
    19    18    21    1
    20    19    20    2
    21    25    24    1
    22    27    24    1
    23    27    28    1
    24    24    23    1
    25    71    69    1
    26    30    29    1
    27    30    31    2
    28    33    31    1
    29    28    29    1
    30    31    32    1
    31    45    44    2
    32    69    68    2
    33    69    70    1
    34    46    44   am
    35    68    67    1
    36    44    43    1
    37    50    49    2
    38    53    52   ar
    39    53    55   ar
    40    51    52    1
    41    51    48    1
    42    66    67    1
    43    66    65    1
    44    49    48    1
    45    52    54   ar
    46    42    43    1
    47    42    39    1
    48    55    56   ar
    49    48    47    1
    50    47    40   am
    51    65    62    1
    52    81    80    2
    53    40    39    1
    54    40    41    2
    55    61    62    1
    56    39    38    1
    57    54    56   ar
    58    54    57   ar
    59    62    63    1
    60    56    58   ar
    61    88    89    1
    62    88    87    1
    63    86    84   ar
    64    80    87   am
    65    80    79    1
    66    89    90    2
    67    57    59   ar
    68    58    60   ar
    69    38    36   am
    70    37    36    2
    71    63    64    2
    72    82    79    1
    73    82    83    1
    74    84    85   ar
    75    84    83    1
    76    79    78    1
    77    78    74   am
    78    36    35    1
    79    59    60   ar
    80    76    77    1
    81    76    73    1
    82    74    73    1
    83    74    75    2
    84    73    72    1
    85    35    34    1
