@<TRIPOS>MOLECULE
tmp/4e0sB04.pdb
 97 92 0 0 0
SMALL
GASTEIGER

@<TRIPOS>ATOM
      1  N         42.5420   57.3940   73.7910 N.3   247  GLN247     -0.1231
      2  CA        42.4710   56.1450   73.0160 C.3   247  GLN247      0.1698
      3  C         41.2590   55.2830   73.4350 C.2   247  GLN247      0.2592
      4  O         40.5830   54.6930   72.5830 O.2   247  GLN247     -0.2718
      5  CB        43.8170   55.3840   73.0990 C.3   247  GLN247      0.0381
      6  CG        45.0340   56.2330   72.6750 C.3   247  GLN247      0.0905
      7  CD        46.3880   55.5120   72.6810 C.2   247  GLN247      0.2608
      8  OE1       46.4990   54.3500   73.0690 O.2   247  GLN247     -0.2717
      9  NE2       47.4290   56.2180   72.2440 N.am  247  GLN247     -0.0878
     10  N         40.9790   55.2450   74.7410 N.am  248  GLY248     -0.1957
     11  CA        39.7840   54.5890   75.2790 C.3   248  GLY248      0.1869
     12  C         39.7740   53.1070   74.9810 C.2   248  GLY248      0.2309
     13  O         40.7050   52.5850   74.3660 O.2   248  GLY248     -0.2863
     14  N         40.8860   46.0010   68.2580 N.3   480  GLN480     -0.1245
     15  CA        41.2730   45.9550   69.6650 C.3   480  GLN480      0.1566
     16  C         42.7230   45.5310   69.8190 C.2   480  GLN480      0.2260
     17  O         43.5300   46.2670   70.3820 O.2   480  GLN480     -0.2867
     18  CB        40.4330   44.9190   70.4240 C.3   480  GLN480      0.0367
     19  CG        38.9230   45.0390   70.3440 C.3   480  GLN480      0.0905
     20  CD        38.4170   46.2160   71.1160 C.2   480  GLN480      0.2608
     21  OE1       37.7340   46.0630   72.1380 O.2   480  GLN480     -0.2717
     22  NE2       38.7680   47.4110   70.6470 N.am  480  GLN480     -0.0878
     23  N         45.3630   47.8850   68.5700 N.3   483  ALA483     -0.1231
     24  CA        45.5500   49.0300   69.4710 C.3   483  ALA483      0.1694
     25  C         46.6260   48.8560   70.5610 C.2   483  ALA483      0.2591
     26  O         47.3390   49.8070   70.9130 O.2   483  ALA483     -0.2718
     27  CB        44.2150   49.4110   70.1050 C.3   483  ALA483      0.0304
     28  N         46.7340   47.6400   71.0850 N.am  484  ALA484     -0.1980
     29  CA        47.6000   47.3610   72.2260 C.3   484  ALA484      0.1597
     30  C         49.0880   47.5350   71.9370 C.2   484  ALA484      0.2287
     31  O         49.8330   47.9600   72.8150 O.2   484  ALA484     -0.2864
     32  CB        47.3240   45.9620   72.7560 C.3   484  ALA484      0.0319
     33  N         50.2420   51.2910   72.0550 N.3   487  ASP487     -0.1239
     34  CA        50.3790   51.8920   73.3930 C.3   487  ASP487      0.1674
     35  C         51.8270   51.8380   73.9160 C.2   487  ASP487      0.2266
     36  O         52.5390   50.8500   73.6970 O.2   487  ASP487     -0.2867
     37  CB        49.4020   51.2360   74.3850 C.3   487  ASP487      0.1410
     38  CG        49.5470   51.7550   75.8260 C.2   487  ASP487      0.3668
     39  OD1       50.3720   52.6480   76.1070 O.co2 487  ASP487     -0.2456
     40  OD2       48.8170   51.2530   76.7040 O.co2 487  ASP487     -0.2456
     41  N         52.6580   51.9180   77.1270 N.3   489  CYS489     -0.1221
     42  CA        52.7240   51.3300   78.4570 C.3   489  CYS489      0.1808
     43  C         53.9220   50.3800   78.5690 C.2   489  CYS489      0.2601
     44  O         54.6170   50.3300   79.5890 O.2   489  CYS489     -0.2717
     45  CB        51.4170   50.6190   78.8100 C.3   489  CYS489      0.0970
     46  SG        51.0410   49.1710   77.8090 S.3   489  CYS489     -0.0800
     47  N         54.1710   49.6360   77.5010 N.am  490  GLN490     -0.1979
     48  CA        55.2890   48.7010   77.4910 C.3   490  GLN490      0.1601
     49  C         56.6800   49.3260   77.6790 C.2   490  GLN490      0.2287
     50  O         57.5530   48.6700   78.2150 O.2   490  GLN490     -0.2864
     51  CB        55.2380   47.7600   76.2800 C.3   490  GLN490      0.0394
     52  CG        55.2560   48.4340   74.9130 C.3   490  GLN490      0.0908
     53  CD        54.4150   47.6860   73.8730 C.2   490  GLN490      0.2608
     54  OE1       53.3490   47.1670   74.1820 O.2   490  GLN490     -0.2717
     55  NE2       54.8890   47.6430   72.6340 N.am  490  GLN490     -0.0878
     56  N         51.4370   47.8190   81.6100 N.3   538  CYS538     -0.1221
     57  CA        50.5050   47.4460   80.5510 C.3   538  CYS538      0.1808
     58  C         49.3480   46.6380   81.1310 C.2   538  CYS538      0.2601
     59  O         49.4090   46.2200   82.2890 O.2   538  CYS538     -0.2717
     60  CB        51.2290   46.6670   79.4700 C.3   538  CYS538      0.0970
     61  SG        52.3050   47.7390   78.5140 S.3   538  CYS538     -0.0800
     62  N         48.2870   46.4350   80.3520 N.am  539  TRP539     -0.1976
     63  CA        47.1730   45.5930   80.8000 C.3   539  TRP539      0.1640
     64  C         47.5260   44.1550   80.9990 C.2   539  TRP539      0.2290
     65  O         48.6420   43.7280   80.7060 O.2   539  TRP539     -0.2864
     66  CB        46.0300   45.6570   79.8270 C.3   539  TRP539      0.0576
     67  CG        45.1880   46.8570   80.0610 C.ar  539  TRP539      0.0006
     68  CD1       45.1820   48.0360   79.3320 C.ar  539  TRP539      0.0946
     69  CD2       44.1980   47.0560   81.1340 C.ar  539  TRP539      0.0152
     70  NE1       44.2690   48.9190   79.8520 N.ar  539  TRP539     -0.2442
     71  CE2       43.6490   48.3950   80.9370 C.ar  539  TRP539      0.0810
     72  CE3       43.7270   46.2850   82.1940 C.ar  539  TRP539      0.0012
     73  CZ2       42.6690   48.9230   81.7770 C.ar  539  TRP539      0.0191
     74  CZ3       42.7360   46.8300   83.0340 C.ar  539  TRP539      0.0001
     75  CH2       42.2280   48.1200   82.8320 C.ar  539  TRP539      0.0015
     76  N         40.4230   41.6970   83.2910 N.3   553  ARG553     -0.1245
     77  CA        41.7170   42.2550   82.9080 C.3   553  ARG553      0.1563
     78  C         42.2530   43.1590   84.0390 C.2   553  ARG553      0.2260
     79  O         41.4630   43.6920   84.8240 O.2   553  ARG553     -0.2867
     80  CB        41.5860   43.0160   81.5870 C.3   553  ARG553      0.0307
     81  CG        42.9140   43.2740   80.8810 C.3   553  ARG553      0.0489
     82  CD        42.7620   43.6260   79.4060 C.3   553  ARG553      0.2205
     83  NE        41.9660   44.8320   79.1920 N.pl3 553  ARG553     -0.0865
     84  CZ        42.1510   45.6860   78.1930 C.cat 553  ARG553      0.5346
     85  NH1       43.1250   45.4930   77.3050 N.pl3 553  ARG553      0.1354
     86  NH2       41.3660   46.7480   78.0980 N.pl3 553  ARG553      0.1354
     87  N         45.6830   45.9460   85.5080 N.3   555  ARG555     -0.1245
     88  CA        46.9710   46.6280   85.5740 C.3   555  ARG555      0.1563
     89  C         47.2520   46.9840   87.0210 C.2   555  ARG555      0.2260
     90  O         46.3420   47.0780   87.8520 O.2   555  ARG555     -0.2867
     91  CB        46.9780   47.9480   84.7890 C.3   555  ARG555      0.0307
     92  CG        45.7510   48.2790   83.9420 C.3   555  ARG555      0.0489
     93  CD        45.3770   49.7530   84.0630 C.3   555  ARG555      0.2205
     94  NE        45.0520   50.3500   82.7700 N.pl3 555  ARG555     -0.0865
     95  CZ        44.5130   51.5530   82.6040 C.cat 555  ARG555      0.5346
     96  NH1       44.2130   52.3070   83.6600 N.pl3 555  ARG555      0.1354
     97  NH2       44.2740   52.0030   81.3750 N.pl3 555  ARG555      0.1354
@<TRIPOS>BOND
     1    14    15    1
     2    23    24    1
     3    24    27    1
     4    24    25    1
     5    15    16    1
     6    15    18    1
     7    16    17    2
     8    19    18    1
     9    19    20    1
    10    25    26    2
    11    25    28   am
    12    22    20   am
    13    28    29    1
    14    20    21    2
    15    30    29    1
    16    30    31    2
    17    33    34    1
    18    29    32    1
    19     9     7   am
    20     4     3    2
    21    55    53   am
    22     6     7    1
    23     6     5    1
    24     7     8    2
    25     2     5    1
    26     2     3    1
    27     2     1    1
    28    34    35    1
    29    34    37    1
    30     3    10   am
    31    36    35    2
    32    53    54    2
    33    53    52    1
    34    13    12    2
    35    37    38    1
    36    10    11    1
    37    52    51    1
    38    12    11    1
    39    38    39   ar
    40    38    40   ar
    41    51    48    1
    42    41    42    1
    43    85    84    1
    44    48    47    1
    45    48    49    1
    46    47    43   am
    47    49    50    2
    48    46    61    1
    49    46    45    1
    50    86    84    1
    51    84    83    2
    52    42    43    1
    53    42    45    1
    54    61    60    1
    55    43    44    2
    56    83    82    1
    57    68    70   ar
    58    68    67   ar
    59    82    81    1
    60    60    57    1
    61    66    67    1
    62    66    63    1
    63    70    71   ar
    64    67    69   ar
    65    62    63    1
    66    62    58   am
    67    57    58    1
    68    57    56    1
    69    65    64    2
    70    63    64    1
    71    81    80    1
    72    71    69   ar
    73    71    73   ar
    74    58    59    2
    75    69    72   ar
    76    97    95    1
    77    80    77    1
    78    73    75   ar
    79    72    74   ar
    80    95    94    2
    81    95    96    1
    82    94    93    1
    83    75    74   ar
    84    77    76    1
    85    77    78    1
    86    92    93    1
    87    92    91    1
    88    78    79    2
    89    91    88    1
    90    87    88    1
    91    88    89    1
    92    89    90    2
