@<TRIPOS>MOLECULE
tmp/4e0uA00.pdb
 147 141 0 0 0
SMALL
GASTEIGER

@<TRIPOS>ATOM
      1  N          4.6380  -29.6340   -5.8780 N.3    75  CYS75      -0.1221
      2  CA         5.3250  -28.9950   -6.9960 C.3    75  CYS75       0.1808
      3  C          6.7660  -28.7170   -6.5760 C.2    75  CYS75       0.2602
      4  O          7.1030  -28.8330   -5.4040 O.2    75  CYS75      -0.2717
      5  CB         4.5970  -27.7150   -7.4070 C.3    75  CYS75       0.0970
      6  SG         5.2430  -26.9740   -8.9220 S.3    75  CYS75      -0.0800
      7  N          7.6240  -28.3700   -7.5270 N.am   76  THR76      -0.1939
      8  CA         9.0650  -28.2230   -7.2370 C.3    76  THR76       0.2028
      9  C          9.6030  -26.8070   -7.4630 C.2    76  THR76       0.2642
     10  O         10.8020  -26.5740   -7.3940 O.2    76  THR76      -0.2714
     11  CB         9.8850  -29.2490   -8.0400 C.3    76  THR76       0.1808
     12  OG1        9.4880  -29.2000   -9.4180 O.3    76  THR76      -0.2208
     13  CG2        9.6580  -30.6550   -7.4810 C.3    76  THR76       0.0379
     14  N          8.7140  -25.8530   -7.7020 N.am   77  LEU77      -0.1977
     15  CA         9.1420  -24.4620   -7.8260 C.3    77  LEU77       0.1596
     16  C          9.7070  -24.0150   -6.4930 C.2    77  LEU77       0.2287
     17  O          9.1720  -24.3500   -5.4350 O.2    77  LEU77      -0.2864
     18  CB         7.9940  -23.5590   -8.2580 C.3    77  LEU77       0.0297
     19  CG         7.6000  -23.6980   -9.7320 C.3    77  LEU77       0.0022
     20  CD1        6.2160  -23.0750   -9.9970 C.3    77  LEU77       0.0001
     21  CD2        8.6560  -23.0710  -10.6230 C.3    77  LEU77       0.0001
     22  N          7.7910  -19.4870   -6.8140 N.3    84  GLU84      -0.1245
     23  CA         9.2420  -19.2440   -6.8950 C.3    84  GLU84       0.1567
     24  C          9.5050  -17.8420   -7.3820 C.2    84  GLU84       0.2260
     25  O          8.9630  -17.4360   -8.3990 O.2    84  GLU84      -0.2867
     26  CB         9.8970  -20.2360   -7.8620 C.3    84  GLU84       0.0388
     27  CG        11.4120  -20.2590   -7.8640 C.3    84  GLU84       0.1160
     28  CD        11.9880  -21.1020   -9.0000 C.2    84  GLU84       0.3649
     29  OE1       12.2980  -22.2960   -8.7850 O.co2  84  GLU84      -0.2457
     30  OE2       12.1230  -20.5640  -10.1180 O.co2  84  GLU84      -0.2457
     31  N          7.0060  -16.8280  -10.2910 N.3    99  ALA99      -0.1245
     32  CA         6.4750  -17.9550  -11.0600 C.3    99  ALA99       0.1562
     33  C          5.6930  -18.8190  -10.1020 C.2    99  ALA99       0.2260
     34  O          6.0160  -18.8710   -8.9260 O.2    99  ALA99      -0.2867
     35  CB         7.6010  -18.7500  -11.7340 C.3    99  ALA99       0.0290
     36  N         10.8440  -37.2650  -13.4020 N.3   167  PHE167     -0.1241
     37  CA        10.5460  -35.8200  -13.3720 C.3   167  PHE167      0.1605
     38  C          9.6760  -35.3220  -12.1870 C.2   167  PHE167      0.2264
     39  O          9.5820  -34.1090  -11.9640 O.2   167  PHE167     -0.2867
     40  CB         9.9270  -35.3860  -14.7180 C.3   167  PHE167      0.0534
     41  CG        10.9020  -35.4070  -15.8770 C.ar  167  PHE167     -0.0203
     42  CD1       11.7590  -34.3280  -16.1050 C.ar  167  PHE167     -0.0042
     43  CD2       10.9660  -36.5090  -16.7370 C.ar  167  PHE167     -0.0042
     44  CE1       12.6690  -34.3410  -17.1750 C.ar  167  PHE167     -0.0003
     45  CE2       11.8740  -36.5400  -17.8100 C.ar  167  PHE167     -0.0003
     46  CZ        12.7270  -35.4520  -18.0300 C.ar  167  PHE167     -0.0000
     47  N          6.7730  -34.2390  -10.8650 N.3   169  VAL169     -0.1245
     48  CA         5.5100  -33.5020  -10.7930 C.3   169  VAL169      0.1561
     49  C          4.5300  -33.8530  -11.9070 C.2   169  VAL169      0.2260
     50  O          4.9330  -34.1020  -13.0420 O.2   169  VAL169     -0.2867
     51  CB         5.7450  -31.9770  -10.8110 C.3   169  VAL169      0.0252
     52  CG1        6.5630  -31.5660   -9.5960 C.3   169  VAL169      0.0019
     53  CG2        6.4160  -31.5260  -12.1180 C.3   169  VAL169      0.0019
     54  N          2.6430  -31.6080  -13.0490 N.3   171  THR171     -0.1218
     55  CA         2.3460  -30.2660  -13.5320 C.3   171  THR171      0.1862
     56  C          2.2350  -30.1380  -15.0550 C.2   171  THR171      0.2287
     57  O          3.1320  -30.5560  -15.7850 O.2   171  THR171     -0.2866
     58  CB         3.4320  -29.3090  -13.0500 C.3   171  THR171      0.1770
     59  OG1        3.4640  -29.3420  -11.6180 O.3   171  THR171     -0.2211
     60  CG2        3.1910  -27.8760  -13.5570 C.3   171  THR171      0.0375
     61  N          2.6220  -23.7790  -15.7860 N.3   174  VAL174     -0.1245
     62  CA         3.1240  -22.8020  -14.8330 C.3   174  VAL174      0.1561
     63  C          2.8430  -21.4150  -15.4010 C.2   174  VAL174      0.2260
     64  O          2.8310  -21.2350  -16.6120 O.2   174  VAL174     -0.2867
     65  CB         4.6210  -22.9760  -14.5900 C.3   174  VAL174      0.0252
     66  CG1        5.1920  -21.7860  -13.8170 C.3   174  VAL174      0.0019
     67  CG2        4.8970  -24.3090  -13.8680 C.3   174  VAL174      0.0019
     68  N          3.8460  -21.3490  -19.2130 N.3   189  TYR189     -0.1241
     69  CA         4.6730  -22.4970  -19.5700 C.3   189  TYR189      0.1605
     70  C          3.8210  -23.7500  -19.6920 C.2   189  TYR189      0.2264
     71  O          2.9530  -23.9950  -18.8480 O.2   189  TYR189     -0.2867
     72  CB         5.6990  -22.7530  -18.4950 C.3   189  TYR189      0.0534
     73  CG         6.5780  -21.5760  -18.2010 C.ar  189  TYR189     -0.0201
     74  CD1        7.8560  -21.4820  -18.7300 C.ar  189  TYR189     -0.0009
     75  CD2        6.1400  -20.5640  -17.3760 C.ar  189  TYR189     -0.0009
     76  CE1        8.6680  -20.4090  -18.4400 C.ar  189  TYR189      0.0417
     77  CE2        6.9430  -19.4840  -17.0920 C.ar  189  TYR189      0.0417
     78  CZ         8.1980  -19.4130  -17.6210 C.ar  189  TYR189      0.1957
     79  OH         8.9670  -18.3300  -17.3120 O.3   189  TYR189     -0.2866
     80  N          3.8590  -28.0230  -20.2560 N.3   191  PHE191     -0.1241
     81  CA         4.6890  -29.1900  -20.0130 C.3   191  PHE191      0.1605
     82  C          4.0620  -30.4330  -20.6060 C.2   191  PHE191      0.2264
     83  O          3.1760  -31.0320  -20.0030 O.2   191  PHE191     -0.2867
     84  CB         4.9030  -29.3420  -18.5130 C.3   191  PHE191      0.0534
     85  CG         5.6680  -28.2060  -17.9280 C.ar  191  PHE191     -0.0203
     86  CD1        7.0530  -28.2000  -17.9720 C.ar  191  PHE191     -0.0042
     87  CD2        5.0130  -27.1150  -17.4000 C.ar  191  PHE191     -0.0042
     88  CE1        7.7710  -27.1380  -17.4600 C.ar  191  PHE191     -0.0003
     89  CE2        5.7190  -26.0510  -16.8780 C.ar  191  PHE191     -0.0003
     90  CZ         7.1050  -26.0600  -16.9140 C.ar  191  PHE191     -0.0000
     91  N         10.0150  -28.2000  -23.5220 N.3   240  PHE240     -0.1241
     92  CA         8.7750  -27.5040  -23.1800 C.3   240  PHE240      0.1605
     93  C          8.7110  -26.0560  -23.6710 C.2   240  PHE240      0.2264
     94  O          9.7100  -25.4800  -24.0730 O.2   240  PHE240     -0.2867
     95  CB         8.4440  -27.6360  -21.6840 C.3   240  PHE240      0.0534
     96  CG         9.3790  -26.9160  -20.7600 C.ar  240  PHE240     -0.0203
     97  CD1       10.4030  -27.5950  -20.1190 C.ar  240  PHE240     -0.0042
     98  CD2        9.1770  -25.5820  -20.4530 C.ar  240  PHE240     -0.0042
     99  CE1       11.2500  -26.9370  -19.2160 C.ar  240  PHE240     -0.0003
    100  CE2       10.0180  -24.9160  -19.5600 C.ar  240  PHE240     -0.0003
    101  CZ        11.0570  -25.5920  -18.9430 C.ar  240  PHE240     -0.0000
    102  N         12.2340  -24.7680  -24.3520 N.3   256  TYR256     -0.1241
    103  CA        13.1930  -25.1650  -23.3240 C.3   256  TYR256      0.1605
    104  C         13.6210  -26.6090  -23.4970 C.2   256  TYR256      0.2264
    105  O         12.8100  -27.4570  -23.8820 O.2   256  TYR256     -0.2867
    106  CB        12.5880  -25.0260  -21.9280 C.3   256  TYR256      0.0534
    107  CG        12.3730  -23.6130  -21.4530 C.ar  256  TYR256     -0.0201
    108  CD1       11.3670  -22.8360  -21.9880 C.ar  256  TYR256     -0.0009
    109  CD2       13.1580  -23.0670  -20.4400 C.ar  256  TYR256     -0.0009
    110  CE1       11.1510  -21.5580  -21.5480 C.ar  256  TYR256      0.0417
    111  CE2       12.9490  -21.7820  -19.9880 C.ar  256  TYR256      0.0417
    112  CZ        11.9350  -21.0300  -20.5460 C.ar  256  TYR256      0.1957
    113  OH        11.6820  -19.7400  -20.1160 O.3   256  TYR256     -0.2866
    114  N         19.8780  -26.1950  -18.4370 N.3   317  MET317     -0.1245
    115  CA        18.7600  -25.9210  -19.3280 C.3   317  MET317      0.1570
    116  C         19.0670  -24.7480  -20.2450 C.2   317  MET317      0.2261
    117  O         19.8810  -23.8760  -19.9230 O.2   317  MET317     -0.2867
    118  CB        17.4970  -25.6080  -18.5270 C.3   317  MET317      0.0387
    119  CG        17.0750  -26.7150  -17.5570 C.3   317  MET317      0.0595
    120  SD        15.4550  -26.3950  -16.8490 S.3   317  MET317     -0.1393
    121  CE        15.3980  -27.7210  -15.6260 C.3   317  MET317      0.0692
    122  N         19.5230  -21.2380   -9.5760 N.3   387  TRP387     -0.1241
    123  CA        19.9020  -21.0290  -10.9880 C.3   387  TRP387      0.1605
    124  C         20.3760  -19.6170  -11.2790 C.2   387  TRP387      0.2264
    125  O         19.8770  -18.6470  -10.6870 O.2   387  TRP387     -0.2867
    126  CB        18.7370  -21.2630  -11.9480 C.3   387  TRP387      0.0550
    127  CG        18.0340  -22.5440  -11.8470 C.ar  387  TRP387      0.0003
    128  CD1       16.9410  -22.8290  -11.0600 C.ar  387  TRP387      0.0946
    129  CD2       18.2920  -23.7120  -12.6150 C.ar  387  TRP387      0.0152
    130  NE1       16.5250  -24.1200  -11.2850 N.ar  387  TRP387     -0.2442
    131  CE2       17.3410  -24.6860  -12.2290 C.ar  387  TRP387      0.0810
    132  CE3       19.2190  -24.0290  -13.6000 C.ar  387  TRP387      0.0012
    133  CZ2       17.3180  -25.9570  -12.7800 C.ar  387  TRP387      0.0191
    134  CZ3       19.2040  -25.2940  -14.1410 C.ar  387  TRP387      0.0001
    135  CH2       18.2580  -26.2450  -13.7340 C.ar  387  TRP387      0.0015
    136  N         17.4110  -17.3380   -9.8710 N.3   403  TYR403     -0.1241
    137  CA        16.1920  -17.9910   -9.4220 C.3   403  TYR403      0.1605
    138  C         16.3980  -18.5460   -8.0140 C.2   403  TYR403      0.2264
    139  O         17.2850  -19.3650   -7.8160 O.2   403  TYR403     -0.2867
    140  CB        15.8320  -19.1350  -10.3710 C.3   403  TYR403      0.0534
    141  CG        15.5190  -18.7150  -11.7840 C.ar  403  TYR403     -0.0201
    142  CD1       16.5350  -18.4050  -12.6810 C.ar  403  TYR403     -0.0009
    143  CD2       14.2010  -18.6440  -12.2340 C.ar  403  TYR403     -0.0009
    144  CE1       16.2470  -18.0130  -13.9920 C.ar  403  TYR403      0.0417
    145  CE2       13.9020  -18.2580  -13.5330 C.ar  403  TYR403      0.0417
    146  CZ        14.9340  -17.9460  -14.4080 C.ar  403  TYR403      0.1957
    147  OH        14.6440  -17.5720  -15.6970 O.3   403  TYR403     -0.2866
@<TRIPOS>BOND
     1   102   103    1
     2    94    93    2
     3   105   104    2
     4    93    92    1
     5    91    92    1
     6   104   103    1
     7   103   106    1
     8    92    95    1
     9   108   110   ar
    10   108   107   ar
    11   106   107    1
    12    95    96    1
    13   110   112   ar
    14   107   109   ar
    15    96    98   ar
    16    96    97   ar
    17    82    81    1
    18    82    83    2
    19   112   113    1
    20   112   111   ar
    21    98   100   ar
    22   109   111   ar
    23    80    81    1
    24   116   117    2
    25   116   115    1
    26    97    99   ar
    27    81    84    1
    28    70    69    1
    29    70    71    2
    30    69    68    1
    31    69    72    1
    32   100   101   ar
    33   115   118    1
    34   115   114    1
    35    99   101   ar
    36    74    76   ar
    37    74    73   ar
    38   118   119    1
    39    84    85    1
    40    72    73    1
    41    76    78   ar
    42    73    75   ar
    43    46    45   ar
    44    46    44   ar
    45    86    85   ar
    46    86    88   ar
    47    85    87   ar
    48    45    43   ar
    49    78    79    1
    50    78    77   ar
    51   119   120    1
    52    88    90   ar
    53    87    89   ar
    54    75    77   ar
    55    44    42   ar
    56    90    89   ar
    57   120   121    1
    58    43    41   ar
    59    64    63    2
    60    42    41   ar
    61    41    40    1
    62    61    62    1
    63    57    56    2
    64   147   146    1
    65    63    62    1
    66    56    55    1
    67    62    65    1
    68    40    37    1
    69    65    67    1
    70    65    66    1
    71   146   144   ar
    72   146   145   ar
    73   134   135   ar
    74   134   132   ar
    75   144   142   ar
    76   135   133   ar
    77   132   129   ar
    78    60    58    1
    79   145   143   ar
    80    55    58    1
    81    55    54    1
    82    36    37    1
    83    37    38    1
    84    58    59    1
    85    50    49    2
    86   133   131   ar
    87   142   141   ar
    88   129   131   ar
    89   129   127   ar
    90   143   141   ar
    91   131   130   ar
    92    38    39    2
    93    53    51    1
    94   126   127    1
    95   126   123    1
    96    49    48    1
    97   127   128   ar
    98   141   140    1
    99    35    32    1
   100   130   128   ar
   101   124   123    1
   102   124   125    2
   103    32    31    1
   104    32    33    1
   105   123   122    1
   106    47    48    1
   107    51    48    1
   108    51    52    1
   109    21    19    1
   110   140   137    1
   111    30    28   ar
   112    33    34    2
   113    20    19    1
   114   136   137    1
   115    19    18    1
   116   137   138    1
   117    12    11    1
   118    28    29   ar
   119    28    27    1
   120     6     5    1
   121    25    24    2
   122    18    15    1
   123    11    13    1
   124    11     8    1
   125   138   139    2
   126    27    26    1
   127    26    23    1
   128    15    14    1
   129    15    16    1
   130    14     9   am
   131     7     8    1
   132     7     3   am
   133     9    10    2
   134     9     8    1
   135     5     2    1
   136    24    23    1
   137     2     3    1
   138     2     1    1
   139    23    22    1
   140     3     4    2
   141    16    17    2
