@<TRIPOS>MOLECULE
tmp/4e0uA01.pdb
 129 121 0 0 0
SMALL
GASTEIGER

@<TRIPOS>ATOM
      1  N         10.4130  -11.1710  -10.6480 N.3    97  ARG97      -0.1245
      2  CA         9.3850  -11.9970  -11.2730 C.3    97  ARG97       0.1563
      3  C          8.9110  -13.0500  -10.2850 C.2    97  ARG97       0.2260
      4  O          9.6490  -13.4620   -9.3860 O.2    97  ARG97      -0.2867
      5  CB         9.8980  -12.6770  -12.5410 C.3    97  ARG97       0.0307
      6  CG        10.5160  -11.7370  -13.5730 C.3    97  ARG97       0.0489
      7  CD        12.0670  -11.6850  -13.4980 C.3    97  ARG97       0.2205
      8  NE        12.6350  -13.0180  -13.7080 N.pl3  97  ARG97      -0.0865
      9  CZ        12.7300  -13.6400  -14.8830 C.cat  97  ARG97       0.5346
     10  NH1       12.3250  -13.0520  -16.0100 N.pl3  97  ARG97       0.1354
     11  NH2       13.2390  -14.8660  -14.9280 N.pl3  97  ARG97       0.1354
     12  N          6.0360  -11.1920  -14.8720 N.3   178  ASP178     -0.1239
     13  CA         7.1350  -10.2190  -14.8980 C.3   178  ASP178      0.1674
     14  C          6.5930   -8.9250  -14.3080 C.2   178  ASP178      0.2266
     15  O          5.6970   -8.3210  -14.8880 O.2   178  ASP178     -0.2867
     16  CB         7.6120   -9.9250  -16.3300 C.3   178  ASP178      0.1410
     17  CG         8.5060  -11.0180  -16.9230 C.2   178  ASP178      0.3668
     18  OD1        9.2500  -10.7050  -17.8930 O.co2 178  ASP178     -0.2456
     19  OD2        8.4760  -12.1740  -16.4490 O.co2 178  ASP178     -0.2456
     20  N          3.3700  -14.7120  -18.3750 N.3   187  LYS187     -0.1245
     21  CA         3.9550  -15.7070  -19.2680 C.3   187  LYS187      0.1561
     22  C          3.4010  -17.0740  -18.8630 C.2   187  LYS187      0.2260
     23  O          3.2230  -17.3290  -17.6830 O.2   187  LYS187     -0.2867
     24  CB         5.4940  -15.6850  -19.1530 C.3   187  LYS187      0.0271
     25  CG         6.1390  -14.2560  -19.1890 C.3   187  LYS187      0.0035
     26  CD         7.6980  -14.2330  -19.0420 C.3   187  LYS187      0.0206
     27  CE         8.2000  -15.0430  -17.8230 C.3   187  LYS187      0.1093
     28  NZ         9.5420  -14.6250  -17.2520 N.3   187  LYS187     -0.1314
     29  N          3.8460  -21.3490  -19.2130 N.3   189  TYR189     -0.1241
     30  CA         4.6730  -22.4970  -19.5700 C.3   189  TYR189      0.1605
     31  C          3.8210  -23.7500  -19.6920 C.2   189  TYR189      0.2264
     32  O          2.9530  -23.9950  -18.8480 O.2   189  TYR189     -0.2867
     33  CB         5.6990  -22.7530  -18.4950 C.3   189  TYR189      0.0534
     34  CG         6.5780  -21.5760  -18.2010 C.ar  189  TYR189     -0.0201
     35  CD1        7.8560  -21.4820  -18.7300 C.ar  189  TYR189     -0.0009
     36  CD2        6.1400  -20.5640  -17.3760 C.ar  189  TYR189     -0.0009
     37  CE1        8.6680  -20.4090  -18.4400 C.ar  189  TYR189      0.0417
     38  CE2        6.9430  -19.4840  -17.0920 C.ar  189  TYR189      0.0417
     39  CZ         8.1980  -19.4130  -17.6210 C.ar  189  TYR189      0.1957
     40  OH         8.9670  -18.3300  -17.3120 O.3   189  TYR189     -0.2866
     41  N          6.2720  -13.7680  -27.8920 N.3   252  ARG252     -0.1245
     42  CA         7.5290  -14.4340  -28.1610 C.3   252  ARG252      0.1563
     43  C          7.3750  -15.8750  -27.6810 C.2   252  ARG252      0.2260
     44  O          6.7020  -16.1290  -26.6790 O.2   252  ARG252     -0.2867
     45  CB         8.7140  -13.6810  -27.5180 C.3   252  ARG252      0.0307
     46  CG         8.8090  -13.7730  -26.0180 C.3   252  ARG252      0.0489
     47  CD         9.5860  -12.6160  -25.3580 C.3   252  ARG252      0.2205
     48  NE         9.3200  -12.6350  -23.9070 N.pl3 252  ARG252     -0.0865
     49  CZ        10.1030  -13.1820  -22.9720 C.cat 252  ARG252      0.5346
     50  NH1       11.2750  -13.7330  -23.2820 N.pl3 252  ARG252      0.1354
     51  NH2        9.7160  -13.1510  -21.6950 N.pl3 252  ARG252      0.1354
     52  N          9.3820  -19.5170  -26.6330 N.3   254  LYS254     -0.1245
     53  CA        10.6450  -19.9930  -26.0920 C.3   254  LYS254      0.1561
     54  C         10.5210  -21.4810  -25.8720 C.2   254  LYS254      0.2260
     55  O          9.5920  -21.9340  -25.1950 O.2   254  LYS254     -0.2867
     56  CB        10.9460  -19.3110  -24.7710 C.3   254  LYS254      0.0271
     57  CG        10.9690  -17.8030  -24.8530 C.3   254  LYS254      0.0035
     58  CD        11.3880  -17.1740  -23.5360 C.3   254  LYS254      0.0206
     59  CE        10.3290  -17.3610  -22.4380 C.3   254  LYS254      0.1093
     60  NZ        10.5460  -16.4710  -21.2620 N.3   254  LYS254     -0.1314
     61  N         12.2340  -24.7680  -24.3520 N.3   256  TYR256     -0.1241
     62  CA        13.1930  -25.1650  -23.3240 C.3   256  TYR256      0.1605
     63  C         13.6210  -26.6090  -23.4970 C.2   256  TYR256      0.2264
     64  O         12.8100  -27.4570  -23.8820 O.2   256  TYR256     -0.2867
     65  CB        12.5880  -25.0260  -21.9280 C.3   256  TYR256      0.0534
     66  CG        12.3730  -23.6130  -21.4530 C.ar  256  TYR256     -0.0201
     67  CD1       11.3670  -22.8360  -21.9880 C.ar  256  TYR256     -0.0009
     68  CD2       13.1580  -23.0670  -20.4400 C.ar  256  TYR256     -0.0009
     69  CE1       11.1510  -21.5580  -21.5480 C.ar  256  TYR256      0.0417
     70  CE2       12.9490  -21.7820  -19.9880 C.ar  256  TYR256      0.0417
     71  CZ        11.9350  -21.0300  -20.5460 C.ar  256  TYR256      0.1957
     72  OH        11.6820  -19.7400  -20.1160 O.3   256  TYR256     -0.2866
     73  N         19.4750  -18.7230  -24.3930 N.3   332  LYS332     -0.1245
     74  CA        19.6250  -18.3550  -22.9860 C.3   332  LYS332      0.1561
     75  C         20.0700  -19.5710  -22.1440 C.2   332  LYS332      0.2260
     76  O         19.3980  -20.6010  -22.1260 O.2   332  LYS332     -0.2867
     77  CB        18.3000  -17.8160  -22.4480 C.3   332  LYS332      0.0271
     78  CG        18.3900  -17.1770  -21.0560 C.3   332  LYS332      0.0035
     79  CD        17.0880  -16.5090  -20.6580 C.3   332  LYS332      0.0206
     80  CE        16.8570  -15.1840  -21.3750 C.3   332  LYS332      0.1093
     81  NZ        15.3900  -14.9100  -21.5390 N.3   332  LYS332     -0.1314
     82  N         20.8060  -21.5960  -18.6650 N.3   334  TYR334     -0.1241
     83  CA        20.4590  -21.7250  -17.2480 C.3   334  TYR334      0.1605
     84  C         21.4790  -22.5990  -16.5420 C.2   334  TYR334      0.2264
     85  O         21.4680  -23.8180  -16.6920 O.2   334  TYR334     -0.2867
     86  CB        19.0730  -22.3340  -17.0980 C.3   334  TYR334      0.0534
     87  CG        17.9670  -21.4640  -17.6340 C.ar  334  TYR334     -0.0201
     88  CD1       17.6730  -21.4520  -18.9810 C.ar  334  TYR334     -0.0009
     89  CD2       17.2200  -20.6520  -16.7920 C.ar  334  TYR334     -0.0009
     90  CE1       16.6610  -20.6580  -19.4870 C.ar  334  TYR334      0.0417
     91  CE2       16.1970  -19.8540  -17.2820 C.ar  334  TYR334      0.0417
     92  CZ        15.9230  -19.8600  -18.6360 C.ar  334  TYR334      0.1957
     93  OH        14.9220  -19.0820  -19.1720 O.3   334  TYR334     -0.2866
     94  N         20.5210  -17.6100  -14.9270 N.3   389  SER389     -0.1217
     95  CA        20.2820  -17.5730  -16.3880 C.3   389  SER389      0.1889
     96  C         21.1980  -16.5590  -17.0270 C.2   389  SER389      0.2288
     97  O         21.5410  -15.5620  -16.4030 O.2   389  SER389     -0.2866
     98  CB        18.8530  -17.1560  -16.7130 C.3   389  SER389      0.2089
     99  OG        18.7030  -15.7510  -16.5540 O.3   389  SER389     -0.2183
    100  N         22.3600  -10.1770  -19.8230 N.3   399  TYR399     -0.1241
    101  CA        21.0640  -10.4230  -19.1940 C.3   399  TYR399      0.1605
    102  C         21.2240  -11.6450  -18.2370 C.2   399  TYR399      0.2264
    103  O         21.4520  -12.7730  -18.6820 O.2   399  TYR399     -0.2867
    104  CB        20.0000  -10.6560  -20.3050 C.3   399  TYR399      0.0534
    105  CG        18.5390  -10.8720  -19.8670 C.ar  399  TYR399     -0.0201
    106  CD1       17.5860   -9.8490  -19.9500 C.ar  399  TYR399     -0.0009
    107  CD2       18.1060  -12.1170  -19.4050 C.ar  399  TYR399     -0.0009
    108  CE1       16.2380  -10.0590  -19.5630 C.ar  399  TYR399      0.0417
    109  CE2       16.7740  -12.3380  -19.0100 C.ar  399  TYR399      0.0417
    110  CZ        15.8390  -11.3100  -19.0950 C.ar  399  TYR399      0.1957
    111  OH        14.5300  -11.5610  -18.6840 O.3   399  TYR399     -0.2866
    112  N         19.4790  -13.5790  -14.6830 N.3   401  SER401     -0.1217
    113  CA        18.4850  -13.7000  -13.6340 C.3   401  SER401      0.1889
    114  C         18.9580  -14.7280  -12.6070 C.2   401  SER401      0.2288
    115  O         19.5590  -15.7340  -12.9710 O.2   401  SER401     -0.2866
    116  CB        17.1260  -14.1370  -14.2150 C.3   401  SER401      0.2089
    117  OG        16.6970  -13.3100  -15.2890 O.3   401  SER401     -0.2183
    118  N         17.4110  -17.3380   -9.8710 N.3   403  TYR403     -0.1241
    119  CA        16.1920  -17.9910   -9.4220 C.3   403  TYR403      0.1605
    120  C         16.3980  -18.5460   -8.0140 C.2   403  TYR403      0.2264
    121  O         17.2850  -19.3650   -7.8160 O.2   403  TYR403     -0.2867
    122  CB        15.8320  -19.1350  -10.3710 C.3   403  TYR403      0.0534
    123  CG        15.5190  -18.7150  -11.7840 C.ar  403  TYR403     -0.0201
    124  CD1       16.5350  -18.4050  -12.6810 C.ar  403  TYR403     -0.0009
    125  CD2       14.2010  -18.6440  -12.2340 C.ar  403  TYR403     -0.0009
    126  CE1       16.2470  -18.0130  -13.9920 C.ar  403  TYR403      0.0417
    127  CE2       13.9020  -18.2580  -13.5330 C.ar  403  TYR403      0.0417
    128  CZ        14.9340  -17.9460  -14.4080 C.ar  403  TYR403      0.1957
    129  OH        14.6440  -17.5720  -15.6970 O.3   403  TYR403     -0.2866
@<TRIPOS>BOND
     1    42    41    1
     2    42    43    1
     3    42    45    1
     4    43    44    2
     5    45    46    1
     6    52    53    1
     7    53    54    1
     8    53    56    1
     9    46    47    1
    10    54    55    2
    11    47    48    1
    12    57    56    1
    13    57    58    1
    14    73    74    1
    15    61    62    1
    16    48    49    2
    17    64    63    2
    18    58    59    1
    19    63    62    1
    20    62    65    1
    21    50    49    1
    22    74    77    1
    23    74    75    1
    24    49    51    1
    25    77    78    1
    26    59    60    1
    27    75    76    2
    28    67    69   ar
    29    67    66   ar
    30    65    66    1
    31    69    71   ar
    32    81    80    1
    33    66    68   ar
    34    80    79    1
    35    78    79    1
    36    71    72    1
    37    71    70   ar
    38    68    70   ar
    39   104   105    1
    40   104   101    1
    41   106   105   ar
    42   106   108   ar
    43   105   107   ar
    44   100   101    1
    45    31    30    1
    46    31    32    2
    47    30    29    1
    48    30    33    1
    49   108   110   ar
    50    90    88   ar
    51    90    92   ar
    52   107   109   ar
    53    21    24    1
    54    21    22    1
    55    21    20    1
    56   101   102    1
    57    25    24    1
    58    25    26    1
    59    93    92    1
    60   110   109   ar
    61   110   111    1
    62    26    27    1
    63    88    87   ar
    64    22    23    2
    65    35    37   ar
    66    35    34   ar
    67   103   102    2
    68    82    83    1
    69    92    91   ar
    70    33    34    1
    71    37    39   ar
    72    34    36   ar
    73    18    17   ar
    74    27    28    1
    75    87    86    1
    76    87    89   ar
    77    39    40    1
    78    39    38   ar
    79    36    38   ar
    80    91    89   ar
    81    83    86    1
    82    83    84    1
    83    96    97    2
    84    96    95    1
    85    17    19   ar
    86    17    16    1
    87    98    99    1
    88    98    95    1
    89    85    84    2
    90    95    94    1
    91    16    13    1
    92    10     9    1
    93   129   128    1
    94   117   116    1
    95    11     9    1
    96    13    12    1
    97    13    14    1
    98    15    14    2
    99     9     8    2
   100   112   113    1
   101   128   126   ar
   102   128   127   ar
   103   116   113    1
   104   126   124   ar
   105     8     7    1
   106   113   114    1
   107     6     7    1
   108     6     5    1
   109   127   125   ar
   110   115   114    2
   111   124   123   ar
   112     5     2    1
   113   125   123   ar
   114   123   122    1
   115     2     1    1
   116     2     3    1
   117   122   119    1
   118     3     4    2
   119   118   119    1
   120   119   120    1
   121   120   121    2
