@<TRIPOS>MOLECULE
tmp/4e0wA00.pdb
 146 139 0 0 0
SMALL
GASTEIGER

@<TRIPOS>ATOM
      1  N         -9.1990   34.2660  -22.4460 N.3    11  GLU11      -0.1245
      2  CA        -9.4690   33.0040  -21.7700 C.3    11  GLU11       0.1567
      3  C        -10.9370   32.9400  -21.3290 C.2    11  GLU11       0.2260
      4  O        -11.3710   33.7520  -20.5190 O.2    11  GLU11      -0.2867
      5  CB        -8.5440   32.8580  -20.5480 C.3    11  GLU11       0.0388
      6  CG        -8.7920   31.6120  -19.7110 C.3    11  GLU11       0.1160
      7  CD        -8.3180   30.3340  -20.3890 C.2    11  GLU11       0.3649
      8  OE1       -7.3410   30.3910  -21.1850 O.co2  11  GLU11      -0.2457
      9  OE2       -8.9330   29.2690  -20.1290 O.co2  11  GLU11      -0.2457
     10  N          1.5490   35.0360  -22.4910 N.3    58  LYS58      -0.1231
     11  CA         1.6740   34.1740  -21.3170 C.3    58  LYS58       0.1693
     12  C          1.2770   34.8710  -20.0150 C.2    58  LYS58       0.2592
     13  O          1.2450   36.0990  -19.9270 O.2    58  LYS58      -0.2718
     14  CB         3.0730   33.5610  -21.2060 C.3    58  LYS58       0.0285
     15  CG         3.1110   32.0550  -21.5010 C.3    58  LYS58       0.0035
     16  CD         1.8710   31.3200  -20.9500 C.3    58  LYS58       0.0206
     17  CE         2.0350   30.8770  -19.4960 C.3    58  LYS58       0.1093
     18  NZ         0.8910   30.0200  -19.0610 N.3    58  LYS58      -0.1314
     19  N          0.9590   34.0600  -19.0200 N.am   59  TYR59      -0.1976
     20  CA         0.6570   34.5330  -17.6840 C.3    59  TYR59       0.1639
     21  C          1.9080   35.0530  -16.9720 C.2    59  TYR59       0.2290
     22  O          2.0130   36.2500  -16.6560 O.2    59  TYR59      -0.2864
     23  CB        -0.0340   33.4170  -16.9020 C.3    59  TYR59       0.0560
     24  CG        -1.4670   33.2730  -17.3720 C.ar   59  TYR59      -0.0198
     25  CD1       -2.5070   33.8830  -16.6810 C.ar   59  TYR59      -0.0009
     26  CD2       -1.7720   32.5980  -18.5600 C.ar   59  TYR59      -0.0009
     27  CE1       -3.8060   33.7930  -17.1230 C.ar   59  TYR59       0.0417
     28  CE2       -3.0730   32.5150  -19.0200 C.ar   59  TYR59       0.0417
     29  CZ        -4.0840   33.1060  -18.2930 C.ar   59  TYR59       0.1957
     30  OH        -5.3770   33.0100  -18.7270 O.3    59  TYR59      -0.2866
     31  N         -7.4340   35.5020  -15.0640 N.3    86  PRO86      -0.2102
     32  CA        -7.3990   34.5410  -13.9520 C.3    86  PRO86       0.1504
     33  C         -5.9310   34.2750  -13.5550 C.2    86  PRO86       0.2576
     34  O         -5.3480   33.2510  -13.9070 O.2    86  PRO86      -0.2718
     35  CB        -8.1070   33.2970  -14.5370 C.3    86  PRO86       0.0282
     36  CG        -7.8430   33.3840  -16.0420 C.3    86  PRO86       0.0208
     37  CD        -7.8040   34.8720  -16.3560 C.3    86  PRO86       0.0893
     38  N         -5.3290   35.2320  -12.8530 N.am   87  LEU87      -0.1966
     39  CA        -3.9250   35.1440  -12.4890 C.3    87  LEU87       0.1728
     40  C         -3.7820   34.5150  -11.1070 C.2    87  LEU87       0.2616
     41  O         -4.1370   35.1060  -10.0940 O.2    87  LEU87      -0.2715
     42  CB        -3.2570   36.5200  -12.5360 C.3    87  LEU87       0.0311
     43  CG        -1.7300   36.5290  -12.3820 C.3    87  LEU87       0.0022
     44  CD1       -1.0490   35.8030  -13.5560 C.3    87  LEU87       0.0001
     45  CD2       -1.2150   37.9680  -12.2630 C.3    87  LEU87       0.0001
     46  N         -3.2690   33.2990  -11.0690 N.am   88  THR88      -0.1951
     47  CA        -3.2230   32.5690   -9.8100 C.3    88  THR88       0.1897
     48  C         -2.2600   33.2100   -8.7980 C.2    88  THR88       0.2313
     49  O         -1.1080   33.4900   -9.1160 O.2    88  THR88      -0.2863
     50  CB        -2.8730   31.0970  -10.0590 C.3    88  THR88       0.1794
     51  OG1       -3.8250   30.5610  -10.9860 O.3    88  THR88      -0.2208
     52  CG2       -2.9300   30.3000   -8.7650 C.3    88  THR88       0.0378
     53  N          5.2500   33.9570   -7.2560 N.3    93  ARG93      -0.1245
     54  CA         4.9850   35.1760   -8.0130 C.3    93  ARG93       0.1563
     55  C          5.0380   36.3870   -7.0760 C.2    93  ARG93       0.2260
     56  O          5.4320   37.4820   -7.4730 O.2    93  ARG93      -0.2867
     57  CB         3.6170   35.0940   -8.7160 C.3    93  ARG93       0.0307
     58  CG         3.6090   34.1930   -9.9460 C.3    93  ARG93       0.0489
     59  CD         2.2070   33.8100  -10.4250 C.3    93  ARG93       0.2205
     60  NE         2.2510   33.2530  -11.7800 N.pl3  93  ARG93      -0.0865
     61  CZ         1.2220   32.6620  -12.3940 C.cat  93  ARG93       0.5346
     62  NH1        1.3660   32.1920  -13.6250 N.pl3  93  ARG93       0.1354
     63  NH2        0.0460   32.5430  -11.7840 N.pl3  93  ARG93       0.1354
     64  N         -0.6310   22.8710  -18.4610 N.3   135  VAL135     -0.1245
     65  CA        -0.2020   23.9800  -19.3080 C.3   135  VAL135      0.1561
     66  C          1.2160   24.4290  -18.9230 C.2   135  VAL135      0.2260
     67  O          1.5050   24.7210  -17.7470 O.2   135  VAL135     -0.2867
     68  CB        -1.2040   25.1600  -19.2400 C.3   135  VAL135      0.0252
     69  CG1       -0.6410   26.3910  -19.9330 C.3   135  VAL135      0.0019
     70  CG2       -2.5340   24.7570  -19.8560 C.3   135  VAL135      0.0019
     71  N          2.8200   27.4850  -16.2950 N.3   138  GLY138     -0.1210
     72  CA         1.7100   28.0500  -15.5530 C.3   138  GLY138      0.1956
     73  C          1.8140   27.7140  -14.0700 C.2   138  GLY138      0.2612
     74  O          2.6740   26.9320  -13.6700 O.2   138  GLY138     -0.2717
     75  N          0.9300   28.3040  -13.2670 N.am  139  ALA139     -0.1965
     76  CA         0.8720   28.0480  -11.8260 C.3   139  ALA139      0.1728
     77  C          0.8100   26.5650  -11.4820 C.2   139  ALA139      0.2616
     78  O          1.5050   26.1030  -10.5760 O.2   139  ALA139     -0.2715
     79  CB        -0.3220   28.7540  -11.2130 C.3   139  ALA139      0.0334
     80  N         -0.0270   25.8280  -12.2080 N.am  140  THR140     -0.1951
     81  CA        -0.2110   24.4040  -11.9480 C.3   140  THR140      0.1897
     82  C          1.0700   23.5760  -12.1300 C.2   140  THR140      0.2313
     83  O          1.4400   22.7890  -11.2540 O.2   140  THR140     -0.2863
     84  CB        -1.3590   23.8140  -12.7980 C.3   140  THR140      0.1794
     85  OG1       -2.6130   24.2480  -12.2540 O.3   140  THR140     -0.2208
     86  CG2       -1.3070   22.3040  -12.7610 C.3   140  THR140      0.0378
     87  N         -1.6060   25.6180  -24.0170 N.3   169  ASN169     -0.1225
     88  CA        -2.7070   26.3500  -23.3890 C.3   169  ASN169      0.1785
     89  C         -3.9310   25.4670  -23.1360 C.2   169  ASN169      0.2597
     90  O         -3.9190   24.2790  -23.4760 O.2   169  ASN169     -0.2718
     91  CB        -3.1140   27.5390  -24.2590 C.3   169  ASN169      0.1169
     92  CG        -3.4340   27.1290  -25.6890 C.2   169  ASN169      0.2627
     93  OD1       -4.1330   26.1400  -25.9330 O.2   169  ASN169     -0.2716
     94  ND2       -2.8960   27.8730  -26.6410 N.am  169  ASN169     -0.0877
     95  N         -4.9900   26.0540  -22.5740 N.am  170  ASN170     -0.1974
     96  CA        -6.1890   25.2850  -22.2230 C.3   170  ASN170      0.1688
     97  C         -6.8970   24.6510  -23.4120 C.2   170  ASN170      0.2292
     98  O         -7.2710   23.4790  -23.3510 O.2   170  ASN170     -0.2864
     99  CB        -7.1730   26.1020  -21.3730 C.3   170  ASN170      0.1181
    100  CG        -6.7600   26.1570  -19.9110 C.2   170  ASN170      0.2629
    101  OD1       -5.7710   25.5280  -19.5260 O.2   170  ASN170     -0.2716
    102  ND2       -7.4970   26.9220  -19.0920 N.am  170  ASN170     -0.0877
    103  N         -4.2100   18.2950  -15.9130 N.3   185  LEU185     -0.1231
    104  CA        -4.1540   18.9330  -14.5940 C.3   185  LEU185      0.1693
    105  C         -4.5200   20.4200  -14.7350 C.2   185  LEU185      0.2592
    106  O         -3.7920   21.1870  -15.3570 O.2   185  LEU185     -0.2718
    107  CB        -2.7600   18.7740  -13.9720 C.3   185  LEU185      0.0284
    108  CG        -2.4150   17.4500  -13.2720 C.3   185  LEU185      0.0019
    109  CD1       -3.3930   17.1640  -12.1460 C.3   185  LEU185      0.0001
    110  CD2       -2.3690   16.2750  -14.2420 C.3   185  LEU185      0.0001
    111  N         -5.6490   20.8200  -14.1550 N.am  186  MET186     -0.1965
    112  CA        -6.2840   22.0930  -14.5070 C.3   186  MET186      0.1736
    113  C         -7.0030   22.6970  -13.2980 C.2   186  MET186      0.2616
    114  O         -7.4430   21.9830  -12.3950 O.2   186  MET186     -0.2715
    115  CB        -7.2470   21.8640  -15.7020 C.3   186  MET186      0.0427
    116  CG        -8.4160   22.8400  -15.8810 C.3   186  MET186      0.0599
    117  SD        -9.4880   22.4980  -17.3230 S.3   186  MET186     -0.1393
    118  CE        -8.6470   23.3460  -18.6380 C.3   186  MET186      0.0692
    119  N         -7.1140   24.0180  -13.2850 N.am  187  GLU187     -0.1977
    120  CA        -7.7630   24.7210  -12.1850 C.3   187  GLU187      0.1602
    121  C         -9.2760   24.4670  -12.1580 C.2   187  GLU187      0.2287
    122  O         -9.9300   24.4510  -13.1990 O.2   187  GLU187     -0.2864
    123  CB        -7.3790   26.2090  -12.2330 C.3   187  GLU187      0.0415
    124  CG        -5.8540   26.3740  -12.0280 C.3   187  GLU187      0.1163
    125  CD        -5.3290   27.7820  -12.2530 C.2   187  GLU187      0.3649
    126  OE1       -5.9670   28.5520  -12.9940 O.co2 187  GLU187     -0.2457
    127  OE2       -4.2590   28.1160  -11.6850 O.co2 187  GLU187     -0.2457
    128  N        -12.1880   26.3790  -14.1100 N.3   190  THR190     -0.1218
    129  CA       -12.2270   26.0990  -15.5460 C.3   190  THR190      0.1862
    130  C        -12.8530   24.7400  -15.8260 C.2   190  THR190      0.2287
    131  O        -13.7080   24.6250  -16.7160 O.2   190  THR190     -0.2866
    132  CB       -10.8590   26.1930  -16.2150 C.3   190  THR190      0.1770
    133  OG1      -10.2850   27.4700  -15.9170 O.3   190  THR190     -0.2211
    134  CG2      -11.0020   26.0510  -17.7480 C.3   190  THR190      0.0375
    135  N         -7.5350   33.6380   -7.3560 N.3   213  TYR213     -0.1241
    136  CA        -7.1650   34.5370   -8.4360 C.3   213  TYR213      0.1605
    137  C         -7.2170   35.9470   -7.8920 C.2   213  TYR213      0.2264
    138  O         -8.1800   36.3370   -7.2420 O.2   213  TYR213     -0.2867
    139  CB        -8.1840   34.4600   -9.5740 C.3   213  TYR213      0.0534
    140  CG        -8.1800   33.1790  -10.3680 C.ar  213  TYR213     -0.0201
    141  CD1       -6.9900   32.5310  -10.6750 C.ar  213  TYR213     -0.0009
    142  CD2       -9.3670   32.6260  -10.8190 C.ar  213  TYR213     -0.0009
    143  CE1       -6.9790   31.3650  -11.4130 C.ar  213  TYR213      0.0417
    144  CE2       -9.3730   31.4610  -11.5520 C.ar  213  TYR213      0.0417
    145  CZ        -8.1740   30.8300  -11.8430 C.ar  213  TYR213      0.1957
    146  OH        -8.1730   29.6720  -12.5700 O.3   213  TYR213     -0.2866
@<TRIPOS>BOND
     1    94    92   am
     2    93    92    2
     3    92    91    1
     4    91    88    1
     5    87    88    1
     6    90    89    2
     7    97    98    2
     8    97    96    1
     9    88    89    1
    10    89    95   am
    11    95    96    1
    12    10    11    1
    13     1     2    1
    14    96    99    1
    15     2     3    1
    16     2     5    1
    17    15    14    1
    18    15    16    1
    19    99   100    1
    20     3     4    2
    21    11    14    1
    22    11    12    1
    23     8     7   ar
    24    16    17    1
    25     5     6    1
    26     7     9   ar
    27     7     6    1
    28    12    13    2
    29    12    19   am
    30    69    68    1
    31   100   101    2
    32   100   102   am
    33    70    68    1
    34    17    18    1
    35    65    68    1
    36    65    66    1
    37    65    64    1
    38    28    26   ar
    39    28    29   ar
    40    19    20    1
    41    66    67    2
    42    30    29    1
    43   118   117    1
    44    26    24   ar
    45    29    27   ar
    46   134   132    1
    47    20    21    1
    48    20    23    1
    49    24    23    1
    50    24    25   ar
    51   117   116    1
    52    27    25   ar
    53    21    22    2
    54   131   130    2
    55    37    36    1
    56    37    31    1
    57    71    72    1
    58   132   133    1
    59   132   129    1
    60    36    35    1
    61   103   104    1
    62   116   115    1
    63   130   129    1
    64   115   112    1
    65    72    73    1
    66   129   128    1
    67   106   105    2
    68    31    32    1
    69   105   104    1
    70   105   111   am
    71   104   107    1
    72    35    32    1
    73   112   111    1
    74   112   113    1
    75   110   108    1
    76    73    74    2
    77    73    75   am
    78   107   108    1
    79    32    33    1
    80    34    33    2
    81    62    61    1
    82    44    43    1
    83    33    38   am
    84   113   119   am
    85   113   114    2
    86   119   120    1
    87   108   109    1
    88    75    76    1
    89   122   121    2
    90   126   125   ar
    91    38    39    1
    92    84    86    1
    93    84    85    1
    94    84    81    1
    95   146   145    1
    96    42    39    1
    97    42    43    1
    98    39    40    1
    99    61    63    1
   100    61    60    2
   101    43    45    1
   102   125   124    1
   103   125   127   ar
   104   123   120    1
   105   123   124    1
   106    80    81    1
   107    80    77   am
   108   120   121    1
   109    82    81    1
   110    82    83    2
   111   145   144   ar
   112   145   143   ar
   113    76    77    1
   114    76    79    1
   115    60    59    1
   116   144   142   ar
   117    77    78    2
   118   143   141   ar
   119    40    46   am
   120    40    41    2
   121    46    47    1
   122    51    50    1
   123   142   140   ar
   124   141   140   ar
   125    59    58    1
   126   140   139    1
   127    50    47    1
   128    50    52    1
   129    58    57    1
   130    47    48    1
   131   139   136    1
   132    49    48    2
   133    57    54    1
   134   136   137    1
   135   136   135    1
   136    54    53    1
   137    54    55    1
   138   137   138    2
   139    56    55    2
