@<TRIPOS>MOLECULE
tmp/4e12A00.pdb
 148 138 0 0 0
SMALL
GASTEIGER

@<TRIPOS>ATOM
      1  N         40.6190   24.7090   62.4300 N.3   122  SER122     -0.1217
      2  CA        41.0980   25.3230   61.1880 C.3   122  SER122      0.1889
      3  C         42.5610   24.9920   60.8770 C.2   122  SER122      0.2288
      4  O         43.0580   25.3720   59.8160 O.2   122  SER122     -0.2866
      5  CB        40.9380   26.8560   61.2090 C.3   122  SER122      0.2089
      6  OG        39.5770   27.2690   61.1940 O.3   122  SER122     -0.2183
      7  N         33.0200   22.7380   60.3630 N.3   143  HIS143     -0.1241
      8  CA        33.8210   23.9450   60.3700 C.3   143  HIS143      0.1621
      9  C         32.9570   25.1400   60.0250 C.2   143  HIS143      0.2264
     10  O         32.3320   25.1890   58.9620 O.2   143  HIS143     -0.2867
     11  CB        34.9640   23.7990   59.3690 C.3   143  HIS143      0.0745
     12  CG        35.9320   24.9460   59.3740 C.ar  143  HIS143      0.0817
     13  ND1       36.1230   25.7570   58.2770 N.ar  143  HIS143     -0.2268
     14  CD2       36.7560   25.4170   60.3410 C.ar  143  HIS143      0.1154
     15  CE1       37.0250   26.6810   58.5670 C.ar  143  HIS143      0.1986
     16  NE2       37.4240   26.4960   59.8130 N.ar  143  HIS143     -0.2212
     17  N         38.8270   28.3410   52.5350 N.3   194  ASN194     -0.1240
     18  CA        40.2100   28.7610   52.7040 C.3   194  ASN194      0.1653
     19  C         41.0670   28.2700   51.5450 C.2   194  ASN194      0.2266
     20  O         42.0190   28.9410   51.1340 O.2   194  ASN194     -0.2867
     21  CB        40.7550   28.2680   54.0380 C.3   194  ASN194      0.1155
     22  CG        40.0220   28.8820   55.2190 C.2   194  ASN194      0.2627
     23  OD1       39.4770   29.9850   55.1170 O.2   194  ASN194     -0.2716
     24  ND2       39.9950   28.1690   56.3430 N.am  194  ASN194     -0.0877
     25  N         40.2510   30.9160   48.9090 N.3   197  LEU197     -0.1231
     26  CA        40.5830   32.2840   49.2410 C.3   197  LEU197      0.1693
     27  C         42.0750   32.5370   49.4050 C.2   197  LEU197      0.2591
     28  O         42.5710   33.5670   48.9520 O.2   197  LEU197     -0.2718
     29  CB        39.8420   32.7250   50.4960 C.3   197  LEU197      0.0284
     30  CG        40.0370   34.1740   50.8960 C.3   197  LEU197      0.0019
     31  CD1       39.4470   35.1140   49.8450 C.3   197  LEU197      0.0001
     32  CD2       39.3820   34.3790   52.2460 C.3   197  LEU197      0.0001
     33  N         42.8050   31.6360   50.0560 N.am  198  VAL198     -0.1980
     34  CA        44.2220   31.9010   50.2850 C.3   198  VAL198      0.1595
     35  C         44.9800   32.1200   48.9800 C.2   198  VAL198      0.2287
     36  O         45.8030   33.0310   48.8980 O.2   198  VAL198     -0.2864
     37  CB        44.8830   30.8170   51.1710 C.3   198  VAL198      0.0276
     38  CG1       46.4060   30.9580   51.1380 C.3   198  VAL198      0.0022
     39  CG2       44.3710   30.9830   52.5990 C.3   198  VAL198      0.0022
     40  N         44.3910   35.7100   47.8130 N.3   201  LEU201     -0.1231
     41  CA        45.0500   36.6920   48.6660 C.3   201  LEU201      0.1693
     42  C         46.5720   36.6330   48.5360 C.2   201  LEU201      0.2592
     43  O         47.2120   37.6820   48.5760 O.2   201  LEU201     -0.2718
     44  CB        44.6300   36.5480   50.1280 C.3   201  LEU201      0.0284
     45  CG        43.1370   36.7080   50.4090 C.3   201  LEU201      0.0019
     46  CD1       42.8710   36.5390   51.9000 C.3   201  LEU201      0.0001
     47  CD2       42.6320   38.0660   49.9340 C.3   201  LEU201      0.0001
     48  N         47.1360   35.4280   48.4100 N.am  202  ASP202     -0.1974
     49  CA        48.5770   35.2790   48.1480 C.3   202  ASP202      0.1709
     50  C         48.9720   35.9370   46.8380 C.2   202  ASP202      0.2293
     51  O         50.0460   36.5380   46.7370 O.2   202  ASP202     -0.2864
     52  CB        48.9960   33.8080   48.0820 C.3   202  ASP202      0.1436
     53  CG        48.9950   33.1350   49.4330 C.2   202  ASP202      0.3671
     54  OD1       48.8040   33.8320   50.4540 O.co2 202  ASP202     -0.2456
     55  OD2       49.1950   31.9070   49.4720 O.co2 202  ASP202     -0.2456
     56  N         48.9040   39.7720   47.3110 N.3   205  ALA205     -0.1231
     57  CA        50.0010   40.1990   48.1630 C.3   205  ALA205      0.1694
     58  C         51.3210   40.2260   47.3860 C.2   205  ALA205      0.2591
     59  O         52.1100   41.1650   47.5330 O.2   205  ALA205     -0.2718
     60  CB        50.1040   39.3100   49.3880 C.3   205  ALA205      0.0304
     61  N         51.5540   39.2090   46.5640 N.am  206  GLU206     -0.1979
     62  CA        52.7340   39.1820   45.6940 C.3   206  GLU206      0.1602
     63  C         52.7740   40.3870   44.7550 C.2   206  GLU206      0.2287
     64  O         53.8180   41.0260   44.6000 O.2   206  GLU206     -0.2864
     65  CB        52.7720   37.8880   44.8750 C.3   206  GLU206      0.0415
     66  CG        53.9390   37.7970   43.8900 C.3   206  GLU206      0.1163
     67  CD        53.7530   38.6450   42.6270 C.2   206  GLU206      0.3649
     68  OE1       54.7620   39.1030   42.0550 O.co2 206  GLU206     -0.2457
     69  OE2       52.6020   38.8420   42.1880 O.co2 206  GLU206     -0.2457
     70  N         41.4190   41.5220   53.0430 N.3   236  PHE236     -0.1241
     71  CA        42.4400   41.5170   54.1160 C.3   236  PHE236      0.1605
     72  C         42.0370   42.3460   55.3340 C.2   236  PHE236      0.2264
     73  O         42.2940   41.9560   56.4810 O.2   236  PHE236     -0.2867
     74  CB        43.8030   42.0590   53.6370 C.3   236  PHE236      0.0534
     75  CG        44.6680   41.0390   52.9470 C.ar  236  PHE236     -0.0203
     76  CD1       45.1400   41.2630   51.6520 C.ar  236  PHE236     -0.0042
     77  CD2       45.0160   39.8570   53.5960 C.ar  236  PHE236     -0.0042
     78  CE1       45.9590   40.3120   51.0060 C.ar  236  PHE236     -0.0003
     79  CE2       45.8330   38.8970   52.9660 C.ar  236  PHE236     -0.0003
     80  CZ        46.3040   39.1290   51.6640 C.ar  236  PHE236     -0.0000
     81  N         39.4300   40.2280   57.2410 N.3   239  VAL239     -0.1245
     82  CA        40.1260   39.1440   57.9250 C.3   239  VAL239      0.1561
     83  C         40.7920   39.6810   59.1850 C.2   239  VAL239      0.2260
     84  O         40.7260   39.0670   60.2540 O.2   239  VAL239     -0.2867
     85  CB        41.2270   38.5250   57.0220 C.3   239  VAL239      0.0252
     86  CG1       42.0040   37.4460   57.7750 C.3   239  VAL239      0.0019
     87  CG2       40.6020   37.9280   55.7790 C.3   239  VAL239      0.0019
     88  N         45.8200   38.9200   61.9280 N.3   243  THR243     -0.1203
     89  CA        45.5690   37.5450   61.5050 C.3   243  THR243      0.1994
     90  C         46.3010   37.2240   60.2040 C.2   243  THR243      0.2617
     91  O         46.9230   36.1640   60.0750 O.2   243  THR243     -0.2717
     92  CB        44.0590   37.2890   61.3250 C.3   243  THR243      0.1784
     93  OG1       43.3820   37.5530   62.5650 O.3   243  THR243     -0.2211
     94  CG2       43.8100   35.8520   60.8940 C.3   243  THR243      0.0376
     95  N         46.2380   38.1370   59.2400 N.am  244  ALA244     -0.1979
     96  CA        46.8970   37.9020   57.9620 C.3   244  ALA244      0.1597
     97  C         48.4140   37.8370   58.1510 C.2   244  ALA244      0.2287
     98  O         49.1000   37.0590   57.4860 O.2   244  ALA244     -0.2864
     99  CB        46.5330   38.9910   56.9650 C.3   244  ALA244      0.0319
    100  N         49.3090   34.3010   59.7810 N.3   247  ILE247     -0.1231
    101  CA        49.2300   33.2790   58.7400 C.3   247  ILE247      0.1692
    102  C         50.3840   33.3710   57.7340 C.2   247  ILE247      0.2592
    103  O         51.0380   32.3670   57.4320 O.2   247  ILE247     -0.2718
    104  CB        47.8800   33.3480   57.9960 C.3   247  ILE247      0.0266
    105  CG1       46.7400   32.9390   58.9320 C.3   247  ILE247      0.0019
    106  CG2       47.9080   32.4830   56.7540 C.3   247  ILE247      0.0020
    107  CD1       45.3670   33.0620   58.3000 C.3   247  ILE247      0.0001
    108  N         50.6380   34.5700   57.2180 N.am  248  SER248     -0.1952
    109  CA        51.6800   34.7700   56.2200 C.3   248  SER248      0.1924
    110  C         53.0540   34.4240   56.7490 C.2   248  SER248      0.2314
    111  O         53.8700   33.8620   56.0140 O.2   248  SER248     -0.2863
    112  CB        51.7190   36.2200   55.7470 C.3   248  SER248      0.2116
    113  OG        50.4770   36.6060   55.2010 O.3   248  SER248     -0.2180
    114  N         54.3110   30.9450   56.4000 N.3   251  SER251     -0.1217
    115  CA        54.0490   30.4290   55.0590 C.3   251  SER251      0.1889
    116  C         55.2990   30.4940   54.2030 C.2   251  SER251      0.2288
    117  O         56.4210   30.5130   54.7190 O.2   251  SER251     -0.2866
    118  CB        52.9180   31.2120   54.3800 C.3   251  SER251      0.2089
    119  OG        51.7130   31.1230   55.1150 O.3   251  SER251     -0.2183
    120  N         57.4730   34.2030   49.5470 N.3   254  LYS254     -0.1231
    121  CA        56.7920   35.3990   49.0800 C.3   254  LYS254      0.1693
    122  C         55.8140   35.8460   50.1570 C.2   254  LYS254      0.2591
    123  O         55.6700   37.0380   50.4260 O.2   254  LYS254     -0.2718
    124  CB        56.0430   35.1400   47.7750 C.3   254  LYS254      0.0285
    125  CG        55.3890   36.3710   47.2020 C.3   254  LYS254      0.0035
    126  CD        56.4480   37.4420   46.8800 C.3   254  LYS254      0.0206
    127  CE        57.4850   36.8880   45.9180 C.3   254  LYS254      0.1093
    128  NZ        58.6160   37.8350   45.6890 N.3   254  LYS254     -0.1314
    129  N         55.1510   34.8810   50.7790 N.am  255  GLN255     -0.1979
    130  CA        54.1820   35.1590   51.8340 C.3   255  GLN255      0.1601
    131  C         54.8410   35.8210   53.0620 C.2   255  GLN255      0.2287
    132  O         54.2490   36.6890   53.7090 O.2   255  GLN255     -0.2864
    133  CB        53.5070   33.8530   52.2780 C.3   255  GLN255      0.0394
    134  CG        52.7400   33.0700   51.1970 C.3   255  GLN255      0.0908
    135  CD        53.6220   32.3440   50.1840 C.2   255  GLN255      0.2608
    136  OE1       54.8330   32.5640   50.1070 O.2   255  GLN255     -0.2717
    137  NE2       53.0070   31.4680   49.4000 N.am  255  GLN255     -0.0878
    138  N         55.4470   39.3700   52.4630 N.3   258  PHE258     -0.1241
    139  CA        54.2180   40.1160   52.7120 C.3   258  PHE258      0.1605
    140  C         54.0340   40.3230   54.2170 C.2   258  PHE258      0.2264
    141  O         53.7060   41.4230   54.6610 O.2   258  PHE258     -0.2867
    142  CB        53.0250   39.3510   52.1200 C.3   258  PHE258      0.0534
    143  CG        51.6920   40.0340   52.3010 C.ar  258  PHE258     -0.0203
    144  CD1       51.4480   41.2880   51.7470 C.ar  258  PHE258     -0.0042
    145  CD2       50.6830   39.4220   53.0180 C.ar  258  PHE258     -0.0042
    146  CE1       50.2170   41.9270   51.9020 C.ar  258  PHE258     -0.0003
    147  CE2       49.4320   40.0570   53.1800 C.ar  258  PHE258     -0.0003
    148  CZ        49.2090   41.3090   52.6210 C.ar  258  PHE258     -0.0000
@<TRIPOS>BOND
     1    68    67   ar
     2    69    67   ar
     3    67    66    1
     4    66    65    1
     5    64    63    2
     6    63    62    1
     7    65    62    1
     8   128   127    1
     9    62    61    1
    10   127   126    1
    11    61    58   am
    12    51    50    2
    13    50    49    1
    14   126   125    1
    15   125   124    1
    16    56    57    1
    17    58    59    2
    18    58    57    1
    19   124   121    1
    20    40    41    1
    21    52    49    1
    22    52    53    1
    23    49    48    1
    24    57    60    1
    25    48    42   am
    26    42    43    2
    27    42    41    1
    28    41    44    1
    29    36    35    2
    30    25    26    1
    31    28    27    2
    32    35    34    1
    33   121   120    1
    34   121   122    1
    35    26    27    1
    36    26    29    1
    37   137   135   am
    38    27    33   am
    39    53    55   ar
    40    53    54   ar
    41    31    30    1
    42    47    45    1
    43    33    34    1
    44   136   135    2
    45    44    45    1
    46   122   123    2
    47   122   129   am
    48   135   134    1
    49    34    37    1
    50    45    46    1
    51    29    30    1
    52   129   130    1
    53    30    32    1
    54    78    76   ar
    55    78    80   ar
    56    20    19    2
    57    38    37    1
    58    37    39    1
    59   134   133    1
    60    19    18    1
    61    76    75   ar
    62    80    79   ar
    63   144   146   ar
    64   144   143   ar
    65   130   133    1
    66   130   131    1
    67   146   148   ar
    68   142   143    1
    69   142   139    1
    70   143   145   ar
    71   138   139    1
    72    17    18    1
    73   148   147   ar
    74    18    21    1
    75   139   140    1
    76    75    77   ar
    77    75    74    1
    78    79    77   ar
    79   145   147   ar
    80    70    71    1
    81   131   132    2
    82    74    71    1
    83    21    22    1
    84    71    72    1
    85   116   117    2
    86   116   115    1
    87   140   141    2
    88   118   115    1
    89   118   119    1
    90   115   114    1
    91    23    22    2
    92   113   112    1
    93    22    24   am
    94    72    73    2
    95   112   109    1
    96    87    85    1
    97   111   110    2
    98   109   110    1
    99   109   108    1
   100   106   104    1
   101    99    96    1
   102    85    86    1
   103    85    82    1
   104   108   102   am
   105    81    82    1
   106   103   102    2
   107    98    97    2
   108   102   101    1
   109    82    83    1
   110    96    97    1
   111    96    95    1
   112   104   101    1
   113   104   105    1
   114    13    15   ar
   115    13    12   ar
   116   107   105    1
   117    15    16   ar
   118   101   100    1
   119    10     9    2
   120    83    84    2
   121    95    90   am
   122    11    12    1
   123    11     8    1
   124    12    14   ar
   125    16    14   ar
   126     4     3    2
   127     9     8    1
   128    91    90    2
   129    90    89    1
   130     7     8    1
   131     3     2    1
   132    94    92    1
   133     2     5    1
   134     2     1    1
   135     6     5    1
   136    92    89    1
   137    92    93    1
   138    89    88    1
