@<TRIPOS>MOLECULE
tmp/4e1bA00.pdb
 220 209 0 0 0
SMALL
GASTEIGER

@<TRIPOS>ATOM
      1  N         11.3710   17.1800   17.1820 N.3    31  PHE31      -0.1241
      2  CA        11.6040   17.1340   15.7020 C.3    31  PHE31       0.1605
      3  C         11.0240   18.3580   15.0060 C.2    31  PHE31       0.2264
      4  O          9.9750   18.8920   15.4310 O.2    31  PHE31      -0.2867
      5  CB        11.0090   15.8350   15.0960 C.3    31  PHE31       0.0534
      6  CG         9.5080   15.6950   15.2810 C.ar   31  PHE31      -0.0203
      7  CD1        8.6150   16.0290   14.2550 C.ar   31  PHE31      -0.0042
      8  CD2        8.9780   15.2250   16.4980 C.ar   31  PHE31      -0.0042
      9  CE1        7.2360   15.9520   14.4210 C.ar   31  PHE31      -0.0003
     10  CE2        7.5590   15.1280   16.6740 C.ar   31  PHE31      -0.0003
     11  CZ         6.7020   15.4390   15.6710 C.ar   31  PHE31      -0.0000
     12  N          9.0130   20.4690   12.0920 N.3    33  THR33      -0.1218
     13  CA         7.9510   20.2530   11.0660 C.3    33  THR33       0.1862
     14  C          7.9270   21.5360   10.2240 C.2    33  THR33       0.2287
     15  O          8.7760   22.4180   10.4150 O.2    33  THR33      -0.2866
     16  CB         6.5700   20.0200   11.6690 C.3    33  THR33       0.1770
     17  OG1        6.0700   21.2450   12.1900 O.3    33  THR33      -0.2211
     18  CG2        6.6010   18.9410   12.8650 C.3    33  THR33       0.0375
     19  N          5.7490   23.7470   10.5700 N.3    35  THR35      -0.1203
     20  CA         5.0920   24.8120   11.3560 C.3    35  THR35       0.1994
     21  C          6.0740   25.2440   12.4470 C.2    35  THR35       0.2618
     22  O          6.8180   26.2440   12.2660 O.2    35  THR35      -0.2717
     23  CB         3.7290   24.3050   11.9270 C.3    35  THR35       0.1784
     24  OG1        3.8950   23.1150   12.7470 O.3    35  THR35      -0.2211
     25  CG2        2.7480   24.0700   10.7360 C.3    35  THR35       0.0376
     26  N          6.1240   24.4600   13.5120 N.am   36  VAL36      -0.1965
     27  CA         7.0580   24.6610   14.6310 C.3    36  VAL36       0.1727
     28  C          7.6380   23.3150   15.0350 C.2    36  VAL36       0.2616
     29  O          7.1090   22.2770   14.6060 O.2    36  VAL36      -0.2715
     30  CB         6.3470   25.3320   15.8640 C.3    36  VAL36       0.0290
     31  CG1        5.7410   26.7230   15.4210 C.3    36  VAL36       0.0023
     32  CG2        5.2330   24.4260   16.4750 C.3    36  VAL36       0.0023
     33  N          8.7090   23.2780   15.8450 N.am   37  TYR37      -0.1960
     34  CA         9.1950   21.9330   16.2970 C.3    37  TYR37       0.1771
     35  C          8.1380   21.2630   17.2230 C.2    37  TYR37       0.2620
     36  O          7.4580   21.9580   17.9560 O.2    37  TYR37      -0.2715
     37  CB        10.4560   22.1290   17.1120 C.3    37  TYR37       0.0574
     38  CG        11.6960   22.1070   16.2360 C.ar   37  TYR37      -0.0198
     39  CD1       12.0500   23.2160   15.4200 C.ar   37  TYR37      -0.0009
     40  CD2       12.5750   20.9950   16.3390 C.ar   37  TYR37      -0.0009
     41  CE1       13.2740   23.2150   14.6670 C.ar   37  TYR37       0.0417
     42  CE2       13.8370   20.9790   15.5860 C.ar   37  TYR37       0.0417
     43  CZ        14.1220   22.0540   14.7570 C.ar   37  TYR37       0.1957
     44  OH        15.2540   22.0980   13.9550 O.3    37  TYR37      -0.2866
     45  N          8.0330   19.9480   17.1690 N.am   38  GLY38      -0.1954
     46  CA         7.1350   19.2160   18.0570 C.3    38  GLY38       0.1869
     47  C          7.9400   18.3570   19.0180 C.2    38  GLY38       0.2309
     48  O          9.1050   18.0640   18.7500 O.2    38  GLY38      -0.2863
     49  N          3.5770   20.7590   31.1560 N.3    58  ARG58      -0.1245
     50  CA         2.3380   21.1550   30.5120 C.3    58  ARG58       0.1563
     51  C          1.1800   20.6950   31.3290 C.2    58  ARG58       0.2260
     52  O          1.2180   19.5830   31.8120 O.2    58  ARG58      -0.2867
     53  CB         2.2950   20.5000   29.1020 C.3    58  ARG58       0.0307
     54  CG         0.9940   20.7220   28.3100 C.3    58  ARG58       0.0489
     55  CD         1.1640   19.9550   26.9660 C.3    58  ARG58       0.2205
     56  NE         0.0380   20.1280   26.0070 N.pl3  58  ARG58      -0.0865
     57  CZ         0.0020   21.0320   25.0360 C.cat  58  ARG58       0.5346
     58  NH1        0.9530   22.0180   24.9690 N.pl3  58  ARG58       0.1354
     59  NH2       -0.9920   20.9540   24.1330 N.pl3  58  ARG58       0.1354
     60  N         -4.3600   19.8400   28.5260 N.3    62  ASN62      -0.1226
     61  CA        -4.1520   20.4520   27.1760 C.3    62  ASN62       0.1770
     62  C         -3.6560   19.3390   26.1790 C.2    62  ASN62       0.2439
     63  O         -2.5370   18.8580   26.2870 O.2    62  ASN62      -0.2733
     64  CB        -3.1470   21.5930   27.3590 C.3    62  ASN62       0.1168
     65  CG        -3.0300   22.4650   26.1300 C.2    62  ASN62       0.2627
     66  OD1       -3.7470   22.2280   25.1590 O.2    62  ASN62      -0.2716
     67  ND2       -2.1450   23.5170   26.1730 N.am   62  ASN62      -0.0877
     68  N         -4.5380   18.8880   25.2990 N.am   63  PRO63      -0.2718
     69  CA        -4.3820   17.6970   24.5000 C.3    63  PRO63       0.1535
     70  C         -3.2850   17.8860   23.3950 C.2    63  PRO63       0.2598
     71  O         -2.8860   19.0180   23.0950 O.2    63  PRO63      -0.2715
     72  CB        -5.7770   17.5320   23.8950 C.3    63  PRO63       0.0310
     73  CG        -6.2410   18.9430   23.7050 C.3    63  PRO63       0.0237
     74  CD        -5.8660   19.5410   25.0570 C.3    63  PRO63       0.0939
     75  N         -2.8870   16.7740   22.8240 N.am   64  LEU64      -0.1964
     76  CA        -1.7620   16.7430   21.8410 C.3    64  LEU64       0.1728
     77  C         -2.3190   16.6080   20.4280 C.2    64  LEU64       0.2616
     78  O         -3.4750   16.2310   20.2540 O.2    64  LEU64      -0.2715
     79  CB        -0.9170   15.5270   22.1400 C.3    64  LEU64       0.0311
     80  CG        -0.3440   15.4660   23.5620 C.3    64  LEU64       0.0022
     81  CD1        0.6940   14.3550   23.6880 C.3    64  LEU64       0.0001
     82  CD2        0.3180   16.8120   24.0290 C.3    64  LEU64       0.0001
     83  N         -1.4800   16.8540   19.4080 N.am   65  ILE65      -0.1977
     84  CA        -1.9070   16.5480   17.9960 C.3    65  ILE65       0.1596
     85  C         -1.2140   15.2730   17.6030 C.2    65  ILE65       0.2287
     86  O         -0.0180   15.1230   17.8080 O.2    65  ILE65      -0.2864
     87  CB        -1.5110   17.7320   17.0880 C.3    65  ILE65       0.0276
     88  CG1       -2.4740   18.8930   17.3650 C.3    65  ILE65       0.0022
     89  CG2       -1.5400   17.3300   15.6090 C.3    65  ILE65       0.0022
     90  CD1       -2.1270   20.2510   16.6390 C.3    65  ILE65       0.0001
     91  N          0.3210   13.0160   14.8270 N.3    67  HIS67      -0.1241
     92  CA         0.9400   13.2370   13.4960 C.3    67  HIS67       0.1621
     93  C          1.0230   11.8680   12.8240 C.2    67  HIS67       0.2264
     94  O          1.5740   10.9200   13.4360 O.2    67  HIS67      -0.2867
     95  CB         2.3550   13.7870   13.6930 C.3    67  HIS67       0.0745
     96  CG         2.3690   15.1590   14.3260 C.ar   67  HIS67       0.0817
     97  ND1        1.9960   15.3850   15.6400 N.ar   67  HIS67      -0.2268
     98  CD2        2.6980   16.3690   13.8170 C.ar   67  HIS67       0.1154
     99  CE1        2.1060   16.6820   15.9050 C.ar   67  HIS67       0.1986
    100  NE2        2.4710   17.3060   14.8000 N.ar   67  HIS67      -0.2212
    101  N         -9.9020   18.1970   13.7780 N.3   100  VAL100     -0.1245
    102  CA       -10.3970   17.5320   14.9860 C.3   100  VAL100      0.1561
    103  C        -11.4910   16.5060   14.5850 C.2   100  VAL100      0.2260
    104  O        -12.4580   16.8620   13.8820 O.2   100  VAL100     -0.2867
    105  CB       -10.9290   18.5730   16.0050 C.3   100  VAL100      0.0252
    106  CG1      -11.5600   17.8470   17.2650 C.3   100  VAL100      0.0019
    107  CG2       -9.7890   19.4500   16.4650 C.3   100  VAL100      0.0019
    108  N         -5.6650   12.8650   24.3290 N.3   112  THR112     -0.1218
    109  CA        -6.8530   13.6130   24.0450 C.3   112  THR112      0.1862
    110  C         -7.3810   14.4240   25.2460 C.2   112  THR112      0.2287
    111  O         -8.4010   15.0280   25.0980 O.2   112  THR112     -0.2866
    112  CB        -8.0260   12.6560   23.5990 C.3   112  THR112      0.1770
    113  OG1       -8.3540   11.7890   24.6610 O.3   112  THR112     -0.2211
    114  CG2       -7.5380   11.7660   22.4100 C.3   112  THR112      0.0375
    115  N        -10.9800   13.8740   26.1610 N.3   115  LEU115     -0.1245
    116  CA       -12.0240   14.2860   25.1520 C.3   115  LEU115      0.1561
    117  C        -12.3720   13.1020   24.2540 C.2   115  LEU115      0.2260
    118  O        -11.5320   12.2460   24.0580 O.2   115  LEU115     -0.2867
    119  CB       -11.6020   15.5130   24.2620 C.3   115  LEU115      0.0270
    120  CG       -11.1410   16.7540   25.0700 C.3   115  LEU115      0.0019
    121  CD1      -10.5360   17.8390   24.2130 C.3   115  LEU115      0.0001
    122  CD2      -12.3300   17.2890   25.9410 C.3   115  LEU115      0.0001
    123  N        -12.7340   13.5430   21.1910 N.3   117  THR117     -0.1203
    124  CA       -12.1620   13.8490   19.8830 C.3   117  THR117      0.1994
    125  C        -10.6090   13.8200   19.9290 C.2   117  THR117      0.2618
    126  O        -10.0010   13.8300   21.0150 O.2   117  THR117     -0.2717
    127  CB       -12.6270   15.2180   19.4240 C.3   117  THR117      0.1784
    128  OG1      -12.2820   16.1630   20.4500 O.3   117  THR117     -0.2211
    129  CG2      -14.1300   15.2520   19.2420 C.3   117  THR117      0.0376
    130  N        -10.0040   13.7150   18.7370 N.am  118  VAL118     -0.1965
    131  CA        -8.5360   13.7120   18.5710 C.3   118  VAL118      0.1727
    132  C         -8.1920   14.6620   17.4040 C.2   118  VAL118      0.2616
    133  O         -8.9250   14.7750   16.4240 O.2   118  VAL118     -0.2715
    134  CB        -7.9590   12.2670   18.2940 C.3   118  VAL118      0.0290
    135  CG1       -8.5610   11.6210   16.9390 C.3   118  VAL118      0.0023
    136  CG2       -6.3860   12.2110   18.2830 C.3   118  VAL118      0.0023
    137  N         -7.0990   15.4020   17.5750 N.am  119  ALA119     -0.1977
    138  CA        -6.6520   16.3420   16.5650 C.3   119  ALA119      0.1597
    139  C         -5.5420   15.6210   15.7910 C.2   119  ALA119      0.2287
    140  O         -4.6460   15.0160   16.4380 O.2   119  ALA119     -0.2864
    141  CB        -6.0560   17.6420   17.2710 C.3   119  ALA119      0.0319
    142  N         -2.9090   15.5950   12.1750 N.3   121  ARG121     -0.1245
    143  CA        -2.3750   16.1980   10.9490 C.3   121  ARG121      0.1563
    144  C         -1.2320   15.3390   10.3790 C.2   121  ARG121      0.2260
    145  O         -0.5870   14.5350   11.0910 O.2   121  ARG121     -0.2867
    146  CB        -1.9360   17.6610   11.1720 C.3   121  ARG121      0.0307
    147  CG        -0.5560   17.8210   11.7750 C.3   121  ARG121      0.0489
    148  CD        -0.3450   19.3580   12.0010 C.3   121  ARG121      0.2205
    149  NE         1.0700   19.6850   12.1180 N.pl3 121  ARG121     -0.0865
    150  CZ         1.8590   19.9420   11.0800 C.cat 121  ARG121      0.5346
    151  NH1        3.1460   20.2920   11.3280 N.pl3 121  ARG121      0.1354
    152  NH2        1.3850   19.7980    9.8100 N.pl3 121  ARG121      0.1354
    153  N          2.2460   14.9200   19.4770 N.3   140  ALA140     -0.1231
    154  CA         3.1970   15.9240   19.8430 C.3   140  ALA140      0.1679
    155  C          2.5400   17.2790   19.9330 C.2   140  ALA140      0.2434
    156  O          1.7520   17.6680   19.0430 O.2   140  ALA140     -0.2733
    157  CB         4.3570   15.9890   18.8140 C.3   140  ALA140      0.0304
    158  N          2.8310   18.0360   21.0030 N.am  141  PRO141     -0.2718
    159  CA         2.5060   19.4340   20.9640 C.3   141  PRO141      0.1535
    160  C          3.7840   20.2060   20.5410 C.2   141  PRO141      0.2599
    161  O          4.8220   19.5830   20.1770 O.2   141  PRO141     -0.2715
    162  CB         2.2190   19.7580   22.4480 C.3   141  PRO141      0.0310
    163  CG         3.3110   18.8610   23.1560 C.3   141  PRO141      0.0237
    164  CD         3.3900   17.5990   22.2990 C.3   141  PRO141      0.0939
    165  N          3.7160   21.5440   20.5160 N.am  142  SER142     -0.1950
    166  CA         4.9720   22.3190   20.2640 C.3   142  SER142      0.1924
    167  C          6.0310   21.9730   21.3060 C.2   142  SER142      0.2314
    168  O          5.7290   21.6350   22.4830 O.2   142  SER142     -0.2863
    169  CB         4.7210   23.8560   20.3130 C.3   142  SER142      0.2116
    170  OG         4.0780   24.1530   21.5690 O.3   142  SER142     -0.2180
    171  N          2.0090   27.7450   14.2320 N.3   179  GLU179     -0.1231
    172  CA         1.3860   26.4160   14.3280 C.3   179  GLU179      0.1699
    173  C          0.2860   26.1860   13.3040 C.2   179  GLU179      0.2592
    174  O         -0.3000   27.1340   12.8070 O.2   179  GLU179     -0.2718
    175  CB         0.8240   26.1840   15.7460 C.3   179  GLU179      0.0402
    176  CG         1.9000   26.3990   16.8250 C.3   179  GLU179      0.1161
    177  CD         1.9030   27.8400   17.4130 C.2   179  GLU179      0.3649
    178  OE1        1.6010   28.8410   16.6930 O.co2 179  GLU179     -0.2457
    179  OE2        2.1670   27.9390   18.6390 O.co2 179  GLU179     -0.2457
    180  N          0.0040   24.9150   13.0310 N.am  180  SER180     -0.1952
    181  CA        -0.9830   24.5570   12.0360 C.3   180  SER180      0.1924
    182  C         -2.3560   25.1680   12.2690 C.2   180  SER180      0.2314
    183  O         -2.8040   25.3440   13.4330 O.2   180  SER180     -0.2863
    184  CB        -1.1980   23.0100   12.0430 C.3   180  SER180      0.2116
    185  OG        -1.6470   22.5380   13.3000 O.3   180  SER180     -0.2180
    186  N         -6.1700   24.8390   12.7290 N.3   182  ILE182     -0.1245
    187  CA        -6.9830   23.7630   13.2710 C.3   182  ILE182      0.1561
    188  C         -8.4670   23.9900   12.9840 C.2   182  ILE182      0.2260
    189  O         -8.9940   25.0910   13.2450 O.2   182  ILE182     -0.2867
    190  CB        -6.8710   23.6030   14.8390 C.3   182  ILE182      0.0252
    191  CG1       -5.4010   23.4150   15.2910 C.3   182  ILE182      0.0019
    192  CG2       -7.6720   22.4040   15.3270 C.3   182  ILE182      0.0019
    193  CD1       -5.2910   23.3940   16.8940 C.3   182  ILE182      0.0001
    194  N        -12.3310   22.0910   13.4430 N.3   184  ASN184     -0.1240
    195  CA       -13.1300   21.0460   13.9890 C.3   184  ASN184      0.1653
    196  C        -14.1810   20.5740   12.9880 C.2   184  ASN184      0.2266
    197  O        -15.0710   21.3690   12.6070 O.2   184  ASN184     -0.2867
    198  CB       -13.8900   21.5730   15.2310 C.3   184  ASN184      0.1155
    199  CG       -14.5000   20.4540   16.0450 C.2   184  ASN184      0.2627
    200  OD1      -14.6570   19.3370   15.5810 O.2   184  ASN184     -0.2716
    201  ND2      -14.8160   20.7550   17.3380 N.am  184  ASN184     -0.0877
    202  N        -10.6560   26.5980   14.7600 N.3   192  LEU192     -0.1231
    203  CA       -10.2370   26.7030   16.1690 C.3   192  LEU192      0.1693
    204  C         -8.9390   27.4930   16.3020 C.2   192  LEU192      0.2591
    205  O         -8.6660   28.1160   17.3660 O.2   192  LEU192     -0.2718
    206  CB       -10.1050   25.3510   16.8510 C.3   192  LEU192      0.0284
    207  CG       -11.3330   24.4450   16.9520 C.3   192  LEU192      0.0019
    208  CD1      -11.0040   23.0690   17.5730 C.3   192  LEU192      0.0001
    209  CD2      -12.4660   25.2220   17.7080 C.3   192  LEU192      0.0001
    210  N         -8.1410   27.5310   15.2480 N.am  193  ARG193     -0.1980
    211  CA        -6.8570   28.2430   15.2930 C.3   193  ARG193      0.1597
    212  C         -6.4420   28.5600   13.8650 C.2   193  ARG193      0.2287
    213  O         -6.3160   27.6410   13.0130 O.2   193  ARG193     -0.2864
    214  CB        -5.7850   27.4220   16.0230 C.3   193  ARG193      0.0334
    215  CG        -4.4640   28.2110   16.1100 C.3   193  ARG193      0.0492
    216  CD        -3.3660   27.5350   16.9050 C.3   193  ARG193      0.2205
    217  NE        -3.0150   26.2640   16.2040 N.pl3 193  ARG193     -0.0865
    218  CZ        -2.3160   25.2700   16.7450 C.cat 193  ARG193      0.5346
    219  NH1       -1.8670   25.3400   18.0170 N.pl3 193  ARG193      0.1354
    220  NH2       -2.0620   24.1830   16.0110 N.pl3 193  ARG193      0.1354
@<TRIPOS>BOND
     1   152   150    1
     2    14    15    2
     3    14    13    1
     4   144   143    1
     5   144   145    2
     6    19    20    1
     7    25    23    1
     8   143   146    1
     9   143   142    1
    10    13    16    1
    11    13    12    1
    12   150   151    1
    13   150   149    2
    14   146   147    1
    15    20    23    1
    16    20    21    1
    17    16    17    1
    18    16    18    1
    19   147   148    1
    20    23    24    1
    21   148   149    1
    22   181   184    1
    23   181   182    1
    24   181   180    1
    25   184   185    1
    26    22    21    2
    27   182   183    2
    28    21    26   am
    29   197   196    2
    30   186   187    1
    31   174   173    2
    32    93    94    2
    33    93    92    1
    34   188   189    2
    35   188   187    1
    36   196   195    1
    37   213   212    2
    38   180   173   am
    39   187   190    1
    40   173   172    1
    41   194   195    1
    42    92    95    1
    43    92    91    1
    44    26    27    1
    45    95    96    1
    46   101   102    1
    47    98    96   ar
    48    98   100   ar
    49   212   211    1
    50   104   103    2
    51    44    43    1
    52   195   198    1
    53   171   172    1
    54     7     9   ar
    55     7     6   ar
    56    96    97   ar
    57   172   175    1
    58     9    11   ar
    59   103   102    1
    60    29    28    2
    61    27    28    1
    62    27    30    1
    63    41    43   ar
    64    41    39   ar
    65    43    42   ar
    66   202   203    1
    67   100    99   ar
    68   190   191    1
    69   190   192    1
    70   102   105    1
    71     3     4    2
    72     3     2    1
    73    28    33   am
    74     5     6    1
    75     5     2    1
    76   198   199    1
    77   210   211    1
    78   210   204   am
    79     6     8   ar
    80   191   193    1
    81   211   214    1
    82    39    38   ar
    83    31    30    1
    84   200   199    2
    85    42    40   ar
    86    89    87    1
    87    97    99   ar
    88    11    10   ar
    89     2     1    1
    90   175   176    1
    91   139   140    2
    92   139   138    1
    93    33    34    1
    94    30    32    1
    95   105   107    1
    96   105   106    1
    97   220   218    1
    98   214   215    1
    99   199   201   am
   100   215   216    1
   101   203   204    1
   102   203   206    1
   103   217   218    2
   104   217   216    1
   105    38    40   ar
   106    38    37    1
   107    34    37    1
   108    34    35    1
   109   204   205    2
   110   133   132    2
   111     8    10   ar
   112   138   141    1
   113   138   137    1
   114    90    88    1
   115   178   177   ar
   116   218   219    1
   117   176   177    1
   118   206   207    1
   119   135   134    1
   120   207   208    1
   121   207   209    1
   122    87    88    1
   123    87    84    1
   124    45    35   am
   125    45    46    1
   126    35    36    2
   127   132   137   am
   128   132   131    1
   129   177   179   ar
   130    85    86    2
   131    85    84    1
   132    84    83    1
   133    46    47    1
   134   136   134    1
   135   134   131    1
   136   131   130    1
   137   130   125   am
   138    48    47    2
   139   157   154    1
   140   156   155    2
   141   129   127    1
   142    83    77   am
   143   127   124    1
   144   127   128    1
   145   153   154    1
   146   154   155    1
   147   124   125    1
   148   124   123    1
   149   125   126    2
   150   155   158   am
   151   161   160    2
   152    78    77    2
   153   166   169    1
   154   166   165    1
   155   166   167    1
   156   169   170    1
   157    77    76    1
   158   165   160   am
   159   160   159    1
   160   159   158    1
   161   159   162    1
   162   158   164    1
   163   167   168    2
   164    76    79    1
   165    76    75    1
   166    79    80    1
   167   164   163    1
   168   114   112    1
   169   162   163    1
   170    75    70   am
   171    71    70    2
   172    70    69    1
   173    80    81    1
   174    80    82    1
   175   112   109    1
   176   112   113    1
   177    73    72    1
   178    73    74    1
   179    72    69    1
   180   109   108    1
   181   109   110    1
   182   118   117    2
   183    59    57    1
   184   121   120    1
   185   117   116    1
   186   119   120    1
   187   119   116    1
   188    69    68    1
   189    58    57    1
   190    57    56    2
   191    74    68    1
   192   120   122    1
   193   111   110    2
   194   116   115    1
   195    66    65    2
   196    68    62   am
   197    56    55    1
   198    65    67   am
   199    65    64    1
   200    62    63    2
   201    62    61    1
   202    55    54    1
   203    61    64    1
   204    61    60    1
   205    54    53    1
   206    53    50    1
   207    50    49    1
   208    50    51    1
   209    51    52    2
