@<TRIPOS>MOLECULE
tmp/4e1kA01.pdb
 176 164 0 0 0
SMALL
GASTEIGER

@<TRIPOS>ATOM
      1  N         31.1360    9.5400   86.6500 N.3     8  LEU8       -0.1231
      2  CA        31.7110    8.1910   86.6400 C.3     8  LEU8        0.1693
      3  C         30.9870    7.3430   85.6070 C.2     8  LEU8        0.2592
      4  O         29.7680    7.1740   85.6780 O.2     8  LEU8       -0.2718
      5  CB        31.6120    7.5190   88.0190 C.3     8  LEU8        0.0284
      6  CG        32.4520    8.0930   89.1630 C.3     8  LEU8        0.0019
      7  CD1       32.5830    7.0660   90.2810 C.3     8  LEU8        0.0001
      8  CD2       33.8140    8.5020   88.6660 C.3     8  LEU8        0.0001
      9  N         31.7430    6.8170   84.6470 N.am    9  ALA9       -0.1966
     10  CA        31.1590    6.1280   83.4980 C.3     9  ALA9        0.1728
     11  C         32.0290    4.9850   82.9650 C.2     9  ALA9        0.2616
     12  O         31.9460    4.6420   81.7800 O.2     9  ALA9       -0.2715
     13  CB        30.8970    7.1370   82.4000 C.3     9  ALA9        0.0334
     14  N         32.8400    4.3880   83.8390 N.am   10  ALA10      -0.1963
     15  CA        33.8280    3.3740   83.4330 C.3    10  ALA10       0.1728
     16  C         33.3170    1.9290   83.4790 C.2    10  ALA10       0.2616
     17  O         33.9510    1.0360   82.9190 O.2    10  ALA10      -0.2715
     18  CB        35.1090    3.4970   84.2900 C.3    10  ALA10       0.0334
     19  N         32.1810    1.7020   84.1340 N.am   11  GLY11      -0.1955
     20  CA        31.6610    0.3480   84.3480 C.3    11  GLY11       0.1869
     21  C         31.3830   -0.4600   83.0910 C.2    11  GLY11       0.2309
     22  O         30.9670    0.0870   82.0710 O.2    11  GLY11      -0.2863
     23  N         28.2360    0.1450   79.7140 N.3    22  LYS22      -0.1231
     24  CA        27.0320    0.3400   80.5190 C.3    22  LYS22       0.1693
     25  C         26.2850    1.6350   80.2110 C.2    22  LYS22       0.2591
     26  O         25.0730    1.6270   80.0480 O.2    22  LYS22      -0.2718
     27  CB        27.4050    0.2980   82.0000 C.3    22  LYS22       0.0285
     28  CG        26.2530    0.1070   82.9400 C.3    22  LYS22       0.0035
     29  CD        26.7530   -0.0830   84.3530 C.3    22  LYS22       0.0206
     30  CE        25.6000   -0.2770   85.3030 C.3    22  LYS22       0.1093
     31  NZ        26.0380   -0.6710   86.6590 N.3    22  LYS22      -0.1314
     32  N         27.0120    2.7460   80.1120 N.am   23  VAL23      -0.1980
     33  CA        26.3670    4.0630   80.0640 C.3    23  VAL23       0.1595
     34  C         25.8910    4.4850   78.6650 C.2    23  VAL23       0.2287
     35  O         25.2860    5.5470   78.5150 O.2    23  VAL23      -0.2864
     36  CB        27.2930    5.1610   80.6300 C.3    23  VAL23       0.0276
     37  CG1       27.6780    4.8410   82.0630 C.3    23  VAL23       0.0022
     38  CG2       28.5270    5.3370   79.7460 C.3    23  VAL23       0.0022
     39  N         40.2710    5.4530   83.2620 N.3    73  GLN73      -0.1245
     40  CA        40.4820    4.6340   84.4490 C.3    73  GLN73       0.1566
     41  C         40.9570    3.2550   84.0000 C.2    73  GLN73       0.2260
     42  O         40.3090    2.6140   83.1660 O.2    73  GLN73      -0.2867
     43  CB        39.1700    4.5160   85.2400 C.3    73  GLN73       0.0367
     44  CG        39.1850    3.5320   86.4080 C.3    73  GLN73       0.0905
     45  CD        37.8550    3.4740   87.1370 C.2    73  GLN73       0.2608
     46  OE1       37.1910    2.4340   87.1720 O.2    73  GLN73      -0.2717
     47  NE2       37.4560    4.5960   87.7200 N.am   73  GLN73      -0.0878
     48  N         39.5920   -0.5550   88.8860 N.3    76  GLN76      -0.1245
     49  CA        38.5490   -0.2080   89.8410 C.3    76  GLN76       0.1566
     50  C         39.1170   -0.2460   91.2580 C.2    76  GLN76       0.2260
     51  O         39.4630   -1.3130   91.7630 O.2    76  GLN76      -0.2867
     52  CB        37.3540   -1.1640   89.7160 C.3    76  GLN76       0.0367
     53  CG        36.2280   -0.9140   90.7230 C.3    76  GLN76       0.0905
     54  CD        35.7290    0.5280   90.7220 C.2    76  GLN76       0.2608
     55  OE1       35.4280    1.0990   91.7770 O.2    76  GLN76      -0.2717
     56  NE2       35.6380    1.1210   89.5380 N.am   76  GLN76      -0.0878
     57  N         37.4700    2.0090   93.6190 N.3    78  GLY78      -0.1210
     58  CA        36.4190    2.7390   94.3260 C.3    78  GLY78       0.1956
     59  C         36.1740    4.1400   93.7970 C.2    78  GLY78       0.2612
     60  O         36.9230    4.6410   92.9650 O.2    78  GLY78      -0.2717
     61  N         35.1210    4.7700   94.3080 N.am   79  THR79      -0.1952
     62  CA        34.6740    6.0720   93.8210 C.3    79  THR79       0.1897
     63  C         35.6590    7.2070   94.1310 C.2    79  THR79       0.2313
     64  O         35.8380    8.1100   93.3080 O.2    79  THR79      -0.2863
     65  CB        33.2830    6.4250   94.3870 C.3    79  THR79       0.1794
     66  OG1       33.2610    6.1810   95.8010 O.3    79  THR79      -0.2208
     67  CG2       32.2160    5.5730   93.7250 C.3    79  THR79       0.0378
     68  N         26.9260   10.1870   88.3170 N.3   100  TYR100     -0.1241
     69  CA        27.1100    8.8080   87.8540 C.3   100  TYR100      0.1605
     70  C         26.4500    8.6050   86.4860 C.2   100  TYR100      0.2264
     71  O         25.2730    8.9230   86.3030 O.2   100  TYR100     -0.2867
     72  CB        26.5790    7.8250   88.9260 C.3   100  TYR100      0.0534
     73  CG        27.2690    8.0790   90.2530 C.ar  100  TYR100     -0.0201
     74  CD1       28.4630    7.4390   90.5710 C.ar  100  TYR100     -0.0009
     75  CD2       26.7760    9.0160   91.1450 C.ar  100  TYR100     -0.0009
     76  CE1       29.1270    7.7020   91.7600 C.ar  100  TYR100      0.0417
     77  CE2       27.4350    9.2950   92.3400 C.ar  100  TYR100      0.0417
     78  CZ        28.6140    8.6270   92.6390 C.ar  100  TYR100      0.1957
     79  OH        29.2880    8.8930   93.8050 O.3   100  TYR100     -0.2866
     80  N         25.4930    6.0610   84.8920 N.3   102  ASP102     -0.1225
     81  CA        24.4320    5.0480   84.8790 C.3   102  ASP102      0.1805
     82  C         23.2470    5.4050   85.7890 C.2   102  ASP102      0.2597
     83  O         22.3980    4.5530   86.0690 O.2   102  ASP102     -0.2718
     84  CB        25.0040    3.6670   85.2400 C.3   102  ASP102      0.1424
     85  CG        25.5980    3.6040   86.6490 C.2   102  ASP102      0.3668
     86  OD1       25.9030    4.6620   87.2320 O.co2 102  ASP102     -0.2456
     87  OD2       25.7670    2.4770   87.1640 O.co2 102  ASP102     -0.2456
     88  N         23.1940    6.6600   86.2380 N.am  103  ALA103     -0.1979
     89  CA        22.0750    7.1980   87.0060 C.3   103  ALA103      0.1597
     90  C         21.5660    8.4230   86.2590 C.2   103  ALA103      0.2287
     91  O         21.8450    9.5570   86.6550 O.2   103  ALA103     -0.2864
     92  CB        22.5220    7.5770   88.4140 C.3   103  ALA103      0.0319
     93  N         18.4100   10.4440  100.3470 N.3   128  VAL128     -0.1245
     94  CA        17.0520   10.0460  100.0170 C.3   128  VAL128      0.1561
     95  C         16.5050    9.1220  101.1100 C.2   128  VAL128      0.2260
     96  O         17.2580    8.3300  101.6880 O.2   128  VAL128     -0.2867
     97  CB        17.0180    9.3370   98.6450 C.3   128  VAL128      0.0252
     98  CG1       17.8600    8.0630   98.6770 C.3   128  VAL128      0.0019
     99  CG2       15.5900    9.0350   98.2310 C.3   128  VAL128      0.0019
    100  N         14.2190    5.9630  102.2050 N.3   130  LEU130     -0.1245
    101  CA        13.6520    4.7150  101.7020 C.3   130  LEU130      0.1561
    102  C         12.8530    4.0240  102.8030 C.2   130  LEU130      0.2260
    103  O         13.2580    4.0390  103.9610 O.2   130  LEU130     -0.2867
    104  CB        14.7600    3.7760  101.2340 C.3   130  LEU130      0.0270
    105  CG        15.7180    4.2630  100.1440 C.3   130  LEU130      0.0019
    106  CD1       16.7070    3.1650   99.8210 C.3   130  LEU130      0.0001
    107  CD2       14.9650    4.6740   98.8900 C.3   130  LEU130      0.0001
    108  N         21.8210    0.0060  101.9850 N.3   136  TYR136     -0.1241
    109  CA        22.2920    1.3560  101.6560 C.3   136  TYR136      0.1605
    110  C         22.9730    2.0110  102.8610 C.2   136  TYR136      0.2264
    111  O         22.6510    1.7040  104.0060 O.2   136  TYR136     -0.2867
    112  CB        21.1310    2.2380  101.1900 C.3   136  TYR136      0.0534
    113  CG        20.4660    1.7510   99.9200 C.ar  136  TYR136     -0.0201
    114  CD1       19.3200    0.9650   99.9690 C.ar  136  TYR136     -0.0009
    115  CD2       20.9930    2.0660   98.6690 C.ar  136  TYR136     -0.0009
    116  CE1       18.7100    0.5090   98.8050 C.ar  136  TYR136      0.0417
    117  CE2       20.3920    1.6150   97.5010 C.ar  136  TYR136      0.0417
    118  CZ        19.2490    0.8400   97.5750 C.ar  136  TYR136      0.1957
    119  OH        18.6490    0.3940   96.4200 O.3   136  TYR136     -0.2866
    120  N         19.2930    7.5780  103.4650 N.3   165  VAL165     -0.1231
    121  CA        20.4780    6.9170  102.9390 C.3   165  VAL165      0.1692
    122  C         21.2960    7.7930  101.9780 C.2   165  VAL165      0.2592
    123  O         20.8280    8.8290  101.5000 O.2   165  VAL165     -0.2718
    124  CB        20.1170    5.5930  102.2440 C.3   165  VAL165      0.0266
    125  CG1       19.3860    4.6740  103.2110 C.3   165  VAL165      0.0020
    126  CG2       19.2890    5.8390  100.9800 C.3   165  VAL165      0.0020
    127  N         22.5250    7.3470  101.7260 N.am  166  ASN166     -0.1960
    128  CA        23.4710    8.0060  100.8260 C.3   166  ASN166      0.1819
    129  C         23.1690    7.6480   99.3650 C.2   166  ASN166      0.2621
    130  O         22.9750    6.4780   99.0310 O.2   166  ASN166     -0.2715
    131  CB        24.9020    7.5810  101.1970 C.3   166  ASN166      0.1195
    132  CG        25.9580    8.1120  100.2380 C.2   166  ASN166      0.2630
    133  OD1       25.9660    9.2860   99.8900 O.2   166  ASN166     -0.2716
    134  ND2       26.8670    7.2410   99.8260 N.am  166  ASN166     -0.0877
    135  N         23.1340    8.6680   98.5090 N.am  167  THR167     -0.1951
    136  CA        22.9420    8.4860   97.0670 C.3   167  THR167      0.1897
    137  C         24.2650    8.4930   96.2890 C.2   167  THR167      0.2313
    138  O         24.3040    8.0740   95.1320 O.2   167  THR167     -0.2863
    139  CB        22.0880    9.6120   96.4820 C.3   167  THR167      0.1794
    140  OG1       22.8340   10.8360   96.5250 O.3   167  THR167     -0.2208
    141  CG2       20.7770    9.7680   97.2510 C.3   167  THR167      0.0378
    142  N         13.2590    9.1290   94.2780 N.3   217  VAL217     -0.1245
    143  CA        14.3280    8.1250   94.3450 C.3   217  VAL217      0.1561
    144  C         14.8320    7.7480   92.9530 C.2   217  VAL217      0.2260
    145  O         15.9860    7.3600   92.8030 O.2   217  VAL217     -0.2867
    146  CB        13.8770    6.8250   95.0760 C.3   217  VAL217      0.0252
    147  CG1       14.9790    5.7600   95.0460 C.3   217  VAL217      0.0019
    148  CG2       13.4960    7.1240   96.5160 C.3   217  VAL217      0.0019
    149  N         18.2080    9.0350   91.5770 N.3   220  VAL220     -0.1231
    150  CA        19.4710    8.5090   92.0800 C.3   220  VAL220      0.1692
    151  C         19.6370    7.0100   91.8410 C.2   220  VAL220      0.2592
    152  O         20.6820    6.4390   92.1700 O.2   220  VAL220     -0.2718
    153  CB        19.6250    8.8180   93.5760 C.3   220  VAL220      0.0266
    154  CG1       19.6320   10.3270   93.7960 C.3   220  VAL220      0.0020
    155  CG2       18.5130    8.1430   94.3950 C.3   220  VAL220      0.0020
    156  N         18.6190    6.3790   91.2540 N.am  221  GLU221     -0.1966
    157  CA        18.6940    4.9740   90.8730 C.3   221  GLU221      0.1733
    158  C         19.6140    4.7950   89.6780 C.2   221  GLU221      0.2616
    159  O         19.5680    5.5810   88.7330 O.2   221  GLU221     -0.2715
    160  CB        17.3130    4.4460   90.4980 C.3   221  GLU221      0.0429
    161  CG        16.3830    4.2430   91.6700 C.3   221  GLU221      0.1163
    162  CD        16.6520    2.9550   92.4330 C.2   221  GLU221      0.3649
    163  OE1       17.7460    2.3640   92.2790 O.co2 221  GLU221     -0.2457
    164  OE2       15.7550    2.5380   93.1950 O.co2 221  GLU221     -0.2457
    165  N         20.4480    3.7580   89.7300 N.am  222  GLY222     -0.1955
    166  CA        21.2740    3.3680   88.5970 C.3   222  GLY222      0.1869
    167  C         20.6730    2.1720   87.8760 C.2   222  GLY222      0.2309
    168  O         19.9820    1.3640   88.4880 O.2   222  GLY222     -0.2863
    169  N         21.4640   -1.2630   86.2900 N.3   224  ASN224     -0.1240
    170  CA        22.4740   -2.3320   86.2100 C.3   224  ASN224      0.1653
    171  C         22.1520   -3.4160   85.1800 C.2   224  ASN224      0.2266
    172  O         23.0080   -4.2320   84.8330 O.2   224  ASN224     -0.2867
    173  CB        22.6370   -3.0020   87.5790 C.3   224  ASN224      0.1155
    174  CG        23.2220   -2.0780   88.6270 C.2   224  ASN224      0.2627
    175  OD1       23.9040   -1.1010   88.3140 O.2   224  ASN224     -0.2716
    176  ND2       22.9600   -2.3920   89.8910 N.am  224  ASN224     -0.0877
@<TRIPOS>BOND
     1    35    34    2
     2    34    33    1
     3    23    24    1
     4    38    36    1
     5    26    25    2
     6    33    32    1
     7    33    36    1
     8    32    25   am
     9    25    24    1
    10    24    27    1
    11    36    37    1
    12    12    11    2
    13    27    28    1
    14    22    21    2
    15    13    10    1
    16    17    16    2
    17    28    29    1
    18    11    10    1
    19    11    14   am
    20    21    20    1
    21    42    41    2
    22    39    40    1
    23    15    16    1
    24    15    14    1
    25    15    18    1
    26    16    19   am
    27    10     9    1
    28    41    40    1
    29    19    20    1
    30    29    30    1
    31    40    43    1
    32     9     3   am
    33   172   171    2
    34    81    80    1
    35    81    84    1
    36    81    82    1
    37   171   170    1
    38    43    44    1
    39    84    85    1
    40    30    31    1
    41     3     4    2
    42     3     2    1
    43    82    83    2
    44    82    88   am
    45   170   169    1
    46   170   173    1
    47    88    89    1
    48    90    91    2
    49    90    89    1
    50    71    70    2
    51    44    45    1
    52    70    69    1
    53     2     1    1
    54     2     5    1
    55    85    87   ar
    56    85    86   ar
    57    89    92    1
    58    45    46    2
    59    45    47   am
    60   173   174    1
    61    69    68    1
    62    69    72    1
    63   167   168    2
    64   167   166    1
    65     5     6    1
    66   175   174    2
    67   166   165    1
    68   174   176   am
    69     8     6    1
    70   159   158    2
    71    48    49    1
    72    72    73    1
    73     6     7    1
    74    56    54   am
    75   158   165   am
    76   158   157    1
    77    52    49    1
    78    52    53    1
    79    49    50    1
    80    73    74   ar
    81    73    75   ar
    82   160   157    1
    83   160   161    1
    84    74    76   ar
    85    54    53    1
    86    54    55    2
    87   157   156    1
    88    75    77   ar
    89   156   151   am
    90    50    51    2
    91   149   150    1
    92   161   162    1
    93    76    78   ar
    94   151   150    1
    95   151   152    2
    96   150   153    1
    97   163   162   ar
    98    77    78   ar
    99   162   164   ar
   100    78    79    1
   101   145   144    2
   102   144   143    1
   103    60    59    2
   104    64    63    2
   105   153   154    1
   106   153   155    1
   107    57    58    1
   108    67    65    1
   109    59    61   am
   110    59    58    1
   111    62    63    1
   112    62    61    1
   113    62    65    1
   114   142   143    1
   115   143   146    1
   116    65    66    1
   117   147   146    1
   118   146   148    1
   119   138   137    2
   120   137   136    1
   121   119   118    1
   122   139   140    1
   123   139   136    1
   124   139   141    1
   125   136   135    1
   126   117   118   ar
   127   117   115   ar
   128   118   116   ar
   129    99    97    1
   130   135   129   am
   131    97    98    1
   132    97    94    1
   133   115   113   ar
   134   116   114   ar
   135   107   105    1
   136   130   129    2
   137   129   128    1
   138   106   105    1
   139   134   132   am
   140   133   132    2
   141   113   114   ar
   142   113   112    1
   143    94    93    1
   144    94    95    1
   145   105   104    1
   146   132   131    1
   147   128   131    1
   148   128   127    1
   149   126   124    1
   150    95    96    2
   151   112   109    1
   152   104   101    1
   153   123   122    2
   154   109   108    1
   155   109   110    1
   156   101   100    1
   157   101   102    1
   158   127   122   am
   159   122   121    1
   160   124   121    1
   161   124   125    1
   162   102   103    2
   163   110   111    2
   164   121   120    1
