@<TRIPOS>MOLECULE
tmp/4e1oC01.pdb
 112 111 0 0 0
SMALL
GASTEIGER

@<TRIPOS>ATOM
      1  N         58.7670  -78.8320   58.9830 N.3    76  TRP76      -0.1241
      2  CA        58.8410  -77.3810   58.8840 C.3    76  TRP76       0.1605
      3  C         57.5880  -76.7420   58.2820 C.2    76  TRP76       0.2264
      4  O         57.3410  -75.5530   58.4980 O.2    76  TRP76      -0.2867
      5  CB        60.0690  -76.9840   58.0570 C.3    76  TRP76       0.0550
      6  CG        61.3930  -76.9850   58.8110 C.ar   76  TRP76       0.0003
      7  CD1       62.0760  -78.0660   59.2930 C.ar   76  TRP76       0.0946
      8  CD2       62.2020  -75.8420   59.1070 C.ar   76  TRP76       0.0152
      9  NE1       63.2490  -77.6640   59.8960 N.ar   76  TRP76      -0.2442
     10  CE2       63.3470  -76.3000   59.7910 C.ar   76  TRP76       0.0810
     11  CE3       62.0610  -74.4740   58.8700 C.ar   76  TRP76       0.0012
     12  CZ2       64.3470  -75.4330   60.2360 C.ar   76  TRP76       0.0191
     13  CZ3       63.0480  -73.6130   59.3120 C.ar   76  TRP76       0.0001
     14  CH2       64.1790  -74.0950   59.9890 C.ar   76  TRP76       0.0015
     15  N         62.9220  -71.3220   65.2360 N.3    84  TYR84      -0.1227
     16  CA        63.7590  -70.5980   64.2920 C.3    84  TYR84       0.1736
     17  C         62.9300  -69.4800   63.6490 C.2    84  TYR84       0.2595
     18  O         62.1460  -68.8330   64.3340 O.2    84  TYR84      -0.2718
     19  CB        64.3440  -71.5610   63.2520 C.3    84  TYR84       0.0548
     20  CG        64.8620  -72.8790   63.8220 C.ar   84  TYR84      -0.0200
     21  CD1       65.8740  -72.9050   64.7810 C.ar   84  TYR84      -0.0009
     22  CD2       64.3420  -74.0940   63.3960 C.ar   84  TYR84      -0.0009
     23  CE1       66.3460  -74.1080   65.2950 C.ar   84  TYR84       0.0417
     24  CE2       64.8060  -75.2970   63.9020 C.ar   84  TYR84       0.0417
     25  CZ        65.8070  -75.3020   64.8480 C.ar   84  TYR84       0.1957
     26  OH        66.2530  -76.5110   65.3380 O.3    84  TYR84      -0.2866
     27  N         63.1160  -69.2290   62.3600 N.am   85  TYR85      -0.1963
     28  CA        62.1700  -68.4230   61.6070 C.3    85  TYR85       0.1756
     29  C         61.4640  -69.3470   60.6080 C.2    85  TYR85       0.2461
     30  O         61.8760  -70.5050   60.4530 O.2    85  TYR85      -0.2730
     31  CB        62.8780  -67.2310   60.9460 C.3    85  TYR85       0.0574
     32  CG        62.9720  -65.9960   61.8300 C.ar   85  TYR85      -0.0198
     33  CD1       61.8670  -65.5290   62.5270 C.ar   85  TYR85      -0.0009
     34  CD2       64.1610  -65.2730   61.9380 C.ar   85  TYR85      -0.0009
     35  CE1       61.9380  -64.3880   63.3150 C.ar   85  TYR85       0.0417
     36  CE2       64.2400  -64.1370   62.7220 C.ar   85  TYR85       0.0417
     37  CZ        63.1230  -63.6990   63.4110 C.ar   85  TYR85       0.1957
     38  OH        63.1810  -62.5700   64.1910 O.3    85  TYR85      -0.2866
     39  N         60.3670  -68.8850   59.9770 N.am   86  PRO86      -0.2716
     40  CA        59.7210  -69.8040   59.0350 C.3    86  PRO86       0.1536
     41  C         60.6230  -70.1390   57.8540 C.2    86  PRO86       0.2598
     42  O         61.5260  -69.3720   57.5400 O.2    86  PRO86      -0.2715
     43  CB        58.4960  -69.0120   58.5310 C.3    86  PRO86       0.0310
     44  CG        58.3980  -67.8020   59.4130 C.3    86  PRO86       0.0237
     45  CD        59.7820  -67.5390   59.9080 C.3    86  PRO86       0.0939
     46  N         60.3780  -71.2850   57.2250 N.am   87  ALA87      -0.1978
     47  CA        60.8960  -71.5860   55.8920 C.3    87  ALA87       0.1597
     48  C         59.7510  -72.2440   55.1470 C.2    87  ALA87       0.2287
     49  O         59.4660  -73.4170   55.3400 O.2    87  ALA87      -0.2864
     50  CB        62.1120  -72.4990   55.9500 C.3    87  ALA87       0.0319
     51  N         72.8880  -61.7010   63.8280 N.3   198  HIS198     -0.1241
     52  CA        72.8980  -63.1540   63.6580 C.3   198  HIS198      0.1621
     53  C         74.3470  -63.6700   63.6210 C.2   198  HIS198      0.2264
     54  O         75.2710  -62.9320   63.2600 O.2   198  HIS198     -0.2867
     55  CB        72.1380  -63.5250   62.3840 C.3   198  HIS198      0.0745
     56  CG        72.0160  -64.9990   62.1580 C.ar  198  HIS198      0.0817
     57  ND1       72.8300  -65.6850   61.2830 N.ar  198  HIS198     -0.2268
     58  CD2       71.1810  -65.9190   62.6970 C.ar  198  HIS198      0.1154
     59  CE1       72.4990  -66.9640   61.2890 C.ar  198  HIS198      0.1986
     60  NE2       71.5040  -67.1330   62.1430 N.ar  198  HIS198     -0.2212
     61  N         67.3580  -62.1140   65.1590 N.3   252  THR252     -0.1218
     62  CA        66.9530  -63.4970   65.3700 C.3   252  THR252      0.1862
     63  C         66.2700  -63.7410   66.7140 C.2   252  THR252      0.2287
     64  O         65.2200  -64.3760   66.7830 O.2   252  THR252     -0.2866
     65  CB        68.1750  -64.4130   65.2630 C.3   252  THR252      0.1770
     66  OG1       68.8860  -64.0840   64.0640 O.3   252  THR252     -0.2211
     67  CG2       67.7460  -65.8730   65.2340 C.3   252  THR252      0.0375
     68  N         62.9370  -67.2380   51.0970 N.3   307  SER307     -0.1202
     69  CA        62.9290  -68.5920   51.6180 C.3   307  SER307      0.2020
     70  C         62.5830  -68.7040   53.1060 C.2   307  SER307      0.2618
     71  O         62.5720  -69.8080   53.6530 O.2   307  SER307     -0.2717
     72  CB        64.2940  -69.2290   51.3800 C.3   307  SER307      0.2103
     73  OG        65.2970  -68.5310   52.1140 O.3   307  SER307     -0.2182
     74  N         62.3160  -67.5880   53.7770 N.am  308  LYS308     -0.1979
     75  CA        61.7700  -67.6530   55.1200 C.3   308  LYS308      0.1596
     76  C         60.2470  -67.4990   55.0860 C.2   308  LYS308      0.2287
     77  O         59.5160  -68.4590   55.3120 O.2   308  LYS308     -0.2864
     78  CB        62.4300  -66.6270   56.0500 C.3   308  LYS308      0.0298
     79  CG        63.7710  -67.1000   56.6130 C.3   308  LYS308      0.0038
     80  CD        64.4150  -66.0560   57.5150 C.3   308  LYS308      0.0206
     81  CE        65.6850  -66.5800   58.1900 C.3   308  LYS308      0.1093
     82  NZ        66.7270  -67.0470   57.2260 N.3   308  LYS308     -0.1314
     83  N         63.3510  -73.2720   49.9860 N.3   314  PHE314     -0.1241
     84  CA        64.7910  -73.0220   50.0480 C.3   314  PHE314      0.1605
     85  C         65.5180  -73.8140   48.9580 C.2   314  PHE314      0.2264
     86  O         65.1900  -74.9810   48.7450 O.2   314  PHE314     -0.2867
     87  CB        65.2850  -73.4040   51.4410 C.3   314  PHE314      0.0534
     88  CG        66.7350  -73.1300   51.6690 C.ar  314  PHE314     -0.0203
     89  CD1       67.1560  -71.9570   52.2780 C.ar  314  PHE314     -0.0042
     90  CD2       67.6850  -74.0580   51.2990 C.ar  314  PHE314     -0.0042
     91  CE1       68.5090  -71.7120   52.4770 C.ar  314  PHE314     -0.0003
     92  CE2       69.0410  -73.8240   51.5070 C.ar  314  PHE314     -0.0003
     93  CZ        69.4510  -72.6510   52.0960 C.ar  314  PHE314     -0.0000
     94  N         62.0300  -73.2320   70.2120 N.3   439  ILE439     -0.1245
     95  CA        63.4230  -73.1500   70.6810 C.3   439  ILE439      0.1561
     96  C         63.6250  -71.8710   71.4720 C.2   439  ILE439      0.2260
     97  O         62.8750  -70.9100   71.2870 O.2   439  ILE439     -0.2867
     98  CB        64.4640  -73.2410   69.5340 C.3   439  ILE439      0.0252
     99  CG1       64.2690  -72.1380   68.4880 C.3   439  ILE439      0.0019
    100  CG2       64.3950  -74.6100   68.8670 C.3   439  ILE439      0.0019
    101  CD1       65.2560  -70.9990   68.5700 C.3   439  ILE439      0.0001
    102  N         61.0270  -68.5470   72.1890 N.3   450  ARG450     -0.1245
    103  CA        60.5680  -67.8990   70.9620 C.3   450  ARG450      0.1563
    104  C         59.3740  -68.6670   70.3910 C.2   450  ARG450      0.2260
    105  O         59.3980  -69.8950   70.3440 O.2   450  ARG450     -0.2867
    106  CB        61.6930  -67.8650   69.9310 C.3   450  ARG450      0.0307
    107  CG        62.8720  -66.9910   70.3260 C.3   450  ARG450      0.0489
    108  CD        64.0480  -67.1710   69.3970 C.3   450  ARG450      0.2205
    109  NE        63.8880  -66.5270   68.0890 N.pl3 450  ARG450     -0.0865
    110  CZ        63.4100  -67.1080   66.9870 C.cat 450  ARG450      0.5346
    111  NH1       62.9720  -68.3640   66.9940 N.pl3 450  ARG450      0.1354
    112  NH2       63.3610  -66.4170   65.8560 N.pl3 450  ARG450      0.1354
@<TRIPOS>BOND
     1    86    85    2
     2    85    84    1
     3    83    84    1
     4    84    87    1
     5    68    69    1
     6    90    92   ar
     7    90    88   ar
     8    72    69    1
     9    72    73    1
    10    87    88    1
    11    92    93   ar
    12    69    70    1
    13    88    89   ar
    14    93    91   ar
    15    89    91   ar
    16    70    71    2
    17    70    74   am
    18    74    75    1
    19    76    75    1
    20    76    77    2
    21    75    78    1
    22    48    49    2
    23    48    47    1
    24    47    50    1
    25    47    46    1
    26    78    79    1
    27    79    80    1
    28    46    41   am
    29    82    81    1
    30    80    81    1
    31    42    41    2
    32    41    40    1
    33     5     6    1
    34     5     2    1
    35     3     4    2
    36     3     2    1
    37    43    40    1
    38    43    44    1
    39     6     8   ar
    40     6     7   ar
    41    11     8   ar
    42    11    13   ar
    43     2     1    1
    44    40    39    1
    45     8    10   ar
    46     7     9   ar
    47    13    14   ar
    48    44    45    1
    49    10     9   ar
    50    10    12   ar
    51    45    39    1
    52    39    29   am
    53    14    12   ar
    54    30    29    2
    55    29    28    1
    56    31    28    1
    57    31    32    1
    58    57    59   ar
    59    57    56   ar
    60    59    60   ar
    61    28    27    1
    62    32    34   ar
    63    32    33   ar
    64    34    36   ar
    65    60    58   ar
    66    56    55    1
    67    56    58   ar
    68    27    17   am
    69    55    52    1
    70    33    35   ar
    71    36    37   ar
    72    19    20    1
    73    19    16    1
    74    54    53    2
    75    35    37   ar
    76    22    20   ar
    77    22    24   ar
    78    37    38    1
    79    53    52    1
    80    17    16    1
    81    17    18    2
    82    52    51    1
    83    20    21   ar
    84    24    25   ar
    85    66    65    1
    86    16    15    1
    87    21    23   ar
    88    25    23   ar
    89    25    26    1
    90    61    62    1
    91    67    65    1
    92    65    62    1
    93    62    63    1
    94   112   110    1
    95    63    64    2
    96   110   111    1
    97   110   109    2
    98   109   108    1
    99    99   101    1
   100    99    98    1
   101   100    98    1
   102   108   107    1
   103    98    95    1
   104   106   107    1
   105   106   103    1
   106    94    95    1
   107   105   104    2
   108   104   103    1
   109    95    96    1
   110   103   102    1
   111    97    96    2
