@<TRIPOS>MOLECULE
tmp/4e1oC00.pdb
 119 111 0 0 0
SMALL
GASTEIGER

@<TRIPOS>ATOM
      1  N         62.9220  -71.3220   65.2360 N.3    84  TYR84      -0.1227
      2  CA        63.7590  -70.5980   64.2920 C.3    84  TYR84       0.1736
      3  C         62.9300  -69.4800   63.6490 C.2    84  TYR84       0.2595
      4  O         62.1460  -68.8330   64.3340 O.2    84  TYR84      -0.2718
      5  CB        64.3440  -71.5610   63.2520 C.3    84  TYR84       0.0548
      6  CG        64.8620  -72.8790   63.8220 C.ar   84  TYR84      -0.0200
      7  CD1       65.8740  -72.9050   64.7810 C.ar   84  TYR84      -0.0009
      8  CD2       64.3420  -74.0940   63.3960 C.ar   84  TYR84      -0.0009
      9  CE1       66.3460  -74.1080   65.2950 C.ar   84  TYR84       0.0417
     10  CE2       64.8060  -75.2970   63.9020 C.ar   84  TYR84       0.0417
     11  CZ        65.8070  -75.3020   64.8480 C.ar   84  TYR84       0.1957
     12  OH        66.2530  -76.5110   65.3380 O.3    84  TYR84      -0.2866
     13  N         63.1160  -69.2290   62.3600 N.am   85  TYR85      -0.1976
     14  CA        62.1700  -68.4230   61.6070 C.3    85  TYR85       0.1639
     15  C         61.4640  -69.3470   60.6080 C.2    85  TYR85       0.2290
     16  O         61.8760  -70.5050   60.4530 O.2    85  TYR85      -0.2864
     17  CB        62.8780  -67.2310   60.9460 C.3    85  TYR85       0.0560
     18  CG        62.9720  -65.9960   61.8300 C.ar   85  TYR85      -0.0198
     19  CD1       61.8670  -65.5290   62.5270 C.ar   85  TYR85      -0.0009
     20  CD2       64.1610  -65.2730   61.9380 C.ar   85  TYR85      -0.0009
     21  CE1       61.9380  -64.3880   63.3150 C.ar   85  TYR85       0.0417
     22  CE2       64.2400  -64.1370   62.7220 C.ar   85  TYR85       0.0417
     23  CZ        63.1230  -63.6990   63.4110 C.ar   85  TYR85       0.1957
     24  OH        63.1810  -62.5700   64.1910 O.3    85  TYR85      -0.2866
     25  N         71.7680  -68.1710   50.6620 N.3   153  THR153     -0.1203
     26  CA        71.5630  -67.8370   52.0710 C.3   153  THR153      0.1994
     27  C         71.8860  -66.3600   52.3130 C.2   153  THR153      0.2618
     28  O         72.6540  -65.7410   51.5670 O.2   153  THR153     -0.2717
     29  CB        72.4800  -68.6650   53.0220 C.3   153  THR153      0.1784
     30  OG1       73.8640  -68.4160   52.7230 O.3   153  THR153     -0.2211
     31  CG2       72.1940  -70.1690   52.9320 C.3   153  THR153      0.0376
     32  N         71.3190  -65.8140   53.3810 N.am  154  VAL154     -0.1965
     33  CA        71.7250  -64.4980   53.8700 C.3   154  VAL154      0.1727
     34  C         73.1660  -64.5620   54.3800 C.2   154  VAL154      0.2616
     35  O         73.9620  -63.6300   54.1690 O.2   154  VAL154     -0.2715
     36  CB        70.7650  -63.9910   54.9680 C.3   154  VAL154      0.0290
     37  CG1       71.4350  -62.9310   55.8610 C.3   154  VAL154      0.0023
     38  CG2       69.4820  -63.4480   54.3380 C.3   154  VAL154      0.0023
     39  N         73.5110  -65.6650   55.0380 N.am  155  SER155     -0.1950
     40  CA        74.8880  -65.8870   55.5050 C.3   155  SER155      0.1924
     41  C         75.9020  -65.5650   54.4080 C.2   155  SER155      0.2314
     42  O         76.8330  -64.7730   54.6230 O.2   155  SER155     -0.2863
     43  CB        75.0870  -67.3380   55.9590 C.3   155  SER155      0.2116
     44  OG        74.3550  -67.6490   57.1340 O.3   155  SER155     -0.2180
     45  N         72.8880  -61.7010   63.8280 N.3   198  HIS198     -0.1241
     46  CA        72.8980  -63.1540   63.6580 C.3   198  HIS198      0.1621
     47  C         74.3470  -63.6700   63.6210 C.2   198  HIS198      0.2264
     48  O         75.2710  -62.9320   63.2600 O.2   198  HIS198     -0.2867
     49  CB        72.1380  -63.5250   62.3840 C.3   198  HIS198      0.0745
     50  CG        72.0160  -64.9990   62.1580 C.ar  198  HIS198      0.0817
     51  ND1       72.8300  -65.6850   61.2830 N.ar  198  HIS198     -0.2268
     52  CD2       71.1810  -65.9190   62.6970 C.ar  198  HIS198      0.1154
     53  CE1       72.4990  -66.9640   61.2890 C.ar  198  HIS198      0.1986
     54  NE2       71.5040  -67.1330   62.1430 N.ar  198  HIS198     -0.2212
     55  N         75.8750  -65.4660   61.6590 N.3   200  SER200     -0.1217
     56  CA        76.4670  -65.3330   60.3220 C.3   200  SER200      0.1889
     57  C         77.3980  -64.1230   60.1740 C.2   200  SER200      0.2288
     58  O         78.3260  -64.1590   59.3680 O.2   200  SER200     -0.2866
     59  CB        75.3780  -65.2590   59.2480 C.3   200  SER200      0.2089
     60  OG        74.4490  -64.2100   59.4970 O.3   200  SER200     -0.2183
     61  N         70.8400  -54.8400   61.2860 N.3   248  THR248     -0.1218
     62  CA        69.8710  -55.9230   61.2040 C.3   248  THR248      0.1862
     63  C         68.4490  -55.3990   61.3640 C.2   248  THR248      0.2287
     64  O         68.1370  -54.6940   62.3280 O.2   248  THR248     -0.2866
     65  CB        70.1390  -56.9960   62.2590 C.3   248  THR248      0.1770
     66  OG1       71.5080  -57.4370   62.1540 O.3   248  THR248     -0.2211
     67  CG2       69.1860  -58.1820   62.0670 C.3   248  THR248      0.0375
     68  N         65.0950  -57.0400   61.9960 N.3   250  GLY250     -0.1225
     69  CA        64.4400  -58.2710   62.4150 C.3   250  GLY250      0.1811
     70  C         65.4480  -59.2580   62.9700 C.2   250  GLY250      0.2280
     71  O         65.7050  -60.3060   62.3760 O.2   250  GLY250     -0.2866
     72  N         67.3580  -62.1140   65.1590 N.3   252  THR252     -0.1218
     73  CA        66.9530  -63.4970   65.3700 C.3   252  THR252      0.1862
     74  C         66.2700  -63.7410   66.7140 C.2   252  THR252      0.2287
     75  O         65.2200  -64.3760   66.7830 O.2   252  THR252     -0.2866
     76  CB        68.1750  -64.4130   65.2630 C.3   252  THR252      0.1770
     77  OG1       68.8860  -64.0840   64.0640 O.3   252  THR252     -0.2211
     78  CG2       67.7460  -65.8730   65.2340 C.3   252  THR252      0.0375
     79  N         70.9460  -56.7320   56.8690 N.3   276  ASP276     -0.1239
     80  CA        70.4370  -58.0910   57.0110 C.3   276  ASP276      0.1674
     81  C         68.9890  -57.9890   57.4580 C.2   276  ASP276      0.2266
     82  O         68.7000  -57.6850   58.6250 O.2   276  ASP276     -0.2867
     83  CB        71.2720  -58.8910   58.0220 C.3   276  ASP276      0.1410
     84  CG        70.7140  -60.2890   58.2880 C.2   276  ASP276      0.3668
     85  OD1       69.6200  -60.6300   57.7580 O.co2 276  ASP276     -0.2456
     86  OD2       71.3780  -61.0390   59.0400 O.co2 276  ASP276     -0.2456
     87  N         66.8690  -60.7560   56.8620 N.3   278  ALA278     -0.1245
     88  CA        66.5430  -62.1490   56.5050 C.3   278  ALA278      0.1562
     89  C         65.0450  -62.4690   56.5840 C.2   278  ALA278      0.2260
     90  O         64.4260  -62.8170   55.5860 O.2   278  ALA278     -0.2867
     91  CB        67.3340  -63.1240   57.3770 C.3   278  ALA278      0.0290
     92  N         65.4200  -63.0370   52.9380 N.3   305  ASN305     -0.1240
     93  CA        65.0740  -64.3830   52.4930 C.3   305  ASN305      0.1653
     94  C         63.6140  -64.5830   52.1050 C.2   305  ASN305      0.2266
     95  O         62.7740  -64.8020   52.9730 O.2   305  ASN305     -0.2867
     96  CB        65.4410  -65.3960   53.5770 C.3   305  ASN305      0.1155
     97  CG        66.9220  -65.7430   53.5750 C.2   305  ASN305      0.2627
     98  OD1       67.5970  -65.6060   52.5580 O.2   305  ASN305     -0.2716
     99  ND2       67.4260  -66.1960   54.7150 N.am  305  ASN305     -0.0877
    100  N         62.3160  -67.5880   53.7770 N.3   308  LYS308     -0.1245
    101  CA        61.7700  -67.6530   55.1200 C.3   308  LYS308      0.1561
    102  C         60.2470  -67.4990   55.0860 C.2   308  LYS308      0.2260
    103  O         59.5160  -68.4590   55.3120 O.2   308  LYS308     -0.2867
    104  CB        62.4300  -66.6270   56.0500 C.3   308  LYS308      0.0271
    105  CG        63.7710  -67.1000   56.6130 C.3   308  LYS308      0.0035
    106  CD        64.4150  -66.0560   57.5150 C.3   308  LYS308      0.0206
    107  CE        65.6850  -66.5800   58.1900 C.3   308  LYS308      0.1093
    108  NZ        66.7270  -67.0470   57.2260 N.3   308  LYS308     -0.1314
    109  N         63.3510  -73.2720   49.9860 N.3   314  PHE314     -0.1241
    110  CA        64.7910  -73.0220   50.0480 C.3   314  PHE314      0.1605
    111  C         65.5180  -73.8140   48.9580 C.2   314  PHE314      0.2264
    112  O         65.1900  -74.9810   48.7450 O.2   314  PHE314     -0.2867
    113  CB        65.2850  -73.4040   51.4410 C.3   314  PHE314      0.0534
    114  CG        66.7350  -73.1300   51.6690 C.ar  314  PHE314     -0.0203
    115  CD1       67.1560  -71.9570   52.2780 C.ar  314  PHE314     -0.0042
    116  CD2       67.6850  -74.0580   51.2990 C.ar  314  PHE314     -0.0042
    117  CE1       68.5090  -71.7120   52.4770 C.ar  314  PHE314     -0.0003
    118  CE2       69.0410  -73.8240   51.5070 C.ar  314  PHE314     -0.0003
    119  CZ        69.4510  -72.6510   52.0960 C.ar  314  PHE314     -0.0000
@<TRIPOS>BOND
     1   112   111    2
     2   111   110    1
     3   109   110    1
     4   110   113    1
     5    25    26    1
     6   116   118   ar
     7   116   114   ar
     8   113   114    1
     9   118   119   ar
    10    28    27    2
    11   114   115   ar
    12    26    27    1
    13    26    29    1
    14   119   117   ar
    15    94    93    1
    16    94    95    2
    17   115   117   ar
    18    27    32   am
    19    93    92    1
    20    93    96    1
    21    98    97    2
    22    30    29    1
    23    31    29    1
    24    32    33    1
    25    97    96    1
    26    97    99   am
    27   100   101    1
    28    33    34    1
    29    33    36    1
    30    35    34    2
    31    38    36    1
    32    34    39   am
    33    41    42    2
    34    41    40    1
    35    36    37    1
    36    39    40    1
    37   102   101    1
    38   102   103    2
    39   101   104    1
    40    40    43    1
    41    90    89    2
    42    43    44    1
    43   104   105    1
    44    88    89    1
    45    88    87    1
    46    88    91    1
    47   105   106    1
    48    79    80    1
    49    80    81    1
    50    80    83    1
    51   108   107    1
    52    81    82    2
    53   106   107    1
    54    85    84   ar
    55    83    84    1
    56    84    86   ar
    57    59    60    1
    58    59    56    1
    59    58    57    2
    60    57    56    1
    61    56    55    1
    62    16    15    2
    63    15    14    1
    64    17    14    1
    65    17    18    1
    66    62    61    1
    67    62    63    1
    68    62    65    1
    69    51    53   ar
    70    51    50   ar
    71    53    54   ar
    72    63    64    2
    73    14    13    1
    74    18    20   ar
    75    18    19   ar
    76    20    22   ar
    77    68    69    1
    78    67    65    1
    79    54    52   ar
    80    66    65    1
    81    50    49    1
    82    50    52   ar
    83    13     3   am
    84    71    70    2
    85    49    46    1
    86    69    70    1
    87    19    21   ar
    88    22    23   ar
    89     5     6    1
    90     5     2    1
    91    48    47    2
    92    21    23   ar
    93     8     6   ar
    94     8    10   ar
    95    23    24    1
    96    47    46    1
    97     3     2    1
    98     3     4    2
    99    46    45    1
   100     6     7   ar
   101    10    11   ar
   102    77    76    1
   103     2     1    1
   104     7     9   ar
   105    11     9   ar
   106    11    12    1
   107    72    73    1
   108    78    76    1
   109    76    73    1
   110    73    74    1
   111    74    75    2
