@<TRIPOS>MOLECULE
tmp/4e1sA05.pdb
 89 86 0 0 0
SMALL
GASTEIGER

@<TRIPOS>ATOM
      1  N        -26.9010  -26.4270    5.4940 N.3     8  VAL8       -0.1245
      2  CA       -28.2240  -27.0010    5.6800 C.3     8  VAL8        0.1561
      3  C        -28.8370  -26.4650    6.9690 C.2     8  VAL8        0.2260
      4  O        -28.1910  -26.4210    8.0160 O.2     8  VAL8       -0.2867
      5  CB       -28.1820  -28.5570    5.7490 C.3     8  VAL8        0.0252
      6  CG1      -29.5230  -29.1140    6.2290 C.3     8  VAL8        0.0019
      7  CG2      -27.8150  -29.1380    4.4020 C.3     8  VAL8        0.0019
      8  N        -32.2000  -26.9530    9.5750 N.3    10  LEU10      -0.1245
      9  CA       -33.4060  -27.6560    9.9670 C.3    10  LEU10       0.1561
     10  C        -34.0390  -26.8750   11.1060 C.2    10  LEU10       0.2260
     11  O        -33.3580  -26.5240   12.0700 O.2    10  LEU10      -0.2867
     12  CB       -33.0640  -29.0640   10.4690 C.3    10  LEU10       0.0270
     13  CG       -32.2870  -29.9570    9.5080 C.3    10  LEU10       0.0019
     14  CD1      -32.0550  -31.3260   10.1310 C.3    10  LEU10       0.0001
     15  CD2      -33.0660  -30.0870    8.2340 C.3    10  LEU10       0.0001
     16  N        -36.9460  -27.1420    6.1950 N.3    19  SER19      -0.1202
     17  CA       -35.5300  -27.3480    5.9450 C.3    19  SER19       0.2020
     18  C        -35.0820  -26.5060    4.7660 C.2    19  SER19       0.2619
     19  O        -35.9010  -26.0920    3.9430 O.2    19  SER19      -0.2717
     20  CB       -35.2500  -28.8290    5.6580 C.3    19  SER19       0.2103
     21  OG       -35.9900  -29.2910    4.5360 O.3    19  SER19      -0.2182
     22  N        -33.7790  -26.2630    4.6810 N.am   20  SER20      -0.1937
     23  CA       -33.2280  -25.4440    3.6060 C.3    20  SER20       0.2055
     24  C        -31.7800  -25.8190    3.3180 C.2    20  SER20       0.2642
     25  O        -31.1040  -26.4410    4.1470 O.2    20  SER20      -0.2714
     26  CB       -33.3240  -23.9630    3.9590 C.3    20  SER20       0.2130
     27  OG       -32.4740  -23.6400    5.0420 O.3    20  SER20      -0.2179
     28  N        -31.3270  -25.4620    2.1200 N.am   21  LEU21      -0.1977
     29  CA       -29.9460  -25.6460    1.7120 C.3    21  LEU21       0.1596
     30  C        -29.5490  -24.3830    0.9630 C.2    21  LEU21       0.2287
     31  O        -30.2500  -23.9590    0.0460 O.2    21  LEU21      -0.2864
     32  CB       -29.8230  -26.8650    0.7820 C.3    21  LEU21       0.0297
     33  CG       -28.4760  -27.1220    0.0840 C.3    21  LEU21       0.0022
     34  CD1      -27.3500  -27.3620    1.1040 C.3    21  LEU21       0.0001
     35  CD2      -28.5860  -28.3310   -0.8770 C.3    21  LEU21       0.0001
     36  N        -30.0610  -20.7610   -3.0890 N.3    40  GLY40      -0.1210
     37  CA       -30.5780  -21.7990   -2.2260 C.3    40  GLY40       0.1956
     38  C        -32.0620  -22.0060   -2.3850 C.2    40  GLY40       0.2612
     39  O        -32.7360  -21.2660   -3.1060 O.2    40  GLY40      -0.2717
     40  N        -32.5770  -23.0200   -1.7030 N.am   41  ALA41      -0.1965
     41  CA       -34.0070  -23.2340   -1.6720 C.3    41  ALA41       0.1728
     42  C        -34.3980  -23.8340   -0.3440 C.2    41  ALA41       0.2616
     43  O        -33.5470  -24.2960    0.4310 O.2    41  ALA41      -0.2715
     44  CB       -34.4530  -24.1260   -2.7990 C.3    41  ALA41       0.0334
     45  N        -35.7000  -23.8590   -0.0890 N.am   42  ARG42      -0.1963
     46  CA       -36.1930  -24.2850    1.2080 C.3    42  ARG42       0.1729
     47  C        -37.6160  -24.7810    1.0730 C.2    42  ARG42       0.2616
     48  O        -38.3480  -24.3520    0.1810 O.2    42  ARG42      -0.2715
     49  CB       -36.1030  -23.1320    2.2160 C.3    42  ARG42       0.0348
     50  CG       -36.9880  -21.9190    1.9010 C.3    42  ARG42       0.0492
     51  CD       -36.3050  -20.5830    2.2900 C.3    42  ARG42       0.2205
     52  NE       -35.2240  -20.2520    1.3600 N.pl3  42  ARG42      -0.0865
     53  CZ       -33.9310  -20.4130    1.6260 C.cat  42  ARG42       0.5346
     54  NH1      -33.5520  -20.8810    2.8080 N.pl3  42  ARG42       0.1354
     55  NH2      -33.0150  -20.1010    0.7150 N.pl3  42  ARG42       0.1354
     56  N        -37.9940  -25.7090    1.9450 N.am   43  TYR43      -0.1974
     57  CA       -39.3640  -26.1350    2.0290 C.3    43  TYR43       0.1639
     58  C        -39.7710  -25.8860    3.4640 C.2    43  TYR43       0.2290
     59  O        -39.3760  -26.6140    4.3750 O.2    43  TYR43      -0.2864
     60  CB       -39.5650  -27.6120    1.6420 C.3    43  TYR43       0.0560
     61  CG       -41.0390  -27.8950    1.5110 C.ar   43  TYR43      -0.0198
     62  CD1      -41.7730  -28.3750    2.5880 C.ar   43  TYR43      -0.0009
     63  CD2      -41.7180  -27.6020    0.3310 C.ar   43  TYR43      -0.0009
     64  CE1      -43.1400  -28.5980    2.4810 C.ar   43  TYR43       0.0417
     65  CE2      -43.0840  -27.8180    0.2110 C.ar   43  TYR43       0.0417
     66  CZ       -43.7900  -28.3110    1.2930 C.ar   43  TYR43       0.1957
     67  OH       -45.1460  -28.5180    1.1830 O.3    43  TYR43      -0.2866
     68  N        -42.5860  -24.2060   -1.1540 N.3    48  PHE48      -0.1241
     69  CA       -41.2640  -24.3170   -1.7540 C.3    48  PHE48       0.1605
     70  C        -40.8320  -22.9360   -2.2620 C.2    48  PHE48       0.2264
     71  O        -41.5130  -22.3490   -3.0960 O.2    48  PHE48      -0.2867
     72  CB       -41.3110  -25.3160   -2.9160 C.3    48  PHE48       0.0534
     73  CG       -40.0220  -25.4350   -3.6820 C.ar   48  PHE48      -0.0203
     74  CD1      -38.8420  -25.7670   -3.0370 C.ar   48  PHE48      -0.0042
     75  CD2      -40.0010  -25.2580   -5.0620 C.ar   48  PHE48      -0.0042
     76  CE1      -37.6630  -25.8950   -3.7390 C.ar   48  PHE48      -0.0003
     77  CE2      -38.8180  -25.3860   -5.7760 C.ar   48  PHE48      -0.0003
     78  CZ       -37.6500  -25.6960   -5.1140 C.ar   48  PHE48      -0.0000
     79  N        -26.0690  -27.2470    9.6450 N.3   200  PHE200     -0.1241
     80  CA       -24.8650  -27.9740    9.2830 C.3   200  PHE200      0.1605
     81  C        -24.1370  -27.1330    8.2510 C.2   200  PHE200      0.2264
     82  O        -24.6910  -26.8110    7.1990 O.2   200  PHE200     -0.2867
     83  CB       -25.2180  -29.3430    8.7200 C.3   200  PHE200      0.0534
     84  CG       -25.9730  -30.1990    9.6870 C.ar  200  PHE200     -0.0203
     85  CD1      -27.3570  -30.2570    9.6500 C.ar  200  PHE200     -0.0042
     86  CD2      -25.2990  -30.9280   10.6580 C.ar  200  PHE200     -0.0042
     87  CE1      -28.0590  -31.0490   10.5610 C.ar  200  PHE200     -0.0003
     88  CE2      -25.9910  -31.7150   11.5680 C.ar  200  PHE200     -0.0003
     89  CZ       -27.3700  -31.7720   11.5230 C.ar  200  PHE200     -0.0000
@<TRIPOS>BOND
     1    77    78   ar
     2    77    75   ar
     3    78    76   ar
     4    75    73   ar
     5    76    74   ar
     6    73    74   ar
     7    73    72    1
     8    39    38    2
     9    71    70    2
    10    36    37    1
    11    72    69    1
    12    44    41    1
    13    38    37    1
    14    38    40   am
    15    70    69    1
    16    69    68    1
    17    40    41    1
    18    41    42    1
    19    35    33    1
    20    42    45   am
    21    42    43    2
    22    45    46    1
    23    31    30    2
    24    33    32    1
    25    33    34    1
    26    48    47    2
    27    65    63   ar
    28    65    66   ar
    29    63    61   ar
    30    55    53    1
    31    32    29    1
    32    30    29    1
    33    47    46    1
    34    47    56   am
    35    67    66    1
    36    46    49    1
    37    66    64   ar
    38    52    53    2
    39    52    51    1
    40    61    60    1
    41    61    62   ar
    42    53    54    1
    43    60    57    1
    44    29    28    1
    45    50    49    1
    46    50    51    1
    47    56    57    1
    48    57    58    1
    49    28    24   am
    50    64    62   ar
    51    24    23    1
    52    24    25    2
    53    58    59    2
    54    23    26    1
    55    23    22    1
    56    19    18    2
    57    26    27    1
    58     7     5    1
    59    21    20    1
    60    22    18   am
    61    18    17    1
    62     1     2    1
    63    20    17    1
    64     2     5    1
    65     2     3    1
    66     5     6    1
    67    17    16    1
    68     3     4    2
    69    82    81    2
    70    15    13    1
    71    81    80    1
    72    83    80    1
    73    83    84    1
    74    80    79    1
    75    13    14    1
    76    13    12    1
    77     8     9    1
    78    85    84   ar
    79    85    87   ar
    80    84    86   ar
    81     9    12    1
    82     9    10    1
    83    87    89   ar
    84    86    88   ar
    85    10    11    2
    86    89    88   ar
