@<TRIPOS>MOLECULE
tmp/4e1sA06.pdb
 97 97 0 0 0
SMALL
GASTEIGER

@<TRIPOS>ATOM
      1  N        -17.6880   -7.1960   12.2510 N.3    90  ARG90      -0.1231
      2  CA       -16.3970   -7.0640   12.9120 C.3    90  ARG90       0.1694
      3  C        -16.0790   -8.4250   13.5030 C.2    90  ARG90       0.2592
      4  O        -16.8280   -9.3750   13.2910 O.2    90  ARG90      -0.2718
      5  CB       -16.4810   -6.0410   14.0580 C.3    90  ARG90       0.0321
      6  CG       -16.9820   -4.6630   13.6460 C.3    90  ARG90       0.0489
      7  CD       -17.0820   -3.7120   14.8350 C.3    90  ARG90       0.2205
      8  NE       -15.8390   -3.6410   15.6030 N.pl3  90  ARG90      -0.0865
      9  CZ       -14.8290   -2.8200   15.3330 C.cat  90  ARG90       0.5346
     10  NH1      -14.8970   -1.9700   14.3120 N.pl3  90  ARG90       0.1354
     11  NH2      -13.7460   -2.8500   16.0940 N.pl3  90  ARG90       0.1354
     12  N        -14.9770   -8.5260   14.2390 N.am   91  ASP91      -0.1960
     13  CA       -14.7220   -9.7310   15.0320 C.3    91  ASP91       0.1840
     14  C        -15.9020   -9.9810   15.9700 C.2    91  ASP91       0.2622
     15  O        -16.3300   -9.0690   16.6790 O.2    91  ASP91      -0.2715
     16  CB       -13.4440   -9.5940   15.8700 C.3    91  ASP91       0.1450
     17  CG       -12.1750   -9.7130   15.0480 C.2    91  ASP91       0.3671
     18  OD1      -11.1270   -9.2200   15.5150 O.co2  91  ASP91      -0.2456
     19  OD2      -12.2120  -10.2900   13.9440 O.co2  91  ASP91      -0.2456
     20  N        -16.4240  -11.2100   15.9540 N.am   92  TYR92      -0.1960
     21  CA       -17.4500  -11.6600   16.9020 C.3    92  TYR92       0.1771
     22  C        -18.7490  -10.8680   16.8310 C.2    92  TYR92       0.2619
     23  O        -19.5610  -10.9240   17.7420 O.2    92  TYR92      -0.2715
     24  CB       -16.9210  -11.6370   18.3470 C.3    92  TYR92       0.0574
     25  CG       -15.5580  -12.2620   18.4920 C.ar   92  TYR92      -0.0198
     26  CD1      -15.3770  -13.6330   18.3110 C.ar   92  TYR92      -0.0009
     27  CD2      -14.4500  -11.4890   18.7920 C.ar   92  TYR92      -0.0009
     28  CE1      -14.1230  -14.2100   18.4280 C.ar   92  TYR92       0.0417
     29  CE2      -13.1910  -12.0550   18.9110 C.ar   92  TYR92       0.0417
     30  CZ       -13.0320  -13.4140   18.7280 C.ar   92  TYR92       0.1957
     31  OH       -11.7810  -13.9770   18.8470 O.3    92  TYR92      -0.2866
     32  N        -18.9580  -10.1430   15.7450 N.am   93  PHE93      -0.1974
     33  CA       -20.1130   -9.2620   15.6720 C.3    93  PHE93       0.1639
     34  C        -20.5300   -9.0670   14.2210 C.2    93  PHE93       0.2290
     35  O        -19.7400   -8.6160   13.3990 O.2    93  PHE93      -0.2864
     36  CB       -19.7930   -7.9140   16.3330 C.3    93  PHE93       0.0560
     37  CG       -20.8940   -6.9050   16.2110 C.ar   93  PHE93      -0.0200
     38  CD1      -20.8790   -5.9660   15.1900 C.ar   93  PHE93      -0.0042
     39  CD2      -21.9510   -6.9080   17.1020 C.ar   93  PHE93      -0.0042
     40  CE1      -21.8920   -5.0380   15.0690 C.ar   93  PHE93      -0.0003
     41  CE2      -22.9680   -5.9830   16.9870 C.ar   93  PHE93      -0.0003
     42  CZ       -22.9400   -5.0460   15.9720 C.ar   93  PHE93      -0.0000
     43  N        -23.9000  -11.8500   17.8240 N.3   129  GLY129     -0.1210
     44  CA       -22.6490  -11.6240   18.5090 C.3   129  GLY129      0.1956
     45  C        -22.1800  -12.9070   19.1460 C.2   129  GLY129      0.2612
     46  O        -22.9960  -13.7630   19.4850 O.2   129  GLY129     -0.2717
     47  N        -20.8660  -13.0420   19.2800 N.am  130  TYR130     -0.1962
     48  CA       -20.2570  -14.2090   19.9030 C.3   130  TYR130      0.1771
     49  C        -19.3590  -13.7730   21.0530 C.2   130  TYR130      0.2619
     50  O        -18.6850  -12.7530   20.9640 O.2   130  TYR130     -0.2715
     51  CB       -19.5050  -15.0160   18.8420 C.3   130  TYR130      0.0574
     52  CG       -20.4530  -15.3480   17.7160 C.ar  130  TYR130     -0.0198
     53  CD1      -21.3080  -16.4390   17.8160 C.ar  130  TYR130     -0.0009
     54  CD2      -20.5650  -14.5190   16.6000 C.ar  130  TYR130     -0.0009
     55  CE1      -22.2100  -16.7260   16.8330 C.ar  130  TYR130      0.0417
     56  CE2      -21.4680  -14.8010   15.5970 C.ar  130  TYR130      0.0417
     57  CZ       -22.2840  -15.9070   15.7210 C.ar  130  TYR130      0.1957
     58  OH       -23.1960  -16.2090   14.7560 O.3   130  TYR130     -0.2866
     59  N        -19.3740  -14.5300   22.1480 N.am  131  LEU131     -0.1964
     60  CA       -18.5560  -14.1830   23.2960 C.3   131  LEU131      0.1713
     61  C        -17.0900  -14.3070   22.9170 C.2   131  LEU131      0.2458
     62  O        -16.6410  -15.3930   22.5730 O.2   131  LEU131     -0.2730
     63  CB       -18.8550  -15.1210   24.4790 C.3   131  LEU131      0.0310
     64  CG       -19.6620  -14.5870   25.6610 C.3   131  LEU131      0.0022
     65  CD1      -19.5820  -15.5770   26.8220 C.3   131  LEU131      0.0001
     66  CD2      -19.1650  -13.2280   26.0880 C.3   131  LEU131      0.0001
     67  N        -16.3270  -13.2010   22.9840 N.am  132  PRO132     -0.2727
     68  CA       -14.9450  -13.3190   22.5010 C.3   132  PRO132      0.1402
     69  C        -14.1040  -14.3220   23.2900 C.2   132  PRO132      0.2269
     70  O        -13.2480  -14.9930   22.7040 O.2   132  PRO132     -0.2865
     71  CB       -14.3980  -11.8870   22.6470 C.3   132  PRO132      0.0296
     72  CG       -15.6140  -11.0140   22.5000 C.3   132  PRO132      0.0237
     73  CD       -16.7150  -11.7960   23.2140 C.3   132  PRO132      0.0939
     74  N        -20.3610  -19.7000   22.0530 N.3   137  LEU137     -0.1231
     75  CA       -21.6140  -19.1410   22.5570 C.3   137  LEU137      0.1693
     76  C        -21.9900  -17.8740   21.8050 C.2   137  LEU137      0.2593
     77  O        -21.2270  -16.9030   21.7860 O.2   137  LEU137     -0.2718
     78  CB       -21.5140  -18.8490   24.0540 C.3   137  LEU137      0.0284
     79  CG       -21.5850  -20.1250   24.8920 C.3   137  LEU137      0.0019
     80  CD1      -21.2920  -19.8580   26.3780 C.3   137  LEU137      0.0001
     81  CD2      -22.9520  -20.7790   24.7030 C.3   137  LEU137      0.0001
     82  N        -23.1710  -17.8870   21.1970 N.am  138  GLY138     -0.1942
     83  CA       -23.6550  -16.7350   20.4650 C.3   138  GLY138      0.2014
     84  C        -25.0390  -16.2950   20.8850 C.2   138  GLY138      0.2638
     85  O        -25.8170  -17.0630   21.4430 O.2   138  GLY138     -0.2714
     86  N        -25.3420  -15.0370   20.5980 N.am  139  ALA139     -0.1977
     87  CA       -26.6480  -14.4530   20.8880 C.3   139  ALA139      0.1597
     88  C        -27.1690  -13.7790   19.6280 C.2   139  ALA139      0.2287
     89  O        -26.3820  -13.3430   18.7920 O.2   139  ALA139     -0.2864
     90  CB       -26.5360  -13.4410   22.0060 C.3   139  ALA139      0.0319
     91  N        -30.3220  -17.6030   21.5670 N.3   170  VAL170     -0.1245
     92  CA       -28.9940  -18.0540   21.9440 C.3   170  VAL170      0.1561
     93  C        -28.6900  -19.2940   21.1220 C.2   170  VAL170      0.2260
     94  O        -29.5950  -20.0460   20.7640 O.2   170  VAL170     -0.2867
     95  CB       -28.8930  -18.3670   23.4560 C.3   170  VAL170      0.0252
     96  CG1      -29.0580  -17.0870   24.2900 C.3   170  VAL170      0.0019
     97  CG2      -29.9240  -19.4010   23.8490 C.3   170  VAL170      0.0019
@<TRIPOS>BOND
     1     1     2    1
     2     2     3    1
     3     2     5    1
     4     4     3    2
     5    35    34    2
     6     3    12   am
     7     6     5    1
     8     6     7    1
     9    19    17   ar
    10    34    33    1
    11    12    13    1
    12    10     9    1
    13    58    57    1
    14     7     8    1
    15    13    16    1
    16    13    14    1
    17    17    18   ar
    18    17    16    1
    19    40    38   ar
    20    40    42   ar
    21    38    37   ar
    22     9     8    2
    23     9    11    1
    24    56    57   ar
    25    56    54   ar
    26    33    32    1
    27    33    36    1
    28    57    55   ar
    29    32    22   am
    30    20    14   am
    31    20    21    1
    32    14    15    2
    33    42    41   ar
    34    37    36    1
    35    37    39   ar
    36    54    52   ar
    37    22    21    1
    38    22    23    2
    39    55    53   ar
    40    21    24    1
    41    41    39   ar
    42    52    53   ar
    43    52    51    1
    44    43    44    1
    45    26    28   ar
    46    26    25   ar
    47    24    25    1
    48    28    30   ar
    49    25    27   ar
    50    44    45    1
    51    30    31    1
    52    30    29   ar
    53    89    88    2
    54    27    29   ar
    55    51    48    1
    56    45    47   am
    57    45    46    2
    58    47    48    1
    59    88    87    1
    60    48    49    1
    61    83    84    1
    62    83    82    1
    63    86    84   am
    64    86    87    1
    65    94    93    2
    66    84    85    2
    67    87    90    1
    68    50    49    2
    69    49    59   am
    70    93    92    1
    71    82    76   am
    72    91    92    1
    73    77    76    2
    74    76    75    1
    75    92    95    1
    76    74    75    1
    77    59    60    1
    78    72    71    1
    79    72    73    1
    80    68    71    1
    81    68    67    1
    82    68    69    1
    83    75    78    1
    84    62    61    2
    85    70    69    2
    86    61    67   am
    87    61    60    1
    88    67    73    1
    89    60    63    1
    90    95    97    1
    91    95    96    1
    92    78    79    1
    93    63    64    1
    94    81    79    1
    95    79    80    1
    96    64    66    1
    97    64    65    1
