@<TRIPOS>MOLECULE
tmp/4e1sA03.pdb
 117 114 0 0 0
SMALL
GASTEIGER

@<TRIPOS>ATOM
      1  N        -16.3880   -5.7280    1.5650 N.3    58  PHE58      -0.1241
      2  CA       -15.1340   -4.9790    1.5390 C.3    58  PHE58       0.1605
      3  C        -14.4840   -5.0120    2.9080 C.2    58  PHE58       0.2264
      4  O        -15.1100   -4.6610    3.9030 O.2    58  PHE58      -0.2867
      5  CB       -15.3740   -3.5260    1.0970 C.3    58  PHE58       0.0534
      6  CG       -16.0900   -3.4090   -0.2120 C.ar   58  PHE58      -0.0203
      7  CD1      -15.3830   -3.2600   -1.3970 C.ar   58  PHE58      -0.0042
      8  CD2      -17.4740   -3.4730   -0.2660 C.ar   58  PHE58      -0.0042
      9  CE1      -16.0450   -3.1710   -2.6130 C.ar   58  PHE58      -0.0003
     10  CE2      -18.1470   -3.3840   -1.4880 C.ar   58  PHE58      -0.0003
     11  CZ       -17.4270   -3.2320   -2.6560 C.ar   58  PHE58      -0.0000
     12  N        -17.6680   -3.8860    5.3260 N.3    65  LEU65      -0.1231
     13  CA       -18.9130   -3.3160    4.8310 C.3    65  LEU65       0.1693
     14  C        -19.3410   -4.1730    3.6520 C.2    65  LEU65       0.2593
     15  O        -18.4990   -4.6310    2.8870 O.2    65  LEU65      -0.2718
     16  CB       -18.7160   -1.8640    4.3580 C.3    65  LEU65       0.0284
     17  CG       -18.5030   -0.7390    5.3800 C.3    65  LEU65       0.0019
     18  CD1      -18.4590    0.6260    4.6620 C.3    65  LEU65       0.0001
     19  CD2      -19.5880   -0.7400    6.4380 C.3    65  LEU65       0.0001
     20  N        -20.6410   -4.3930    3.5020 N.am   66  GLY66      -0.1942
     21  CA       -21.1330   -5.1950    2.3980 C.3    66  GLY66       0.2014
     22  C        -22.5310   -4.8060    1.9650 C.2    66  GLY66       0.2638
     23  O        -23.2820   -4.1980    2.7270 O.2    66  GLY66      -0.2714
     24  N        -22.8650   -5.1350    0.7210 N.am   67  TYR67      -0.1973
     25  CA       -24.2130   -4.9550    0.2000 C.3    67  TYR67       0.1639
     26  C        -24.5450   -6.1850   -0.6440 C.2    67  TYR67       0.2290
     27  O        -23.6460   -6.8920   -1.1040 O.2    67  TYR67      -0.2864
     28  CB       -24.3280   -3.6630   -0.6330 C.3    67  TYR67       0.0560
     29  CG       -23.6990   -3.7880   -2.0020 C.ar   67  TYR67      -0.0198
     30  CD1      -24.4290   -4.2680   -3.0890 C.ar   67  TYR67      -0.0009
     31  CD2      -22.3670   -3.4670   -2.2040 C.ar   67  TYR67      -0.0009
     32  CE1      -23.8430   -4.4110   -4.3470 C.ar   67  TYR67       0.0417
     33  CE2      -21.7720   -3.5960   -3.4700 C.ar   67  TYR67       0.0417
     34  CZ       -22.5160   -4.0690   -4.5260 C.ar   67  TYR67       0.1957
     35  OH       -21.9240   -4.1910   -5.7610 O.3    67  TYR67      -0.2866
     36  N        -32.8600   -6.2420   -0.8460 N.3    84  ILE84      -0.1231
     37  CA       -31.6010   -5.5150   -0.8300 C.3    84  ILE84       0.1692
     38  C        -31.0600   -5.5400    0.5950 C.2    84  ILE84       0.2593
     39  O        -31.8210   -5.4060    1.5440 O.2    84  ILE84      -0.2718
     40  CB       -31.7630   -4.0730   -1.3140 C.3    84  ILE84       0.0266
     41  CG1      -32.3130   -4.0470   -2.7520 C.3    84  ILE84       0.0019
     42  CG2      -30.4230   -3.3510   -1.2600 C.3    84  ILE84       0.0020
     43  CD1      -32.6610   -2.6700   -3.2560 C.3    84  ILE84       0.0001
     44  N        -29.7520   -5.7150    0.7430 N.am   85  GLY85      -0.1942
     45  CA       -29.1700   -5.8720    2.0650 C.3    85  GLY85       0.2014
     46  C        -27.8750   -5.1070    2.2470 C.2    85  GLY85       0.2639
     47  O        -27.1150   -4.9060    1.2960 O.2    85  GLY85      -0.2714
     48  N        -27.6430   -4.6580    3.4790 N.am   86  GLY86      -0.1939
     49  CA       -26.3800   -4.0670    3.8630 C.3    86  GLY86       0.2014
     50  C        -25.7590   -4.8060    5.0360 C.2    86  GLY86       0.2638
     51  O        -26.4600   -5.4870    5.7970 O.2    86  GLY86      -0.2714
     52  N        -24.4430   -4.6840    5.1820 N.am   87  GLU87      -0.1977
     53  CA       -23.7150   -5.4410    6.1960 C.3    87  GLU87       0.1602
     54  C        -22.6440   -4.5820    6.8490 C.2    87  GLU87       0.2287
     55  O        -21.9260   -3.8300    6.1730 O.2    87  GLU87      -0.2864
     56  CB       -23.0450   -6.6830    5.5870 C.3    87  GLU87       0.0415
     57  CG       -24.0170   -7.7600    5.0780 C.3    87  GLU87       0.1163
     58  CD       -23.3210   -8.9010    4.3320 C.2    87  GLU87       0.3649
     59  OE1      -22.2490   -8.6780    3.7220 O.co2  87  GLU87      -0.2457
     60  OE2      -23.8540  -10.0300    4.3630 O.co2  87  GLU87      -0.2457
     61  N        -28.7620   -5.1470    7.7110 N.3    97  VAL97      -0.1245
     62  CA       -30.0850   -4.5840    7.4970 C.3    97  VAL97       0.1561
     63  C        -30.5730   -5.0790    6.1490 C.2    97  VAL97       0.2260
     64  O        -29.7950   -5.1740    5.2050 O.2    97  VAL97      -0.2867
     65  CB       -30.0760   -3.0450    7.5230 C.3    97  VAL97       0.0252
     66  CG1      -31.4160   -2.5000    7.0570 C.3    97  VAL97       0.0019
     67  CG2      -29.7560   -2.5450    8.9150 C.3    97  VAL97       0.0019
     68  N        -33.9750   -4.9990    3.2470 N.3    99  GLY99      -0.1225
     69  CA       -35.2370   -4.4630    2.7690 C.3    99  GLY99       0.1811
     70  C        -35.9200   -5.5130    1.9100 C.2    99  GLY99       0.2280
     71  O        -35.2520   -6.2680    1.2030 O.2    99  GLY99      -0.2866
     72  N        -38.9680   -6.0200   -0.8380 N.3   101  PHE101     -0.1241
     73  CA       -39.8040   -5.3010   -1.7880 C.3   101  PHE101      0.1605
     74  C        -40.5800   -6.2020   -2.7480 C.2   101  PHE101      0.2264
     75  O        -40.0020   -6.9050   -3.5890 O.2   101  PHE101     -0.2867
     76  CB       -38.9440   -4.2940   -2.5520 C.3   101  PHE101      0.0534
     77  CG       -38.0590   -3.4660   -1.6520 C.ar  101  PHE101     -0.0203
     78  CD1      -38.6050   -2.4900   -0.8350 C.ar  101  PHE101     -0.0042
     79  CD2      -36.6870   -3.6740   -1.6150 C.ar  101  PHE101     -0.0042
     80  CE1      -37.7920   -1.7290   -0.0050 C.ar  101  PHE101     -0.0003
     81  CE2      -35.8700   -2.9190   -0.7860 C.ar  101  PHE101     -0.0003
     82  CZ       -36.4250   -1.9530    0.0240 C.ar  101  PHE101     -0.0000
     83  N        -44.3410   -5.8540    1.9560 N.3   121  ASN121     -0.1225
     84  CA       -43.1220   -5.0580    2.0470 C.3   121  ASN121      0.1785
     85  C        -42.6850   -4.9010    3.5160 C.2   121  ASN121      0.2598
     86  O        -43.5220   -4.8020    4.4180 O.2   121  ASN121     -0.2718
     87  CB       -43.3130   -3.6810    1.3940 C.3   121  ASN121      0.1169
     88  CG       -43.3270   -3.7570   -0.1320 C.2   121  ASN121      0.2627
     89  OD1      -43.2870   -4.8380   -0.7110 O.2   121  ASN121     -0.2716
     90  ND2      -43.4060   -2.6210   -0.7700 N.am  121  ASN121     -0.0877
     91  N        -41.3770   -4.8740    3.7540 N.am  122  GLY122     -0.1942
     92  CA       -40.8800   -4.5960    5.0890 C.3   122  GLY122      0.2014
     93  C        -39.3730   -4.5170    5.1510 C.2   122  GLY122      0.2638
     94  O        -38.7120   -4.3960    4.1200 O.2   122  GLY122     -0.2714
     95  N        -38.8320   -4.5720    6.3660 N.am  123  PHE123     -0.1973
     96  CA       -37.3900   -4.5810    6.5690 C.3   123  PHE123      0.1639
     97  C        -37.0590   -5.3380    7.8430 C.2   123  PHE123      0.2290
     98  O        -37.9430   -5.6400    8.6410 O.2   123  PHE123     -0.2864
     99  CB       -36.8280   -3.1550    6.6630 C.3   123  PHE123      0.0560
    100  CG       -37.2730   -2.3960    7.8910 C.ar  123  PHE123     -0.0200
    101  CD1      -38.4420   -1.6500    7.8800 C.ar  123  PHE123     -0.0042
    102  CD2      -36.5070   -2.4100    9.0500 C.ar  123  PHE123     -0.0042
    103  CE1      -38.8510   -0.9500    9.0160 C.ar  123  PHE123     -0.0003
    104  CE2      -36.9140   -1.7170   10.1860 C.ar  123  PHE123     -0.0003
    105  CZ       -38.0840   -0.9870   10.1620 C.ar  123  PHE123     -0.0000
    106  N        -45.5620   -4.4380    6.4740 N.3   147  TYR147     -0.1241
    107  CA       -46.6620   -3.4990    6.2780 C.3   147  TYR147      0.1605
    108  C        -47.8180   -4.0810    5.4590 C.2   147  TYR147      0.2264
    109  O        -47.6080   -4.7800    4.4650 O.2   147  TYR147     -0.2867
    110  CB       -46.1530   -2.2000    5.6270 C.3   147  TYR147      0.0534
    111  CG       -45.0700   -1.5010    6.4230 C.ar  147  TYR147     -0.0201
    112  CD1      -45.3890   -0.5810    7.4160 C.ar  147  TYR147     -0.0009
    113  CD2      -43.7240   -1.7640    6.1820 C.ar  147  TYR147     -0.0009
    114  CE1      -44.4000    0.0530    8.1440 C.ar  147  TYR147      0.0417
    115  CE2      -42.7300   -1.1320    6.9080 C.ar  147  TYR147      0.0417
    116  CZ       -43.0710   -0.2250    7.8820 C.ar  147  TYR147      0.1957
    117  OH       -42.0780    0.4040    8.6060 O.3   147  TYR147     -0.2866
@<TRIPOS>BOND
     1    35    34    1
     2    34    32   ar
     3    34    33   ar
     4    32    30   ar
     5    75    74    2
     6    33    31   ar
     7    43    41    1
     8    30    29   ar
     9    41    40    1
    10    74    73    1
    11    11     9   ar
    12    11    10   ar
    13     9     7   ar
    14    76    73    1
    15    76    77    1
    16    31    29   ar
    17    29    28    1
    18    73    72    1
    19    77    79   ar
    20    77    78   ar
    21    79    81   ar
    22    10     8   ar
    23     7     6   ar
    24    40    42    1
    25    40    37    1
    26    27    26    2
    27    36    37    1
    28    78    80   ar
    29    37    38    1
    30    81    82   ar
    31    90    88   am
    32    89    88    2
    33    26    25    1
    34    28    25    1
    35     8     6   ar
    36     6     5    1
    37    88    87    1
    38    80    82   ar
    39    25    24    1
    40    38    44   am
    41    38    39    2
    42    24    22   am
    43    44    45    1
    44     5     2    1
    45    71    70    2
    46    47    46    2
    47    87    84    1
    48     2     1    1
    49     2     3    1
    50    70    69    1
    51    83    84    1
    52    22    21    1
    53    22    23    2
    54    84    85    1
    55    45    46    1
    56    46    48   am
    57    21    20    1
    58    69    68    1
    59    15    14    2
    60     3     4    2
    61    48    49    1
    62    20    14   am
    63    85    91   am
    64    85    86    2
    65    14    13    1
    66    59    58   ar
    67    91    92    1
    68    49    50    1
    69    94    93    2
    70    58    60   ar
    71    58    57    1
    72    16    13    1
    73    16    17    1
    74   109   108    2
    75    18    17    1
    76    13    12    1
    77    50    52   am
    78    50    51    2
    79    57    56    1
    80    92    93    1
    81    93    95   am
    82    52    53    1
    83    64    63    2
    84    17    19    1
    85   108   107    1
    86    56    53    1
    87   110   107    1
    88   110   111    1
    89    63    62    1
    90    55    54    2
    91   113   111   ar
    92   113   115   ar
    93    53    54    1
    94   107   106    1
    95    95    96    1
    96   111   112   ar
    97    96    99    1
    98    96    97    1
    99    99   100    1
   100   115   116   ar
   101    66    65    1
   102   112   114   ar
   103    62    65    1
   104    62    61    1
   105    65    67    1
   106    97    98    2
   107   101   100   ar
   108   101   103   ar
   109   116   114   ar
   110   116   117    1
   111   100   102   ar
   112   103   105   ar
   113   102   104   ar
   114   105   104   ar
