@<TRIPOS>MOLECULE
tmp/4e1sA01.pdb
 136 130 0 0 0
SMALL
GASTEIGER

@<TRIPOS>ATOM
      1  N        -10.8980  -24.4680   -3.3860 N.3     2  HIS2       -0.1241
      2  CA       -12.2570  -23.9330   -3.4450 C.3     2  HIS2        0.1621
      3  C        -12.6080  -23.1130   -2.2060 C.2     2  HIS2        0.2264
      4  O        -12.1760  -23.4250   -1.0940 O.2     2  HIS2       -0.2867
      5  CB       -13.2720  -25.0660   -3.6180 C.3     2  HIS2        0.0745
      6  CG       -13.0680  -25.8790   -4.8600 C.ar    2  HIS2        0.0817
      7  ND1      -12.2620  -25.4640   -5.8980 N.ar    2  HIS2       -0.2268
      8  CD2      -13.5660  -27.0840   -5.2280 C.ar    2  HIS2        0.1154
      9  CE1      -12.2740  -26.3770   -6.8550 C.ar    2  HIS2        0.1986
     10  NE2      -13.0560  -27.3700   -6.4720 N.ar    2  HIS2       -0.2212
     11  N        -31.3270  -25.4620    2.1200 N.3    21  LEU21      -0.1245
     12  CA       -29.9460  -25.6460    1.7120 C.3    21  LEU21       0.1561
     13  C        -29.5490  -24.3830    0.9630 C.2    21  LEU21       0.2260
     14  O        -30.2500  -23.9590    0.0460 O.2    21  LEU21      -0.2867
     15  CB       -29.8230  -26.8650    0.7820 C.3    21  LEU21       0.0270
     16  CG       -28.4760  -27.1220    0.0840 C.3    21  LEU21       0.0019
     17  CD1      -27.3500  -27.3620    1.1040 C.3    21  LEU21       0.0001
     18  CD2      -28.5860  -28.3310   -0.8770 C.3    21  LEU21       0.0001
     19  N        -26.0070  -21.9910   -0.6170 N.3    23  PHE23      -0.1241
     20  CA       -24.5950  -21.9450   -0.9480 C.3    23  PHE23       0.1605
     21  C        -24.1620  -20.4850   -1.0870 C.2    23  PHE23       0.2264
     22  O        -24.8930  -19.6810   -1.6710 O.2    23  PHE23      -0.2867
     23  CB       -24.3540  -22.6190   -2.3100 C.3    23  PHE23       0.0534
     24  CG       -24.6620  -24.0960   -2.3440 C.ar   23  PHE23      -0.0203
     25  CD1      -23.6700  -25.0270   -2.0880 C.ar   23  PHE23      -0.0042
     26  CD2      -25.9280  -24.5490   -2.6900 C.ar   23  PHE23      -0.0042
     27  CE1      -23.9410  -26.4050   -2.1510 C.ar   23  PHE23      -0.0003
     28  CE2      -26.2110  -25.9160   -2.7640 C.ar   23  PHE23      -0.0003
     29  CZ       -25.2160  -26.8430   -2.4840 C.ar   23  PHE23      -0.0000
     30  N        -21.0570  -18.6290   -2.9200 N.3    25  LEU25      -0.1245
     31  CA       -20.0670  -19.0010   -3.9260 C.3    25  LEU25       0.1561
     32  C        -19.3120  -17.7810   -4.4720 C.2    25  LEU25       0.2260
     33  O        -19.8580  -17.0200   -5.2680 O.2    25  LEU25      -0.2867
     34  CB       -20.7730  -19.6890   -5.0980 C.3    25  LEU25       0.0270
     35  CG       -21.6390  -20.9080   -4.7890 C.3    25  LEU25       0.0019
     36  CD1      -22.4500  -21.2980   -6.0290 C.3    25  LEU25       0.0001
     37  CD2      -20.7530  -22.0490   -4.3390 C.3    25  LEU25       0.0001
     38  N        -27.1410  -18.8510   -3.5560 N.3    39  VAL39      -0.1231
     39  CA       -28.2730  -19.5230   -4.1540 C.3    39  VAL39       0.1692
     40  C        -28.7570  -20.6100   -3.2050 C.2    39  VAL39       0.2593
     41  O        -27.9670  -21.2920   -2.5680 O.2    39  VAL39      -0.2718
     42  CB       -27.9220  -20.0960   -5.5850 C.3    39  VAL39       0.0266
     43  CG1      -26.7650  -21.1090   -5.5150 C.3    39  VAL39       0.0020
     44  CG2      -29.1380  -20.7310   -6.2400 C.3    39  VAL39       0.0020
     45  N        -30.0610  -20.7610   -3.0890 N.am   40  GLY40      -0.1942
     46  CA       -30.5780  -21.7990   -2.2260 C.3    40  GLY40       0.2014
     47  C        -32.0620  -22.0060   -2.3850 C.2    40  GLY40       0.2638
     48  O        -32.7360  -21.2660   -3.1060 O.2    40  GLY40      -0.2714
     49  N        -32.5770  -23.0200   -1.7030 N.am   41  ALA41      -0.1977
     50  CA       -34.0070  -23.2340   -1.6720 C.3    41  ALA41       0.1597
     51  C        -34.3980  -23.8340   -0.3440 C.2    41  ALA41       0.2287
     52  O        -33.5470  -24.2960    0.4310 O.2    41  ALA41      -0.2864
     53  CB       -34.4530  -24.1260   -2.7990 C.3    41  ALA41       0.0319
     54  N        -42.5860  -24.2060   -1.1540 N.3    48  PHE48      -0.1241
     55  CA       -41.2640  -24.3170   -1.7540 C.3    48  PHE48       0.1605
     56  C        -40.8320  -22.9360   -2.2620 C.2    48  PHE48       0.2264
     57  O        -41.5130  -22.3490   -3.0960 O.2    48  PHE48      -0.2867
     58  CB       -41.3110  -25.3160   -2.9160 C.3    48  PHE48       0.0534
     59  CG       -40.0220  -25.4350   -3.6820 C.ar   48  PHE48      -0.0203
     60  CD1      -38.8420  -25.7670   -3.0370 C.ar   48  PHE48      -0.0042
     61  CD2      -40.0010  -25.2580   -5.0620 C.ar   48  PHE48      -0.0042
     62  CE1      -37.6630  -25.8950   -3.7390 C.ar   48  PHE48      -0.0003
     63  CE2      -38.8180  -25.3860   -5.7760 C.ar   48  PHE48      -0.0003
     64  CZ       -37.6500  -25.6960   -5.1140 C.ar   48  PHE48      -0.0000
     65  N        -37.3290  -20.5750   -3.6080 N.3    50  ALA50      -0.1231
     66  CA       -35.9180  -20.5100   -3.9800 C.3    50  ALA50       0.1694
     67  C        -35.4190  -19.0620   -4.0130 C.2    50  ALA50       0.2592
     68  O        -36.2110  -18.1230   -4.1500 O.2    50  ALA50      -0.2718
     69  CB       -35.6730  -21.2110   -5.3250 C.3    50  ALA50       0.0304
     70  N        -34.1100  -18.8850   -3.8700 N.am   51  ASN51      -0.1960
     71  CA       -33.5320  -17.5510   -3.7030 C.3    51  ASN51       0.1819
     72  C        -32.1930  -17.4720   -4.4180 C.2    51  ASN51       0.2621
     73  O        -31.4020  -18.4130   -4.3730 O.2    51  ASN51      -0.2715
     74  CB       -33.3300  -17.2070   -2.2100 C.3    51  ASN51       0.1195
     75  CG       -34.5140  -17.6110   -1.3340 C.2    51  ASN51       0.2630
     76  OD1      -34.6900  -18.7880   -1.0120 O.2    51  ASN51      -0.2716
     77  ND2      -35.3190  -16.6330   -0.9310 N.am   51  ASN51      -0.0877
     78  N        -31.9560  -16.3500   -5.0880 N.am   52  LEU52      -0.1977
     79  CA       -30.7200  -16.1170   -5.8290 C.3    52  LEU52       0.1596
     80  C        -30.2470  -14.6790   -5.5620 C.2    52  LEU52       0.2287
     81  O        -31.0200  -13.7340   -5.6950 O.2    52  LEU52      -0.2864
     82  CB       -30.9530  -16.3260   -7.3340 C.3    52  LEU52       0.0297
     83  CG       -29.7810  -15.9870   -8.2660 C.3    52  LEU52       0.0022
     84  CD1      -28.5130  -16.7400   -7.8740 C.3    52  LEU52       0.0001
     85  CD2      -30.1390  -16.2460   -9.7420 C.3    52  LEU52       0.0001
     86  N        -33.2510  -11.9770   -5.5120 N.3    71  ILE71      -0.1245
     87  CA       -34.6150  -12.2540   -5.9540 C.3    71  ILE71       0.1561
     88  C        -35.1300  -13.4720   -5.1810 C.2    71  ILE71       0.2260
     89  O        -34.4720  -14.5050   -5.1390 O.2    71  ILE71      -0.2867
     90  CB       -34.7230  -12.5340   -7.4720 C.3    71  ILE71       0.0252
     91  CG1      -34.6190  -11.2380   -8.2760 C.3    71  ILE71       0.0019
     92  CG2      -36.0790  -13.1390   -7.7850 C.3    71  ILE71       0.0019
     93  CD1      -33.2920  -10.5390   -8.1830 C.3    71  ILE71       0.0001
     94  N        -38.2610  -16.2210   -4.7460 N.3    73  GLN73      -0.1245
     95  CA       -39.3930  -16.7680   -5.4730 C.3    73  GLN73       0.1566
     96  C        -40.0590  -17.9130   -4.7210 C.2    73  GLN73       0.2260
     97  O        -39.4880  -18.9870   -4.5720 O.2    73  GLN73      -0.2867
     98  CB       -38.9750  -17.2400   -6.8620 C.3    73  GLN73       0.0367
     99  CG       -40.1020  -17.8830   -7.6730 C.3    73  GLN73       0.0905
    100  CD       -41.1350  -16.8760   -8.1530 C.2    73  GLN73       0.2608
    101  OE1      -40.8400  -15.6870   -8.3040 O.2    73  GLN73      -0.2717
    102  NE2      -42.3530  -17.3480   -8.3940 N.am   73  GLN73      -0.0878
    103  N        -42.3760  -20.5540   -5.1980 N.3    75  PHE75      -0.1241
    104  CA       -42.9460  -21.2870   -6.3300 C.3    75  PHE75       0.1605
    105  C        -44.3290  -21.8470   -6.0350 C.2    75  PHE75       0.2264
    106  O        -45.1310  -22.0220   -6.9500 O.2    75  PHE75      -0.2867
    107  CB       -42.0310  -22.4320   -6.7560 C.3    75  PHE75       0.0534
    108  CG       -40.8100  -21.9860   -7.4750 C.ar   75  PHE75      -0.0203
    109  CD1      -40.8710  -21.6330   -8.8200 C.ar   75  PHE75      -0.0042
    110  CD2      -39.5960  -21.9190   -6.8190 C.ar   75  PHE75      -0.0042
    111  CE1      -39.7380  -21.2190   -9.4980 C.ar   75  PHE75      -0.0003
    112  CE2      -38.4570  -21.5090   -7.4920 C.ar   75  PHE75      -0.0003
    113  CZ       -38.5310  -21.1580   -8.8350 C.ar   75  PHE75      -0.0000
    114  N        -20.7760  -26.4260    5.9600 N.3   202  TYR202     -0.1241
    115  CA       -19.5790  -26.9480    5.3270 C.3   202  TYR202      0.1605
    116  C        -18.7730  -25.8090    4.7000 C.2   202  TYR202      0.2264
    117  O        -19.2720  -25.1020    3.8410 O.2   202  TYR202     -0.2867
    118  CB       -19.9350  -28.0010    4.2690 C.3   202  TYR202      0.0534
    119  CG       -18.7150  -28.5560    3.5790 C.ar  202  TYR202     -0.0201
    120  CD1      -18.4420  -28.2470    2.2580 C.ar  202  TYR202     -0.0009
    121  CD2      -17.8130  -29.3560    4.2660 C.ar  202  TYR202     -0.0009
    122  CE1      -17.3160  -28.7380    1.6300 C.ar  202  TYR202      0.0417
    123  CE2      -16.6820  -29.8480    3.6480 C.ar  202  TYR202      0.0417
    124  CZ       -16.4370  -29.5350    2.3280 C.ar  202  TYR202      0.1957
    125  OH       -15.3140  -30.0230    1.6950 O.3   202  TYR202     -0.2866
    126  N        -15.8550  -24.7600    2.2750 N.3   204  PHE204     -0.1241
    127  CA       -15.0980  -25.3300    1.1540 C.3   204  PHE204      0.1605
    128  C        -13.5770  -25.2750    1.3540 C.2   204  PHE204      0.2264
    129  O        -12.8600  -26.1760    0.9190 O.2   204  PHE204     -0.2867
    130  CB       -15.4870  -24.6540   -0.1740 C.3   204  PHE204      0.0534
    131  CG       -16.9320  -24.8500   -0.5610 C.ar  204  PHE204     -0.0203
    132  CD1      -17.6430  -25.9380   -0.1000 C.ar  204  PHE204     -0.0042
    133  CD2      -17.5660  -23.9620   -1.4130 C.ar  204  PHE204     -0.0042
    134  CE1      -18.9710  -26.1260   -0.4620 C.ar  204  PHE204     -0.0003
    135  CE2      -18.8910  -24.1410   -1.7730 C.ar  204  PHE204     -0.0003
    136  CZ       -19.5930  -25.2230   -1.2920 C.ar  204  PHE204     -0.0000
@<TRIPOS>BOND
     1    85    83    1
     2   111   113   ar
     3   111   109   ar
     4   113   112   ar
     5   109   108   ar
     6   102   100   am
     7   101   100    2
     8    91    93    1
     9    91    90    1
    10    83    84    1
    11    83    82    1
    12   100    99    1
    13    92    90    1
    14    99    98    1
    15   112   110   ar
    16   108   110   ar
    17   108   107    1
    18    90    87    1
    19    82    79    1
    20   106   105    2
    21    98    95    1
    22     9    10   ar
    23     9     7   ar
    24   107   104    1
    25    10     8   ar
    26   104   105    1
    27   104   103    1
    28    44    42    1
    29    36    35    1
    30    87    86    1
    31    87    88    1
    32     7     6   ar
    33    79    80    1
    34    79    78    1
    35    63    64   ar
    36    63    61   ar
    37    81    80    2
    38    42    43    1
    39    42    39    1
    40    95    94    1
    41    95    96    1
    42    69    66    1
    43    33    32    2
    44     8     6   ar
    45    88    89    2
    46    64    62   ar
    47    34    35    1
    48    34    31    1
    49    78    72   am
    50    61    59   ar
    51     6     5    1
    52    35    37    1
    53    96    97    2
    54    32    31    1
    55    72    73    2
    56    72    71    1
    57    39    38    1
    58    39    40    1
    59    68    67    2
    60    67    66    1
    61    67    70   am
    62    66    65    1
    63    31    30    1
    64    70    71    1
    65    62    60   ar
    66    71    74    1
    67    59    60   ar
    68    59    58    1
    69     5     2    1
    70     2     1    1
    71     2     3    1
    72    40    45   am
    73    40    41    2
    74    48    47    2
    75    57    56    2
    76    45    46    1
    77    58    55    1
    78    53    50    1
    79    28    26   ar
    80    28    29   ar
    81    26    24   ar
    82    29    27   ar
    83    47    46    1
    84    47    49   am
    85    24    23    1
    86    24    25   ar
    87    23    20    1
    88    56    55    1
    89    74    75    1
    90     3     4    2
    91    27    25   ar
    92   135   133   ar
    93   135   136   ar
    94    55    54    1
    95    49    50    1
    96    50    51    1
    97    22    21    2
    98   133   131   ar
    99    75    76    2
   100    75    77   am
   101   136   134   ar
   102    21    20    1
   103    20    19    1
   104    18    16    1
   105   131   130    1
   106   131   132   ar
   107   134   132   ar
   108    51    52    2
   109   130   127    1
   110    14    13    2
   111    16    15    1
   112    16    17    1
   113    15    12    1
   114   129   128    2
   115    13    12    1
   116   127   128    1
   117   127   126    1
   118   122   120   ar
   119   122   124   ar
   120   125   124    1
   121    12    11    1
   122   120   119   ar
   123   124   123   ar
   124   119   121   ar
   125   119   118    1
   126   123   121   ar
   127   117   116    2
   128   118   115    1
   129   116   115    1
   130   115   114    1
