@<TRIPOS>MOLECULE
tmp/4e1sA04.pdb
 97 91 0 0 0
SMALL
GASTEIGER

@<TRIPOS>ATOM
      1  N        -16.9580  -15.3480   -6.6420 N.3    27  PHE27      -0.1227
      2  CA       -16.4790  -15.3150   -8.0180 C.3    27  PHE27       0.1736
      3  C        -15.2750  -14.3960   -8.1830 C.2    27  PHE27       0.2595
      4  O        -14.5570  -14.4610   -9.1820 O.2    27  PHE27      -0.2718
      5  CB       -17.5960  -15.0550   -9.0390 C.3    27  PHE27       0.0547
      6  CG       -18.3450  -13.7420   -8.8700 C.ar   27  PHE27      -0.0202
      7  CD1      -19.5540  -13.7030   -8.1890 C.ar   27  PHE27      -0.0042
      8  CD2      -17.8900  -12.5790   -9.4760 C.ar   27  PHE27      -0.0042
      9  CE1      -20.2680  -12.5380   -8.0730 C.ar   27  PHE27      -0.0003
     10  CE2      -18.6050  -11.3960   -9.3690 C.ar   27  PHE27      -0.0003
     11  CZ       -19.7940  -11.3750   -8.6600 C.ar   27  PHE27      -0.0000
     12  N        -15.0530  -13.5540   -7.1780 N.am   28  TYR28      -0.1976
     13  CA       -13.8130  -12.8100   -7.0700 C.3    28  TYR28       0.1639
     14  C        -13.4430  -12.7510   -5.6030 C.2    28  TYR28       0.2290
     15  O        -14.2660  -12.3780   -4.7750 O.2    28  TYR28      -0.2864
     16  CB       -13.9660  -11.3940   -7.6150 C.3    28  TYR28       0.0560
     17  CG       -12.6880  -10.5940   -7.5250 C.ar   28  TYR28      -0.0198
     18  CD1      -11.7240  -10.6770   -8.5230 C.ar   28  TYR28      -0.0009
     19  CD2      -12.4360   -9.7640   -6.4380 C.ar   28  TYR28      -0.0009
     20  CE1      -10.5500   -9.9440   -8.4470 C.ar   28  TYR28       0.0417
     21  CE2      -11.2620   -9.0270   -6.3540 C.ar   28  TYR28       0.0417
     22  CZ       -10.3250   -9.1240   -7.3620 C.ar   28  TYR28       0.1957
     23  OH        -9.1570   -8.4000   -7.2800 O.3    28  TYR28      -0.2866
     24  N        -11.4310   -7.4400   -1.0140 N.3    33  MET33      -0.1245
     25  CA       -12.7820   -7.5020   -1.5630 C.3    33  MET33       0.1570
     26  C        -13.1820   -8.9110   -2.0010 C.2    33  MET33       0.2261
     27  O        -12.3950   -9.6380   -2.5990 O.2    33  MET33      -0.2867
     28  CB       -12.9390   -6.5220   -2.7440 C.3    33  MET33       0.0387
     29  CG       -14.3770   -6.3750   -3.2500 C.3    33  MET33       0.0595
     30  SD       -14.8560   -7.5350   -4.5680 S.3    33  MET33      -0.1393
     31  CE       -13.9260   -6.8820   -5.9520 C.3    33  MET33       0.0692
     32  N        -16.4890  -10.7700   -4.0570 N.3    35  ALA35      -0.1245
     33  CA       -17.7680  -10.6940   -4.7580 C.3    35  ALA35       0.1562
     34  C        -18.3020  -12.1200   -4.8400 C.2    35  ALA35       0.2260
     35  O        -17.5500  -13.0490   -5.1150 O.2    35  ALA35      -0.2867
     36  CB       -17.5970  -10.0940   -6.1540 C.3    35  ALA35       0.0290
     37  N        -26.5270  -11.8040   -5.1250 N.3    54  ALA54      -0.1231
     38  CA       -25.1200  -11.5070   -5.2950 C.3    54  ALA54       0.1694
     39  C        -24.7820  -10.2810   -4.4500 C.2    54  ALA54       0.2593
     40  O        -25.6610   -9.4980   -4.0790 O.2    54  ALA54      -0.2718
     41  CB       -24.8060  -11.2360   -6.7630 C.3    54  ALA54       0.0304
     42  N        -23.5060  -10.0980   -4.1490 N.am   55  GLY55      -0.1942
     43  CA       -23.1130   -8.8940   -3.4540 C.3    55  GLY55       0.2014
     44  C        -21.6120   -8.7670   -3.3920 C.2    55  GLY55       0.2638
     45  O        -20.8840   -9.5760   -3.9770 O.2    55  GLY55      -0.2714
     46  N        -21.1540   -7.7460   -2.6820 N.am   56  GLN56      -0.1977
     47  CA       -19.7390   -7.5780   -2.4240 C.3    56  GLN56       0.1601
     48  C        -19.5410   -7.3190   -0.9480 C.2    56  GLN56       0.2287
     49  O        -20.4160   -6.7540   -0.2840 O.2    56  GLN56      -0.2864
     50  CB       -19.1710   -6.3980   -3.2130 C.3    56  GLN56       0.0394
     51  CG       -19.1640   -6.5900   -4.7190 C.3    56  GLN56       0.0908
     52  CD       -18.4970   -5.4230   -5.3990 C.2    56  GLN56       0.2608
     53  OE1      -17.2960   -5.4470   -5.6720 O.2    56  GLN56      -0.2717
     54  NE2      -19.2640   -4.3650   -5.6280 N.am   56  GLN56      -0.0878
     55  N        -22.8650   -5.1350    0.7210 N.3    67  TYR67      -0.1241
     56  CA       -24.2130   -4.9550    0.2000 C.3    67  TYR67       0.1605
     57  C        -24.5450   -6.1850   -0.6440 C.2    67  TYR67       0.2264
     58  O        -23.6460   -6.8920   -1.1040 O.2    67  TYR67      -0.2867
     59  CB       -24.3280   -3.6630   -0.6330 C.3    67  TYR67       0.0534
     60  CG       -23.6990   -3.7880   -2.0020 C.ar   67  TYR67      -0.0201
     61  CD1      -24.4290   -4.2680   -3.0890 C.ar   67  TYR67      -0.0009
     62  CD2      -22.3670   -3.4670   -2.2040 C.ar   67  TYR67      -0.0009
     63  CE1      -23.8430   -4.4110   -4.3470 C.ar   67  TYR67       0.0417
     64  CE2      -21.7720   -3.5960   -3.4700 C.ar   67  TYR67       0.0417
     65  CZ       -22.5160   -4.0690   -4.5260 C.ar   67  TYR67       0.1957
     66  OH       -21.9240   -4.1910   -5.7610 O.3    67  TYR67      -0.2866
     67  N        -27.9890   -8.0220   -3.2900 N.3    69  VAL69      -0.1245
     68  CA       -29.3060   -7.9200   -3.9010 C.3    69  VAL69       0.1561
     69  C        -29.8200   -9.3150   -4.1640 C.2    69  VAL69       0.2260
     70  O        -29.0620  -10.1710   -4.6210 O.2    69  VAL69      -0.2867
     71  CB       -29.2650   -7.1380   -5.2280 C.3    69  VAL69       0.0252
     72  CG1      -30.6700   -6.9800   -5.7920 C.3    69  VAL69       0.0019
     73  CG2      -28.6370   -5.7870   -5.0050 C.3    69  VAL69       0.0019
     74  N        -33.2510  -11.9770   -5.5120 N.3    71  ILE71      -0.1245
     75  CA       -34.6150  -12.2540   -5.9540 C.3    71  ILE71       0.1561
     76  C        -35.1300  -13.4720   -5.1810 C.2    71  ILE71       0.2260
     77  O        -34.4720  -14.5050   -5.1390 O.2    71  ILE71      -0.2867
     78  CB       -34.7230  -12.5340   -7.4720 C.3    71  ILE71       0.0252
     79  CG1      -34.6190  -11.2380   -8.2760 C.3    71  ILE71       0.0019
     80  CG2      -36.0790  -13.1390   -7.7850 C.3    71  ILE71       0.0019
     81  CD1      -33.2920  -10.5390   -8.1830 C.3    71  ILE71       0.0001
     82  N        -38.1130   -8.6700   -4.4550 N.3    82  LEU82      -0.1245
     83  CA       -36.7530   -8.1570   -4.5550 C.3    82  LEU82       0.1561
     84  C        -36.2290   -7.8930   -3.1430 C.2    82  LEU82       0.2260
     85  O        -36.9340   -7.3110   -2.3180 O.2    82  LEU82      -0.2867
     86  CB       -36.7380   -6.8440   -5.3590 C.3    82  LEU82       0.0270
     87  CG       -35.4300   -6.0410   -5.3360 C.3    82  LEU82       0.0019
     88  CD1      -34.3570   -6.7420   -6.1460 C.3    82  LEU82       0.0001
     89  CD2      -35.6320   -4.6030   -5.8400 C.3    82  LEU82       0.0001
     90  N        -42.5560   -7.7900   -5.7260 N.3   103  MET103     -0.1245
     91  CA       -42.4620   -7.6940   -7.1960 C.3   103  MET103      0.1570
     92  C        -43.6320   -8.3500   -7.9110 C.2   103  MET103      0.2261
     93  O        -43.6830   -8.3510   -9.1400 O.2   103  MET103     -0.2867
     94  CB       -41.1800   -8.3380   -7.7260 C.3   103  MET103      0.0387
     95  CG       -39.9240   -7.5290   -7.5270 C.3   103  MET103      0.0595
     96  SD       -38.5150   -8.3390   -8.3040 S.3   103  MET103     -0.1393
     97  CE       -37.8270   -6.9550   -9.2100 C.3   103  MET103      0.0692
@<TRIPOS>BOND
     1     8    10   ar
     2     8     6   ar
     3    10    11   ar
     4    97    96    1
     5     4     3    2
     6    93    92    2
     7     5     6    1
     8     5     2    1
     9     6     7   ar
    10    11     9   ar
    11    18    20   ar
    12    18    17   ar
    13    20    22   ar
    14    96    95    1
    15    79    81    1
    16    79    78    1
    17     7     9   ar
    18     3     2    1
    19     3    12   am
    20     2     1    1
    21    92    91    1
    22    80    78    1
    23    94    95    1
    24    94    91    1
    25    16    17    1
    26    16    13    1
    27    17    19   ar
    28    78    75    1
    29    22    23    1
    30    22    21   ar
    31    91    90    1
    32    12    13    1
    33    13    14    1
    34    41    38    1
    35    19    21   ar
    36    36    33    1
    37    88    87    1
    38    75    74    1
    39    75    76    1
    40    31    30    1
    41    89    87    1
    42    72    71    1
    43    66    65    1
    44    53    52    2
    45    54    52   am
    46    14    15    2
    47    52    51    1
    48    86    87    1
    49    86    83    1
    50    38    37    1
    51    38    39    1
    52    71    73    1
    53    71    68    1
    54    76    77    2
    55    35    34    2
    56    34    33    1
    57    33    32    1
    58    51    50    1
    59    70    69    2
    60    30    29    1
    61    83    82    1
    62    83    84    1
    63    65    63   ar
    64    65    64   ar
    65    39    42   am
    66    39    40    2
    67    63    61   ar
    68    69    68    1
    69    42    43    1
    70    45    44    2
    71    68    67    1
    72    64    62   ar
    73    43    44    1
    74    44    46   am
    75    29    28    1
    76    50    47    1
    77    84    85    2
    78    61    60   ar
    79    28    25    1
    80    46    47    1
    81    27    26    2
    82    47    48    1
    83    62    60   ar
    84    60    59    1
    85    26    25    1
    86    25    24    1
    87    58    57    2
    88    48    49    2
    89    57    56    1
    90    59    56    1
    91    56    55    1
