@<TRIPOS>MOLECULE
tmp/4e1sA07.pdb
 114 110 0 0 0
SMALL
GASTEIGER

@<TRIPOS>ATOM
      1  N         -7.9350  -24.4850   -2.3840 N.3     1  GLN1       -0.1231
      2  CA        -8.4940  -24.4660   -3.7320 C.3     1  GLN1        0.1698
      3  C         -9.8460  -23.7610   -3.7890 C.2     1  GLN1        0.2592
      4  O         -9.9310  -22.6010   -4.1930 O.2     1  GLN1       -0.2718
      5  CB        -8.6210  -25.8840   -4.2940 C.3     1  GLN1        0.0381
      6  CG        -7.2990  -26.5060   -4.7060 C.3     1  GLN1        0.0905
      7  CD        -7.4510  -27.4900   -5.8550 C.2     1  GLN1        0.2608
      8  OE1       -6.5610  -27.6190   -6.6970 O.2     1  GLN1       -0.2717
      9  NE2       -8.5820  -28.1880   -5.8940 N.am    1  GLN1       -0.0878
     10  N        -10.8980  -24.4680   -3.3860 N.am    2  HIS2       -0.1976
     11  CA       -12.2570  -23.9330   -3.4450 C.3     2  HIS2        0.1656
     12  C        -12.6080  -23.1130   -2.2060 C.2     2  HIS2        0.2291
     13  O        -12.1760  -23.4250   -1.0940 O.2     2  HIS2       -0.2864
     14  CB       -13.2720  -25.0660   -3.6180 C.3     2  HIS2        0.0771
     15  CG       -13.0680  -25.8790   -4.8600 C.ar    2  HIS2        0.0820
     16  ND1      -12.2620  -25.4640   -5.8980 N.ar    2  HIS2       -0.2267
     17  CD2      -13.5660  -27.0840   -5.2280 C.ar    2  HIS2        0.1154
     18  CE1      -12.2740  -26.3770   -6.8550 C.ar    2  HIS2        0.1986
     19  NE2      -13.0560  -27.3700   -6.4720 N.ar    2  HIS2       -0.2212
     20  N        -21.5190  -24.1820    2.0820 N.3     6  ALA6       -0.1245
     21  CA       -22.7970  -24.8520    1.9090 C.3     6  ALA6        0.1562
     22  C        -23.3960  -25.0330    3.2980 C.2     6  ALA6        0.2260
     23  O        -22.7050  -25.4300    4.2370 O.2     6  ALA6       -0.2867
     24  CB       -22.6140  -26.1940    1.2160 C.3     6  ALA6        0.0290
     25  N        -26.9010  -26.4270    5.4940 N.3     8  VAL8       -0.1245
     26  CA       -28.2240  -27.0010    5.6800 C.3     8  VAL8        0.1561
     27  C        -28.8370  -26.4650    6.9690 C.2     8  VAL8        0.2260
     28  O        -28.1910  -26.4210    8.0160 O.2     8  VAL8       -0.2867
     29  CB       -28.1820  -28.5570    5.7490 C.3     8  VAL8        0.0252
     30  CG1      -29.5230  -29.1140    6.2290 C.3     8  VAL8        0.0019
     31  CG2      -27.8150  -29.1380    4.4020 C.3     8  VAL8        0.0019
     32  N        -32.2000  -26.9530    9.5750 N.3    10  LEU10      -0.1245
     33  CA       -33.4060  -27.6560    9.9670 C.3    10  LEU10       0.1561
     34  C        -34.0390  -26.8750   11.1060 C.2    10  LEU10       0.2260
     35  O        -33.3580  -26.5240   12.0700 O.2    10  LEU10      -0.2867
     36  CB       -33.0640  -29.0640   10.4690 C.3    10  LEU10       0.0270
     37  CG       -32.2870  -29.9570    9.5080 C.3    10  LEU10       0.0019
     38  CD1      -32.0550  -31.3260   10.1310 C.3    10  LEU10       0.0001
     39  CD2      -33.0660  -30.0870    8.2340 C.3    10  LEU10       0.0001
     40  N        -31.3270  -25.4620    2.1200 N.3    21  LEU21      -0.1245
     41  CA       -29.9460  -25.6460    1.7120 C.3    21  LEU21       0.1561
     42  C        -29.5490  -24.3830    0.9630 C.2    21  LEU21       0.2260
     43  O        -30.2500  -23.9590    0.0460 O.2    21  LEU21      -0.2867
     44  CB       -29.8230  -26.8650    0.7820 C.3    21  LEU21       0.0270
     45  CG       -28.4760  -27.1220    0.0840 C.3    21  LEU21       0.0019
     46  CD1      -27.3500  -27.3620    1.1040 C.3    21  LEU21       0.0001
     47  CD2      -28.5860  -28.3310   -0.8770 C.3    21  LEU21       0.0001
     48  N        -26.0070  -21.9910   -0.6170 N.3    23  PHE23      -0.1241
     49  CA       -24.5950  -21.9450   -0.9480 C.3    23  PHE23       0.1605
     50  C        -24.1620  -20.4850   -1.0870 C.2    23  PHE23       0.2264
     51  O        -24.8930  -19.6810   -1.6710 O.2    23  PHE23      -0.2867
     52  CB       -24.3540  -22.6190   -2.3100 C.3    23  PHE23       0.0534
     53  CG       -24.6620  -24.0960   -2.3440 C.ar   23  PHE23      -0.0203
     54  CD1      -23.6700  -25.0270   -2.0880 C.ar   23  PHE23      -0.0042
     55  CD2      -25.9280  -24.5490   -2.6900 C.ar   23  PHE23      -0.0042
     56  CE1      -23.9410  -26.4050   -2.1510 C.ar   23  PHE23      -0.0003
     57  CE2      -26.2110  -25.9160   -2.7640 C.ar   23  PHE23      -0.0003
     58  CZ       -25.2160  -26.8430   -2.4840 C.ar   23  PHE23      -0.0000
     59  N        -18.7290  -27.3170   12.2450 N.3   177  LEU177     -0.1245
     60  CA       -19.6840  -28.0350   11.4170 C.3   177  LEU177      0.1561
     61  C        -21.1430  -27.8600   11.8420 C.2   177  LEU177      0.2260
     62  O        -22.0280  -27.9620   11.0040 O.2   177  LEU177     -0.2867
     63  CB       -19.3470  -29.5350   11.4010 C.3   177  LEU177      0.0270
     64  CG       -20.1990  -30.4150   10.4800 C.3   177  LEU177      0.0019
     65  CD1      -19.7840  -30.2250    9.0390 C.3   177  LEU177      0.0001
     66  CD2      -20.0870  -31.8950   10.9020 C.3   177  LEU177      0.0001
     67  N        -26.0690  -27.2470    9.6450 N.3   200  PHE200     -0.1241
     68  CA       -24.8650  -27.9740    9.2830 C.3   200  PHE200      0.1605
     69  C        -24.1370  -27.1330    8.2510 C.2   200  PHE200      0.2264
     70  O        -24.6910  -26.8110    7.1990 O.2   200  PHE200     -0.2867
     71  CB       -25.2180  -29.3430    8.7200 C.3   200  PHE200      0.0534
     72  CG       -25.9730  -30.1990    9.6870 C.ar  200  PHE200     -0.0203
     73  CD1      -27.3570  -30.2570    9.6500 C.ar  200  PHE200     -0.0042
     74  CD2      -25.2990  -30.9280   10.6580 C.ar  200  PHE200     -0.0042
     75  CE1      -28.0590  -31.0490   10.5610 C.ar  200  PHE200     -0.0003
     76  CE2      -25.9910  -31.7150   11.5680 C.ar  200  PHE200     -0.0003
     77  CZ       -27.3700  -31.7720   11.5230 C.ar  200  PHE200     -0.0000
     78  N        -20.7760  -26.4260    5.9600 N.3   202  TYR202     -0.1241
     79  CA       -19.5790  -26.9480    5.3270 C.3   202  TYR202      0.1605
     80  C        -18.7730  -25.8090    4.7000 C.2   202  TYR202      0.2264
     81  O        -19.2720  -25.1020    3.8410 O.2   202  TYR202     -0.2867
     82  CB       -19.9350  -28.0010    4.2690 C.3   202  TYR202      0.0534
     83  CG       -18.7150  -28.5560    3.5790 C.ar  202  TYR202     -0.0201
     84  CD1      -18.4420  -28.2470    2.2580 C.ar  202  TYR202     -0.0009
     85  CD2      -17.8130  -29.3560    4.2660 C.ar  202  TYR202     -0.0009
     86  CE1      -17.3160  -28.7380    1.6300 C.ar  202  TYR202      0.0417
     87  CE2      -16.6820  -29.8480    3.6480 C.ar  202  TYR202      0.0417
     88  CZ       -16.4370  -29.5350    2.3280 C.ar  202  TYR202      0.1957
     89  OH       -15.3140  -30.0230    1.6950 O.3   202  TYR202     -0.2866
     90  N        -15.8550  -24.7600    2.2750 N.3   204  PHE204     -0.1241
     91  CA       -15.0980  -25.3300    1.1540 C.3   204  PHE204      0.1605
     92  C        -13.5770  -25.2750    1.3540 C.2   204  PHE204      0.2264
     93  O        -12.8600  -26.1760    0.9190 O.2   204  PHE204     -0.2867
     94  CB       -15.4870  -24.6540   -0.1740 C.3   204  PHE204      0.0534
     95  CG       -16.9320  -24.8500   -0.5610 C.ar  204  PHE204     -0.0203
     96  CD1      -17.6430  -25.9380   -0.1000 C.ar  204  PHE204     -0.0042
     97  CD2      -17.5660  -23.9620   -1.4130 C.ar  204  PHE204     -0.0042
     98  CE1      -18.9710  -26.1260   -0.4620 C.ar  204  PHE204     -0.0003
     99  CE2      -18.8910  -24.1410   -1.7730 C.ar  204  PHE204     -0.0003
    100  CZ       -19.5930  -25.2230   -1.2920 C.ar  204  PHE204     -0.0000
    101  N        -11.6090  -31.5870    6.5120 N.3   208  TRP208     -0.1241
    102  CA       -12.6300  -32.2020    7.3460 C.3   208  TRP208      0.1605
    103  C        -12.3080  -32.0630    8.8410 C.2   208  TRP208      0.2264
    104  O        -13.1710  -31.6800    9.6460 O.2   208  TRP208     -0.2867
    105  CB       -12.8190  -33.6700    6.9600 C.3   208  TRP208      0.0550
    106  CG       -13.7420  -34.3880    7.8780 C.ar  208  TRP208      0.0003
    107  CD1      -13.4250  -35.3990    8.7300 C.ar  208  TRP208      0.0946
    108  CD2      -15.1360  -34.1310    8.0620 C.ar  208  TRP208      0.0152
    109  NE1      -14.5380  -35.8050    9.4230 N.ar  208  TRP208     -0.2442
    110  CE2      -15.6080  -35.0340    9.0340 C.ar  208  TRP208      0.0810
    111  CE3      -16.0410  -33.2240    7.4920 C.ar  208  TRP208      0.0012
    112  CZ2      -16.9340  -35.0650    9.4560 C.ar  208  TRP208      0.0191
    113  CZ3      -17.3600  -33.2480    7.9120 C.ar  208  TRP208      0.0001
    114  CH2      -17.7940  -34.1620    8.8850 C.ar  208  TRP208      0.0015
@<TRIPOS>BOND
     1    18    19   ar
     2    18    16   ar
     3     8     7    2
     4    19    17   ar
     5    16    15   ar
     6     9     7   am
     7     7     6    1
     8    17    15   ar
     9    15    14    1
    10     6     5    1
    11     5     2    1
    12     4     3    2
    13     3     2    1
    14     3    10   am
    15     2     1    1
    16    14    11    1
    17    11    10    1
    18    11    12    1
    19    57    55   ar
    20    57    58   ar
    21    55    53   ar
    22    58    56   ar
    23    53    52    1
    24    53    54   ar
    25    52    49    1
    26    12    13    2
    27    56    54   ar
    28    99    97   ar
    29    99   100   ar
    30    51    50    2
    31    97    95   ar
    32   100    98   ar
    33    50    49    1
    34    49    48    1
    35    47    45    1
    36    95    94    1
    37    95    96   ar
    38    98    96   ar
    39    94    91    1
    40    43    42    2
    41    45    44    1
    42    45    46    1
    43    44    41    1
    44    93    92    2
    45    42    41    1
    46    91    92    1
    47    91    90    1
    48    24    21    1
    49    86    84   ar
    50    86    88   ar
    51    89    88    1
    52    41    40    1
    53    21    20    1
    54    21    22    1
    55    84    83   ar
    56    88    87   ar
    57    22    23    2
    58    83    85   ar
    59    83    82    1
    60    87    85   ar
    61    81    80    2
    62    82    79    1
    63    31    29    1
    64    80    79    1
    65    79    78    1
    66    25    26    1
    67    26    29    1
    68    26    27    1
    69    29    30    1
    70   101   102    1
    71   105   102    1
    72   105   106    1
    73    27    28    2
    74    70    69    2
    75   102   103    1
    76   111   113   ar
    77   111   108   ar
    78   106   108   ar
    79   106   107   ar
    80   113   114   ar
    81   108   110   ar
    82    39    37    1
    83    69    68    1
    84    71    68    1
    85    71    72    1
    86   107   109   ar
    87   103   104    2
    88   114   112   ar
    89   110   109   ar
    90   110   112   ar
    91    65    64    1
    92    68    67    1
    93    37    38    1
    94    37    36    1
    95    32    33    1
    96    73    72   ar
    97    73    75   ar
    98    72    74   ar
    99    33    36    1
   100    33    34    1
   101    64    66    1
   102    64    63    1
   103    75    77   ar
   104    74    76   ar
   105    62    61    2
   106    34    35    2
   107    63    60    1
   108    60    61    1
   109    60    59    1
   110    77    76   ar
