@<TRIPOS>MOLECULE
tmp/4e1sA02.pdb
 134 130 0 0 0
SMALL
GASTEIGER

@<TRIPOS>ATOM
      1  N        -32.2000  -26.9530    9.5750 N.3    10  LEU10      -0.1231
      2  CA       -33.4060  -27.6560    9.9670 C.3    10  LEU10       0.1693
      3  C        -34.0390  -26.8750   11.1060 C.2    10  LEU10       0.2592
      4  O        -33.3580  -26.5240   12.0700 O.2    10  LEU10      -0.2718
      5  CB       -33.0640  -29.0640   10.4690 C.3    10  LEU10       0.0284
      6  CG       -32.2870  -29.9570    9.5080 C.3    10  LEU10       0.0019
      7  CD1      -32.0550  -31.3260   10.1310 C.3    10  LEU10       0.0001
      8  CD2      -33.0660  -30.0870    8.2340 C.3    10  LEU10       0.0001
      9  N        -35.3320  -26.5970   11.0180 N.am   11  GLN11      -0.1966
     10  CA       -35.9690  -25.7960   12.0670 C.3    11  GLN11       0.1733
     11  C        -37.3890  -26.2410   12.3770 C.2    11  GLN11       0.2617
     12  O        -38.1040  -26.7480   11.5150 O.2    11  GLN11      -0.2715
     13  CB       -35.9630  -24.2990   11.6950 C.3    11  GLN11       0.0408
     14  CG       -36.6690  -23.9860   10.3990 C.3    11  GLN11       0.0908
     15  CD       -36.5070  -22.5240    9.9640 C.2    11  GLN11       0.2608
     16  OE1      -35.4020  -22.0660    9.6890 O.2    11  GLN11      -0.2717
     17  NE2      -37.6140  -21.7980    9.8980 N.am   11  GLN11      -0.0878
     18  N        -37.7930  -26.0330   13.6240 N.am   12  SER12      -0.1950
     19  CA       -39.1580  -26.3150   14.0360 C.3    12  SER12       0.1924
     20  C        -39.4970  -25.4900   15.2700 C.2    12  SER12       0.2314
     21  O        -38.6150  -24.9450   15.9250 O.2    12  SER12      -0.2863
     22  CB       -39.3370  -27.8050   14.3300 C.3    12  SER12       0.2116
     23  OG       -38.6920  -28.1550   15.5360 O.3    12  SER12      -0.2180
     24  N        -41.8870  -24.3340   10.1140 N.3    17  ASP17      -0.1225
     25  CA       -41.1780  -25.6150   10.1650 C.3    17  ASP17       0.1805
     26  C        -40.7090  -26.0740    8.7890 C.2    17  ASP17       0.2598
     27  O        -41.4500  -25.9670    7.8130 O.2    17  ASP17      -0.2718
     28  CB       -42.0770  -26.7070   10.7550 C.3    17  ASP17       0.1424
     29  CG       -42.3910  -26.4740   12.2230 C.2    17  ASP17       0.3668
     30  OD1      -41.9050  -25.4660   12.7720 O.co2  17  ASP17      -0.2456
     31  OD2      -43.1030  -27.3020   12.8340 O.co2  17  ASP17      -0.2456
     32  N        -39.4980  -26.6250    8.7320 N.am   18  GLY18      -0.1942
     33  CA       -38.9760  -27.1840    7.4940 C.3    18  GLY18       0.2014
     34  C        -37.4620  -27.2110    7.4160 C.2    18  GLY18       0.2639
     35  O        -36.7690  -27.2940    8.4310 O.2    18  GLY18      -0.2714
     36  N        -36.9460  -27.1420    6.1950 N.am   19  SER19      -0.1949
     37  CA       -35.5300  -27.3480    5.9450 C.3    19  SER19       0.1924
     38  C        -35.0820  -26.5060    4.7660 C.2    19  SER19       0.2314
     39  O        -35.9010  -26.0920    3.9430 O.2    19  SER19      -0.2863
     40  CB       -35.2500  -28.8290    5.6580 C.3    19  SER19       0.2116
     41  OG       -35.9900  -29.2910    4.5360 O.3    19  SER19      -0.2180
     42  N        -37.9940  -25.7090    1.9450 N.3    43  TYR43      -0.1241
     43  CA       -39.3640  -26.1350    2.0290 C.3    43  TYR43       0.1605
     44  C        -39.7710  -25.8860    3.4640 C.2    43  TYR43       0.2264
     45  O        -39.3760  -26.6140    4.3750 O.2    43  TYR43      -0.2867
     46  CB       -39.5650  -27.6120    1.6420 C.3    43  TYR43       0.0534
     47  CG       -41.0390  -27.8950    1.5110 C.ar   43  TYR43      -0.0201
     48  CD1      -41.7730  -28.3750    2.5880 C.ar   43  TYR43      -0.0009
     49  CD2      -41.7180  -27.6020    0.3310 C.ar   43  TYR43      -0.0009
     50  CE1      -43.1400  -28.5980    2.4810 C.ar   43  TYR43       0.0417
     51  CE2      -43.0840  -27.8180    0.2110 C.ar   43  TYR43       0.0417
     52  CZ       -43.7900  -28.3110    1.2930 C.ar   43  TYR43       0.1957
     53  OH       -45.1460  -28.5180    1.1830 O.3    43  TYR43      -0.2866
     54  N        -20.3610  -19.7000   22.0530 N.3   137  LEU137     -0.1245
     55  CA       -21.6140  -19.1410   22.5570 C.3   137  LEU137      0.1561
     56  C        -21.9900  -17.8740   21.8050 C.2   137  LEU137      0.2260
     57  O        -21.2270  -16.9030   21.7860 O.2   137  LEU137     -0.2867
     58  CB       -21.5140  -18.8490   24.0540 C.3   137  LEU137      0.0270
     59  CG       -21.5850  -20.1250   24.8920 C.3   137  LEU137      0.0019
     60  CD1      -21.2920  -19.8580   26.3780 C.3   137  LEU137      0.0001
     61  CD2      -22.9520  -20.7790   24.7030 C.3   137  LEU137      0.0001
     62  N        -30.3220  -17.6030   21.5670 N.3   170  VAL170     -0.1231
     63  CA       -28.9940  -18.0540   21.9440 C.3   170  VAL170      0.1692
     64  C        -28.6900  -19.2940   21.1220 C.2   170  VAL170      0.2592
     65  O        -29.5950  -20.0460   20.7640 O.2   170  VAL170     -0.2718
     66  CB       -28.8930  -18.3670   23.4560 C.3   170  VAL170      0.0266
     67  CG1      -29.0580  -17.0870   24.2900 C.3   170  VAL170      0.0020
     68  CG2      -29.9240  -19.4010   23.8490 C.3   170  VAL170      0.0020
     69  N        -27.4210  -19.4910   20.7930 N.am  171  ASN171     -0.1960
     70  CA       -27.0190  -20.6460   19.9990 C.3   171  ASN171      0.1819
     71  C        -25.6520  -21.1470   20.4260 C.2   171  ASN171      0.2621
     72  O        -24.8700  -20.4180   21.0280 O.2   171  ASN171     -0.2715
     73  CB       -27.0450  -20.3360   18.4990 C.3   171  ASN171      0.1195
     74  CG       -26.2980  -19.0680   18.1600 C.2   171  ASN171      0.2630
     75  OD1      -25.0640  -19.0590   18.0800 O.2   171  ASN171     -0.2716
     76  ND2      -27.0450  -17.9770   17.9610 N.am  171  ASN171     -0.0877
     77  N        -25.3800  -22.4030   20.1180 N.am  172  TYR172     -0.1974
     78  CA       -24.1600  -23.0600   20.5500 C.3   172  TYR172      0.1639
     79  C        -23.5120  -23.7340   19.3360 C.2   172  TYR172      0.2290
     80  O        -24.1730  -24.4680   18.6050 O.2   172  TYR172     -0.2864
     81  CB       -24.5000  -24.0890   21.6380 C.3   172  TYR172      0.0560
     82  CG       -23.3210  -24.8870   22.1530 C.ar  172  TYR172     -0.0198
     83  CD1      -23.3410  -26.2740   22.1490 C.ar  172  TYR172     -0.0009
     84  CD2      -22.1880  -24.2510   22.6330 C.ar  172  TYR172     -0.0009
     85  CE1      -22.2640  -27.0090   22.6120 C.ar  172  TYR172      0.0417
     86  CE2      -21.1070  -24.9780   23.1020 C.ar  172  TYR172      0.0417
     87  CZ       -21.1490  -26.3530   23.0860 C.ar  172  TYR172      0.1957
     88  OH       -20.0710  -27.0750   23.5560 O.3   172  TYR172     -0.2866
     89  N        -26.4890  -25.1150   17.0040 N.3   180  MET180     -0.1230
     90  CA       -27.8550  -25.3370   17.4650 C.3   180  MET180      0.1702
     91  C        -28.3380  -24.1060   18.2210 C.2   180  MET180      0.2593
     92  O        -27.5590  -23.4630   18.9070 O.2   180  MET180     -0.2718
     93  CB       -27.9070  -26.5410   18.4070 C.3   180  MET180      0.0401
     94  CG       -27.6290  -27.8760   17.7230 C.3   180  MET180      0.0596
     95  SD       -26.7000  -28.9630   18.8130 S.3   180  MET180     -0.1393
     96  CE       -25.1400  -28.0770   18.8890 C.3   180  MET180      0.0692
     97  N        -29.6260  -23.8000   18.1260 N.am  181  GLY181     -0.1942
     98  CA       -30.1280  -22.6260   18.8030 C.3   181  GLY181      0.2014
     99  C        -31.6110  -22.6020   19.0940 C.2   181  GLY181      0.2638
    100  O        -32.3910  -23.4080   18.5820 O.2   181  GLY181     -0.2714
    101  N        -31.9920  -21.6500   19.9360 N.am  182  ILE182     -0.1977
    102  CA       -33.3850  -21.4200   20.2730 C.3   182  ILE182      0.1596
    103  C        -33.6480  -19.9220   20.1560 C.2   182  ILE182      0.2287
    104  O        -32.8890  -19.1110   20.6780 O.2   182  ILE182     -0.2864
    105  CB       -33.7100  -21.8990   21.7040 C.3   182  ILE182      0.0276
    106  CG1      -33.3500  -23.3780   21.8630 C.3   182  ILE182      0.0022
    107  CG2      -35.1880  -21.7170   22.0020 C.3   182  ILE182      0.0022
    108  CD1      -33.6020  -23.9240   23.2490 C.3   182  ILE182      0.0001
    109  N        -36.7630  -23.6320   17.2820 N.3   196  TYR196     -0.1227
    110  CA       -35.5870  -24.4610   17.5070 C.3   196  TYR196      0.1736
    111  C        -34.9550  -24.7200   16.1510 C.2   196  TYR196      0.2596
    112  O        -35.6570  -25.0190   15.1940 O.2   196  TYR196     -0.2718
    113  CB       -35.9740  -25.8010   18.1380 C.3   196  TYR196      0.0548
    114  CG       -36.7700  -25.6480   19.4070 C.ar  196  TYR196     -0.0200
    115  CD1      -38.1480  -25.5020   19.3690 C.ar  196  TYR196     -0.0009
    116  CD2      -36.1440  -25.6320   20.6450 C.ar  196  TYR196     -0.0009
    117  CE1      -38.8860  -25.3600   20.5320 C.ar  196  TYR196      0.0417
    118  CE2      -36.8690  -25.4880   21.8090 C.ar  196  TYR196      0.0417
    119  CZ       -38.2410  -25.3490   21.7470 C.ar  196  TYR196      0.1957
    120  OH       -38.9720  -25.2070   22.9090 O.3   196  TYR196     -0.2866
    121  N        -33.6390  -24.6010   16.0600 N.am  197  SER197     -0.1938
    122  CA       -32.9860  -24.8020   14.7730 C.3   197  SER197      0.2055
    123  C        -31.5870  -25.3950   14.8850 C.2   197  SER197      0.2642
    124  O        -30.8790  -25.2080   15.8800 O.2   197  SER197     -0.2714
    125  CB       -32.9700  -23.5110   13.9310 C.3   197  SER197      0.2130
    126  OG       -32.0610  -22.5380   14.4330 O.3   197  SER197     -0.2179
    127  N        -31.2050  -26.1290   13.8470 N.am  198  MET198     -0.1976
    128  CA       -29.8660  -26.6670   13.7530 C.3   198  MET198      0.1605
    129  C        -29.3020  -26.4390   12.3470 C.2   198  MET198      0.2287
    130  O        -29.9860  -26.6700   11.3480 O.2   198  MET198     -0.2864
    131  CB       -29.9080  -28.1490   14.0820 C.3   198  MET198      0.0413
    132  CG       -28.5830  -28.8470   14.0150 C.3   198  MET198      0.0598
    133  SD       -28.7390  -30.4270   14.8630 S.3   198  MET198     -0.1393
    134  CE       -30.4000  -30.8970   14.3930 C.3   198  MET198      0.0692
@<TRIPOS>BOND
     1    51    49   ar
     2    51    52   ar
     3    49    47   ar
     4    53    52    1
     5    52    50   ar
     6    47    46    1
     7    47    48   ar
     8    46    43    1
     9    42    43    1
    10    43    44    1
    11    50    48   ar
    12    44    45    2
    13    39    38    2
    14    41    40    1
    15    38    37    1
    16    40    37    1
    17    37    36    1
    18    36    34   am
    19    34    33    1
    20    34    35    2
    21    33    32    1
    22    27    26    2
    23     8     6    1
    24    32    26   am
    25    26    25    1
    26     6     7    1
    27     6     5    1
    28     1     2    1
    29    16    15    2
    30    17    15   am
    31    15    14    1
    32     2     5    1
    33     2     3    1
    34    24    25    1
    35    25    28    1
    36    14    13    1
    37    28    29    1
    38     9     3   am
    39     9    10    1
    40     3     4    2
    41   130   129    2
    42    12    11    2
    43    13    10    1
    44    10    11    1
    45    29    30   ar
    46    29    31   ar
    47   129   128    1
    48    11    18   am
    49    18    19    1
    50   128   127    1
    51   128   131    1
    52   127   123   am
    53   125   126    1
    54   125   122    1
    55   132   131    1
    56   132   133    1
    57    19    22    1
    58    19    20    1
    59    22    23    1
    60   134   133    1
    61   122   123    1
    62   122   121    1
    63   123   124    2
    64   112   111    2
    65    20    21    2
    66   121   111   am
    67   111   110    1
    68    89    90    1
    69   109   110    1
    70    90    91    1
    71    90    93    1
    72   110   113    1
    73    94    93    1
    74    94    95    1
    75    76    74   am
    76    75    74    2
    77    97    91   am
    78    97    98    1
    79   113   114    1
    80    74    73    1
    81    91    92    2
    82    73    70    1
    83   100    99    2
    84    80    79    2
    85    98    99    1
    86    95    96    1
    87    99   101   am
    88    79    78    1
    89   115   114   ar
    90   115   117   ar
    91   114   116   ar
    92   101   102    1
    93    70    71    1
    94    70    69    1
    95    77    71   am
    96    77    78    1
    97   103   102    1
    98   103   104    2
    99   102   105    1
   100    71    72    2
   101   117   119   ar
   102    78    81    1
   103   116   118   ar
   104    65    64    2
   105    69    64   am
   106    64    63    1
   107    62    63    1
   108    81    82    1
   109   105   106    1
   110   105   107    1
   111   119   118   ar
   112   119   120    1
   113    57    56    2
   114    56    55    1
   115   106   108    1
   116    63    66    1
   117    54    55    1
   118    83    82   ar
   119    83    85   ar
   120    82    84   ar
   121    55    58    1
   122    85    87   ar
   123    84    86   ar
   124    87    86   ar
   125    87    88    1
   126    66    68    1
   127    66    67    1
   128    58    59    1
   129    61    59    1
   130    59    60    1
