@<TRIPOS>MOLECULE
tmp/4e1sA10.pdb
 101 98 0 0 0
SMALL
GASTEIGER

@<TRIPOS>ATOM
      1  N        -13.3960  -22.0610   -2.4020 N.3     3  TYR3       -0.1241
      2  CA       -13.8290  -21.2190   -1.2980 C.3     3  TYR3        0.1605
      3  C        -15.3420  -21.0530   -1.2990 C.2     3  TYR3        0.2264
      4  O        -15.9940  -21.1550   -2.3390 O.2     3  TYR3       -0.2867
      5  CB       -13.1180  -19.8640   -1.3470 C.3     3  TYR3        0.0534
      6  CG       -11.6280  -19.9990   -1.1380 C.ar    3  TYR3       -0.0201
      7  CD1      -10.7740  -20.2370   -2.2090 C.ar    3  TYR3       -0.0009
      8  CD2      -11.0750  -19.9210    0.1370 C.ar    3  TYR3       -0.0009
      9  CE1       -9.4070  -20.3750   -2.0180 C.ar    3  TYR3        0.0417
     10  CE2       -9.7110  -20.0600    0.3360 C.ar    3  TYR3        0.0417
     11  CZ        -8.8820  -20.2860   -0.7410 C.ar    3  TYR3        0.1957
     12  OH        -7.5280  -20.4250   -0.5430 O.3     3  TYR3       -0.2866
     13  N        -21.0570  -18.6290   -2.9200 N.3    25  LEU25      -0.1231
     14  CA       -20.0670  -19.0010   -3.9260 C.3    25  LEU25       0.1678
     15  C        -19.3120  -17.7810   -4.4720 C.2    25  LEU25       0.2434
     16  O        -19.8580  -17.0200   -5.2680 O.2    25  LEU25      -0.2733
     17  CB       -20.7730  -19.6890   -5.0980 C.3    25  LEU25       0.0284
     18  CG       -21.6390  -20.9080   -4.7890 C.3    25  LEU25       0.0019
     19  CD1      -22.4500  -21.2980   -6.0290 C.3    25  LEU25       0.0001
     20  CD2      -20.7530  -22.0490   -4.3390 C.3    25  LEU25       0.0001
     21  N        -18.0520  -17.5960   -4.0470 N.am   26  PRO26      -0.2718
     22  CA       -17.2500  -16.4420   -4.4850 C.3    26  PRO26       0.1535
     23  C        -16.9620  -16.4960   -5.9830 C.2    26  PRO26       0.2599
     24  O        -16.7660  -17.5770   -6.5390 O.2    26  PRO26      -0.2715
     25  CB       -15.9400  -16.6040   -3.7020 C.3    26  PRO26       0.0310
     26  CG       -16.2990  -17.5050   -2.5220 C.3    26  PRO26       0.0237
     27  CD       -17.3340  -18.4400   -3.0720 C.3    26  PRO26       0.0939
     28  N        -16.9580  -15.3480   -6.6420 N.am   27  PHE27      -0.1960
     29  CA       -16.4790  -15.3150   -8.0180 C.3    27  PHE27       0.1771
     30  C        -15.2750  -14.3960   -8.1830 C.2    27  PHE27       0.2620
     31  O        -14.5570  -14.4610   -9.1820 O.2    27  PHE27      -0.2715
     32  CB       -17.5960  -15.0550   -9.0390 C.3    27  PHE27       0.0574
     33  CG       -18.3450  -13.7420   -8.8700 C.ar   27  PHE27      -0.0200
     34  CD1      -19.5540  -13.7030   -8.1890 C.ar   27  PHE27      -0.0042
     35  CD2      -17.8900  -12.5790   -9.4760 C.ar   27  PHE27      -0.0042
     36  CE1      -20.2680  -12.5380   -8.0730 C.ar   27  PHE27      -0.0003
     37  CE2      -18.6050  -11.3960   -9.3690 C.ar   27  PHE27      -0.0003
     38  CZ       -19.7940  -11.3750   -8.6600 C.ar   27  PHE27      -0.0000
     39  N        -15.0530  -13.5540   -7.1780 N.am   28  TYR28      -0.1960
     40  CA       -13.8130  -12.8100   -7.0700 C.3    28  TYR28       0.1771
     41  C        -13.4430  -12.7510   -5.6030 C.2    28  TYR28       0.2619
     42  O        -14.2660  -12.3780   -4.7750 O.2    28  TYR28      -0.2715
     43  CB       -13.9660  -11.3940   -7.6150 C.3    28  TYR28       0.0574
     44  CG       -12.6880  -10.5940   -7.5250 C.ar   28  TYR28      -0.0198
     45  CD1      -11.7240  -10.6770   -8.5230 C.ar   28  TYR28      -0.0009
     46  CD2      -12.4360   -9.7640   -6.4380 C.ar   28  TYR28      -0.0009
     47  CE1      -10.5500   -9.9440   -8.4470 C.ar   28  TYR28       0.0417
     48  CE2      -11.2620   -9.0270   -6.3540 C.ar   28  TYR28       0.0417
     49  CZ       -10.3250   -9.1240   -7.3620 C.ar   28  TYR28       0.1957
     50  OH        -9.1570   -8.4000   -7.2800 O.3    28  TYR28      -0.2866
     51  N        -12.2000  -13.0880   -5.2900 N.am   29  ASP29      -0.1971
     52  CA       -11.7900  -13.2060   -3.8980 C.3    29  ASP29       0.1709
     53  C        -10.3790  -12.6570   -3.7130 C.2    29  ASP29       0.2293
     54  O         -9.4090  -13.2410   -4.1910 O.2    29  ASP29      -0.2864
     55  CB       -11.8770  -14.6740   -3.4680 C.3    29  ASP29       0.1436
     56  CG       -11.9040  -14.8520   -1.9570 C.2    29  ASP29       0.3671
     57  OD1      -11.9170  -16.0140   -1.5040 O.co2  29  ASP29      -0.2456
     58  OD2      -11.9010  -13.8470   -1.2230 O.co2  29  ASP29      -0.2456
     59  N        -21.9410  -14.9540   -5.2830 N.3    37  GLY37      -0.1225
     60  CA       -23.3350  -15.2680   -5.5040 C.3    37  GLY37       0.1811
     61  C        -23.8230  -16.1330   -4.3530 C.2    37  GLY37       0.2280
     62  O        -23.0370  -16.8390   -3.7210 O.2    37  GLY37      -0.2866
     63  N        -27.1410  -18.8510   -3.5560 N.3    39  VAL39      -0.1245
     64  CA       -28.2730  -19.5230   -4.1540 C.3    39  VAL39       0.1561
     65  C        -28.7570  -20.6100   -3.2050 C.2    39  VAL39       0.2260
     66  O        -27.9670  -21.2920   -2.5680 O.2    39  VAL39      -0.2867
     67  CB       -27.9220  -20.0960   -5.5850 C.3    39  VAL39       0.0252
     68  CG1      -26.7650  -21.1090   -5.5150 C.3    39  VAL39       0.0019
     69  CG2      -29.1380  -20.7310   -6.2400 C.3    39  VAL39       0.0019
     70  N        -31.9560  -16.3500   -5.0880 N.3    52  LEU52      -0.1231
     71  CA       -30.7200  -16.1170   -5.8290 C.3    52  LEU52       0.1693
     72  C        -30.2470  -14.6790   -5.5620 C.2    52  LEU52       0.2593
     73  O        -31.0200  -13.7340   -5.6950 O.2    52  LEU52      -0.2718
     74  CB       -30.9530  -16.3260   -7.3340 C.3    52  LEU52       0.0284
     75  CG       -29.7810  -15.9870   -8.2660 C.3    52  LEU52       0.0019
     76  CD1      -28.5130  -16.7400   -7.8740 C.3    52  LEU52       0.0001
     77  CD2      -30.1390  -16.2460   -9.7420 C.3    52  LEU52       0.0001
     78  N        -28.9900  -14.5200   -5.1650 N.am   53  GLY53      -0.1942
     79  CA       -28.4660  -13.1970   -4.8700 C.3    53  GLY53       0.2014
     80  C        -26.9930  -13.0430   -5.1810 C.2    53  GLY53       0.2638
     81  O        -26.2950  -14.0150   -5.4810 O.2    53  GLY53      -0.2714
     82  N        -26.5270  -11.8040   -5.1250 N.am   54  ALA54      -0.1977
     83  CA       -25.1200  -11.5070   -5.2950 C.3    54  ALA54       0.1597
     84  C        -24.7820  -10.2810   -4.4500 C.2    54  ALA54       0.2287
     85  O        -25.6610   -9.4980   -4.0790 O.2    54  ALA54      -0.2864
     86  CB       -24.8060  -11.2360   -6.7630 C.3    54  ALA54       0.0319
     87  N        -27.9890   -8.0220   -3.2900 N.3    69  VAL69      -0.1245
     88  CA       -29.3060   -7.9200   -3.9010 C.3    69  VAL69       0.1561
     89  C        -29.8200   -9.3150   -4.1640 C.2    69  VAL69       0.2260
     90  O        -29.0620  -10.1710   -4.6210 O.2    69  VAL69      -0.2867
     91  CB       -29.2650   -7.1380   -5.2280 C.3    69  VAL69       0.0252
     92  CG1      -30.6700   -6.9800   -5.7920 C.3    69  VAL69       0.0019
     93  CG2      -28.6370   -5.7870   -5.0050 C.3    69  VAL69       0.0019
     94  N        -33.2510  -11.9770   -5.5120 N.3    71  ILE71      -0.1245
     95  CA       -34.6150  -12.2540   -5.9540 C.3    71  ILE71       0.1561
     96  C        -35.1300  -13.4720   -5.1810 C.2    71  ILE71       0.2260
     97  O        -34.4720  -14.5050   -5.1390 O.2    71  ILE71      -0.2867
     98  CB       -34.7230  -12.5340   -7.4720 C.3    71  ILE71       0.0252
     99  CG1      -34.6190  -11.2380   -8.2760 C.3    71  ILE71       0.0019
    100  CG2      -36.0790  -13.1390   -7.7850 C.3    71  ILE71       0.0019
    101  CD1      -33.2920  -10.5390   -8.1830 C.3    71  ILE71       0.0001
@<TRIPOS>BOND
     1    77    75    1
     2    35    37   ar
     3    35    33   ar
     4    37    38   ar
     5    31    30    2
     6    32    33    1
     7    32    29    1
     8    33    34   ar
     9    38    36   ar
    10    45    47   ar
    11    45    44   ar
    12    47    49   ar
    13    99   101    1
    14    99    98    1
    15    75    76    1
    16    75    74    1
    17    34    36   ar
    18    30    29    1
    19    30    39   am
    20    29    28    1
    21   100    98    1
    22    43    44    1
    23    43    40    1
    24    44    46   ar
    25    98    95    1
    26    49    50    1
    27    49    48   ar
    28    74    71    1
    29    39    40    1
    30    40    41    1
    31    86    83    1
    32    28    23   am
    33    24    23    2
    34    46    48   ar
    35    69    67    1
    36    19    18    1
    37    23    22    1
    38    95    94    1
    39    95    96    1
    40    71    72    1
    41    71    70    1
    42    92    91    1
    43    73    72    2
    44    41    51   am
    45    41    42    2
    46    67    68    1
    47    67    64    1
    48    72    78   am
    49    60    59    1
    50    60    61    1
    51    81    80    2
    52    83    82    1
    53    83    84    1
    54    51    52    1
    55    16    15    2
    56    91    93    1
    57    91    88    1
    58    80    82   am
    59    80    79    1
    60    96    97    2
    61    78    79    1
    62    17    18    1
    63    17    14    1
    64    18    20    1
    65    90    89    2
    66    22    21    1
    67    22    25    1
    68    15    21   am
    69    15    14    1
    70    84    85    2
    71    61    62    2
    72    54    53    2
    73    89    88    1
    74    64    63    1
    75    64    65    1
    76    21    27    1
    77    14    13    1
    78    88    87    1
    79    52    53    1
    80    52    55    1
    81    25    26    1
    82    55    56    1
    83    65    66    2
    84    27    26    1
    85     1     2    1
    86     4     3    2
    87     7     9   ar
    88     7     6   ar
    89     9    11   ar
    90    56    57   ar
    91    56    58   ar
    92     5     2    1
    93     5     6    1
    94     3     2    1
    95     6     8   ar
    96    11    12    1
    97    11    10   ar
    98     8    10   ar
