@<TRIPOS>MOLECULE
tmp/4e1sA09.pdb
 121 117 0 0 0
SMALL
GASTEIGER

@<TRIPOS>ATOM
      1  N        -27.6430   -4.6580    3.4790 N.3    86  GLY86      -0.1210
      2  CA       -26.3800   -4.0670    3.8630 C.3    86  GLY86       0.1956
      3  C        -25.7590   -4.8060    5.0360 C.2    86  GLY86       0.2612
      4  O        -26.4600   -5.4870    5.7970 O.2    86  GLY86      -0.2717
      5  N        -24.4430   -4.6840    5.1820 N.am   87  GLU87      -0.1965
      6  CA       -23.7150   -5.4410    6.1960 C.3    87  GLU87       0.1733
      7  C        -22.6440   -4.5820    6.8490 C.2    87  GLU87       0.2616
      8  O        -21.9260   -3.8300    6.1730 O.2    87  GLU87      -0.2715
      9  CB       -23.0450   -6.6830    5.5870 C.3    87  GLU87       0.0429
     10  CG       -24.0170   -7.7600    5.0780 C.3    87  GLU87       0.1163
     11  CD       -23.3210   -8.9010    4.3320 C.2    87  GLU87       0.3649
     12  OE1      -22.2490   -8.6780    3.7220 O.co2  87  GLU87      -0.2457
     13  OE2      -23.8540  -10.0300    4.3630 O.co2  87  GLU87      -0.2457
     14  N        -22.5430   -4.7000    8.1690 N.am   88  TYR88      -0.1974
     15  CA       -21.4150   -4.1510    8.9050 C.3    88  TYR88       0.1639
     16  C        -20.9540   -5.1730    9.9360 C.2    88  TYR88       0.2290
     17  O        -21.6120   -5.3630   10.9620 O.2    88  TYR88      -0.2864
     18  CB       -21.7880   -2.8270    9.5820 C.3    88  TYR88       0.0560
     19  CG       -20.6980   -2.2900   10.4690 C.ar   88  TYR88      -0.0198
     20  CD1      -20.7430   -2.4880   11.8450 C.ar   88  TYR88      -0.0009
     21  CD2      -19.6080   -1.6160    9.9400 C.ar   88  TYR88      -0.0009
     22  CE1      -19.7460   -1.9990   12.6720 C.ar   88  TYR88       0.0417
     23  CE2      -18.6030   -1.1220   10.7610 C.ar   88  TYR88       0.0417
     24  CZ       -18.6800   -1.3270   12.1280 C.ar   88  TYR88       0.1957
     25  OH       -17.6970   -0.8540   12.9570 O.3    88  TYR88      -0.2866
     26  N        -23.6120   -7.3500   11.9630 N.3    95  SER95      -0.1202
     27  CA       -24.8450   -6.5870   11.8640 C.3    95  SER95       0.2020
     28  C        -25.2790   -6.4890   10.3950 C.2    95  SER95       0.2619
     29  O        -24.4560   -6.2860    9.5140 O.2    95  SER95      -0.2717
     30  CB       -24.7170   -5.1940   12.5150 C.3    95  SER95       0.2103
     31  OG       -23.9600   -4.2980   11.7220 O.3    95  SER95      -0.2182
     32  N        -26.5750   -6.6580   10.1490 N.am   96  SER96      -0.1937
     33  CA       -27.1320   -6.5480    8.8120 C.3    96  SER96       0.2055
     34  C        -28.4700   -5.8150    8.8140 C.2    96  SER96       0.2642
     35  O        -29.2210   -5.8450    9.7770 O.2    96  SER96      -0.2714
     36  CB       -27.3400   -7.9420    8.2060 C.3    96  SER96       0.2130
     37  OG       -26.1590   -8.7120    8.2610 O.3    96  SER96      -0.2179
     38  N        -28.7620   -5.1470    7.7110 N.am   97  VAL97      -0.1977
     39  CA       -30.0850   -4.5840    7.4970 C.3    97  VAL97       0.1596
     40  C        -30.5730   -5.0790    6.1490 C.2    97  VAL97       0.2287
     41  O        -29.7950   -5.1740    5.2050 O.2    97  VAL97      -0.2864
     42  CB       -30.0760   -3.0450    7.5230 C.3    97  VAL97       0.0276
     43  CG1      -31.4160   -2.5000    7.0570 C.3    97  VAL97       0.0022
     44  CG2      -29.7560   -2.5450    8.9150 C.3    97  VAL97       0.0022
     45  N        -38.8320   -4.5720    6.3660 N.3   123  PHE123     -0.1241
     46  CA       -37.3900   -4.5810    6.5690 C.3   123  PHE123      0.1605
     47  C        -37.0590   -5.3380    7.8430 C.2   123  PHE123      0.2264
     48  O        -37.9430   -5.6400    8.6410 O.2   123  PHE123     -0.2867
     49  CB       -36.8280   -3.1550    6.6630 C.3   123  PHE123      0.0534
     50  CG       -37.2730   -2.3960    7.8910 C.ar  123  PHE123     -0.0203
     51  CD1      -38.4420   -1.6500    7.8800 C.ar  123  PHE123     -0.0042
     52  CD2      -36.5070   -2.4100    9.0500 C.ar  123  PHE123     -0.0042
     53  CE1      -38.8510   -0.9500    9.0160 C.ar  123  PHE123     -0.0003
     54  CE2      -36.9140   -1.7170   10.1860 C.ar  123  PHE123     -0.0003
     55  CZ       -38.0840   -0.9870   10.1620 C.ar  123  PHE123     -0.0000
     56  N        -33.5380   -5.7620   10.8860 N.3   125  ILE125     -0.1245
     57  CA       -32.2090   -5.4050   11.3320 C.3   125  ILE125      0.1561
     58  C        -31.7580   -6.5800   12.1850 C.2   125  ILE125      0.2260
     59  O        -32.5150   -7.0470   13.0280 O.2   125  ILE125     -0.2867
     60  CB       -32.2560   -4.1080   12.1630 C.3   125  ILE125      0.0252
     61  CG1      -32.8970   -2.9800   11.3270 C.3   125  ILE125      0.0019
     62  CG2      -30.8590   -3.7380   12.6270 C.3   125  ILE125      0.0019
     63  CD1      -33.2080   -1.7210   12.0910 C.3   125  ILE125      0.0001
     64  N        -28.5810   -8.6490   14.4030 N.3   127  PHE127     -0.1241
     65  CA       -27.3000   -8.6930   15.0950 C.3   127  PHE127      0.1605
     66  C        -27.0460  -10.1130   15.5610 C.2   127  PHE127      0.2264
     67  O        -27.9390  -10.7700   16.0890 O.2   127  PHE127     -0.2867
     68  CB       -27.2900   -7.7670   16.3220 C.3   127  PHE127      0.0534
     69  CG       -27.6820   -6.3550   16.0130 C.ar  127  PHE127     -0.0203
     70  CD1      -26.7280   -5.4210   15.6610 C.ar  127  PHE127     -0.0042
     71  CD2      -29.0110   -5.9670   16.0530 C.ar  127  PHE127     -0.0042
     72  CE1      -27.0870   -4.1210   15.3680 C.ar  127  PHE127     -0.0003
     73  CE2      -29.3780   -4.6720   15.7620 C.ar  127  PHE127     -0.0003
     74  CZ       -28.4150   -3.7480   15.4180 C.ar  127  PHE127     -0.0000
     75  N        -34.8280   -7.1450   14.9070 N.3   143  TYR143     -0.1241
     76  CA       -36.0780   -6.4120   14.8160 C.3   143  TYR143      0.1605
     77  C        -36.5960   -6.4800   13.3900 C.2   143  TYR143      0.2264
     78  O        -35.8690   -6.1770   12.4470 O.2   143  TYR143     -0.2867
     79  CB       -35.9250   -4.9440   15.2090 C.3   143  TYR143      0.0534
     80  CG       -37.2450   -4.2210   15.0950 C.ar  143  TYR143     -0.0201
     81  CD1      -37.4860   -3.3200   14.0660 C.ar  143  TYR143     -0.0009
     82  CD2      -38.2710   -4.4740   16.0010 C.ar  143  TYR143     -0.0009
     83  CE1      -38.7020   -2.6680   13.9590 C.ar  143  TYR143      0.0417
     84  CE2      -39.4890   -3.8340   15.8980 C.ar  143  TYR143      0.0417
     85  CZ       -39.7020   -2.9340   14.8740 C.ar  143  TYR143      0.1957
     86  OH       -40.9160   -2.2940   14.7730 O.3   143  TYR143     -0.2866
     87  N        -40.0950   -5.6130   10.7070 N.3   145  GLN145     -0.1245
     88  CA       -41.2980   -4.8060   10.5450 C.3   145  GLN145      0.1566
     89  C        -41.8920   -5.0120    9.1530 C.2   145  GLN145      0.2260
     90  O        -41.1960   -4.8820    8.1470 O.2   145  GLN145     -0.2867
     91  CB       -40.9810   -3.3240   10.7650 C.3   145  GLN145      0.0367
     92  CG       -42.1390   -2.3770   10.4500 C.3   145  GLN145      0.0905
     93  CD       -43.2340   -2.4250   11.4990 C.2   145  GLN145      0.2608
     94  OE1      -42.9760   -2.2430   12.6830 O.2   145  GLN145     -0.2717
     95  NE2      -44.4580   -2.6800   11.0690 N.am  145  GLN145     -0.0878
     96  N        -45.5620   -4.4380    6.4740 N.3   147  TYR147     -0.1241
     97  CA       -46.6620   -3.4990    6.2780 C.3   147  TYR147      0.1605
     98  C        -47.8180   -4.0810    5.4590 C.2   147  TYR147      0.2264
     99  O        -47.6080   -4.7800    4.4650 O.2   147  TYR147     -0.2867
    100  CB       -46.1530   -2.2000    5.6270 C.3   147  TYR147      0.0534
    101  CG       -45.0700   -1.5010    6.4230 C.ar  147  TYR147     -0.0201
    102  CD1      -45.3890   -0.5810    7.4160 C.ar  147  TYR147     -0.0009
    103  CD2      -43.7240   -1.7640    6.1820 C.ar  147  TYR147     -0.0009
    104  CE1      -44.4000    0.0530    8.1440 C.ar  147  TYR147      0.0417
    105  CE2      -42.7300   -1.1320    6.9080 C.ar  147  TYR147      0.0417
    106  CZ       -43.0710   -0.2250    7.8820 C.ar  147  TYR147      0.1957
    107  OH       -42.0780    0.4040    8.6060 O.3   147  TYR147     -0.2866
    108  N        -52.3060   -5.9560   11.3050 N.3   161  SER161     -0.1202
    109  CA       -51.9340   -4.7360   10.5990 C.3   161  SER161      0.2020
    110  C        -50.5080   -4.3120   10.9480 C.2   161  SER161      0.2618
    111  O        -50.1730   -4.1630   12.1270 O.2   161  SER161     -0.2717
    112  CB       -52.9110   -3.6090   10.9420 C.3   161  SER161      0.2103
    113  OG       -54.2290   -3.9600   10.5580 O.3   161  SER161     -0.2182
    114  N        -49.6770   -4.1200    9.9210 N.am  162  ASN162     -0.1974
    115  CA       -48.3240   -3.5910   10.0980 C.3   162  ASN162      0.1688
    116  C        -47.5880   -4.1950   11.2850 C.2   162  ASN162      0.2292
    117  O        -47.1600   -3.4570   12.1950 O.2   162  ASN162     -0.2864
    118  CB       -48.3740   -2.0710   10.2910 C.3   162  ASN162      0.1181
    119  CG       -49.0960   -1.3630    9.1710 C.2   162  ASN162      0.2629
    120  OD1      -48.9050   -1.6740    8.0000 O.2   162  ASN162     -0.2716
    121  ND2      -49.9340   -0.3970    9.5260 N.am  162  ASN162     -0.0877
@<TRIPOS>BOND
     1     1     2    1
     2    12    11   ar
     3     2     3    1
     4    11    13   ar
     5    11    10    1
     6    99    98    2
     7     3     5   am
     8     3     4    2
     9    10     9    1
    10     5     6    1
    11    41    40    2
    12    98    97    1
    13     9     6    1
    14   100    97    1
    15   100   101    1
    16    40    39    1
    17     8     7    2
    18   103   101   ar
    19   103   105   ar
    20     6     7    1
    21    97    96    1
    22    45    46    1
    23   101   102   ar
    24    46    49    1
    25    46    47    1
    26    49    50    1
    27     7    14   am
    28   105   106   ar
    29    43    42    1
    30   102   104   ar
    31    39    42    1
    32    39    38    1
    33    42    44    1
    34    38    34   am
    35    47    48    2
    36    51    50   ar
    37    51    53   ar
    38   106   104   ar
    39   106   107    1
    40    50    52   ar
    41   120   119    2
    42    90    89    2
    43    14    15    1
    44    36    37    1
    45    36    33    1
    46    33    34    1
    47    33    32    1
    48    34    35    2
    49    15    18    1
    50    15    16    1
    51    53    55   ar
    52    52    54   ar
    53    89    88    1
    54   119   121   am
    55   119   118    1
    56    29    28    2
    57    18    19    1
    58   114   115    1
    59   114   110   am
    60    16    17    2
    61    21    19   ar
    62    21    23   ar
    63   115   118    1
    64   115   116    1
    65    32    28   am
    66    55    54   ar
    67    28    27    1
    68    92    91    1
    69    92    93    1
    70    19    20   ar
    71    88    87    1
    72    88    91    1
    73   113   112    1
    74   109   112    1
    75   109   110    1
    76   109   108    1
    77    23    24   ar
    78    56    57    1
    79   110   111    2
    80    95    93   am
    81   116   117    2
    82    61    63    1
    83    61    60    1
    84    57    60    1
    85    57    58    1
    86    93    94    2
    87    31    30    1
    88    20    22   ar
    89    27    26    1
    90    27    30    1
    91    24    22   ar
    92    24    25    1
    93    60    62    1
    94    58    59    2
    95    78    77    2
    96    77    76    1
    97    83    81   ar
    98    83    85   ar
    99    81    80   ar
   100    64    65    1
   101    86    85    1
   102    76    75    1
   103    76    79    1
   104    85    84   ar
   105    65    66    1
   106    65    68    1
   107    80    79    1
   108    80    82   ar
   109    72    74   ar
   110    72    70   ar
   111    74    73   ar
   112    66    67    2
   113    70    69   ar
   114    73    71   ar
   115    84    82   ar
   116    69    71   ar
   117    69    68    1
