@<TRIPOS>MOLECULE
tmp/4e1tA06.pdb
 109 109 0 0 0
SMALL
GASTEIGER

@<TRIPOS>ATOM
      1  N         -3.7550   49.5890   -1.3250 N.3    65  GLY65      -0.1210
      2  CA        -4.9620   48.9880   -1.8630 C.3    65  GLY65       0.1956
      3  C         -5.0910   47.4740   -1.7740 C.2    65  GLY65       0.2611
      4  O         -6.1030   46.9240   -2.2230 O.2    65  GLY65      -0.2717
      5  N         -4.0760   46.8060   -1.2050 N.am   66  TRP66      -0.1976
      6  CA        -4.0710   45.3750   -1.0120 C.3    66  TRP66       0.1640
      7  C         -4.0250   45.0070    0.4830 C.2    66  TRP66       0.2290
      8  O         -3.6360   45.8220    1.3190 O.2    66  TRP66      -0.2864
      9  CB        -2.9360   44.7130   -1.8050 C.3    66  TRP66       0.0576
     10  CG        -3.2670   44.5560   -3.2900 C.ar   66  TRP66       0.0006
     11  CD1       -3.1910   45.5320   -4.2340 C.ar   66  TRP66       0.0946
     12  CD2       -3.7600   43.3850   -3.9710 C.ar   66  TRP66       0.0152
     13  NE1       -3.5880   45.0520   -5.4560 N.ar   66  TRP66      -0.2442
     14  CE2       -3.9440   43.7420   -5.3340 C.ar   66  TRP66       0.0810
     15  CE3       -4.0360   42.0650   -3.5730 C.ar   66  TRP66       0.0012
     16  CZ2       -4.3790   42.8250   -6.3250 C.ar   66  TRP66       0.0191
     17  CZ3       -4.4900   41.1370   -4.5500 C.ar   66  TRP66       0.0001
     18  CH2       -4.6500   41.5320   -5.9210 C.ar   66  TRP66       0.0015
     19  N         -7.9150   42.2570   -2.3840 N.3    93  THR93      -0.1203
     20  CA        -8.2290   43.6490   -2.6540 C.3    93  THR93       0.1994
     21  C         -9.7480   43.8470   -2.6740 C.2    93  THR93       0.2618
     22  O        -10.5310   42.9190   -2.4220 O.2    93  THR93      -0.2717
     23  CB        -7.5080   44.1380   -3.9410 C.3    93  THR93       0.1784
     24  OG1       -7.5330   45.5700   -4.0200 O.3    93  THR93      -0.2211
     25  CG2       -8.1510   43.5920   -5.1720 C.3    93  THR93       0.0376
     26  N        -10.1950   45.0430   -2.9860 N.am   94  ASP94      -0.1959
     27  CA       -11.6050   45.2980   -3.0930 C.3    94  ASP94       0.1840
     28  C        -12.2030   44.2710   -4.0750 C.2    94  ASP94       0.2622
     29  O        -11.6920   44.1240   -5.2060 O.2    94  ASP94      -0.2715
     30  CB       -11.8210   46.7140   -3.5970 C.3    94  ASP94       0.1450
     31  CG       -11.5920   47.7720   -2.5170 C.2    94  ASP94       0.3671
     32  OD1      -11.4330   48.9190   -2.8830 O.co2  94  ASP94      -0.2456
     33  OD2      -11.5390   47.4810   -1.3240 O.co2  94  ASP94      -0.2456
     34  N        -13.2280   43.5240   -3.6330 N.am   95  TYR95      -0.1960
     35  CA       -13.9290   42.5790   -4.5280 C.3    95  TYR95       0.1771
     36  C        -13.1650   41.3020   -4.8640 C.2    95  TYR95       0.2619
     37  O        -13.6520   40.4950   -5.6620 O.2    95  TYR95      -0.2715
     38  CB       -14.3210   43.2760   -5.8720 C.3    95  TYR95       0.0574
     39  CG       -15.0810   44.5750   -5.6720 C.ar   95  TYR95      -0.0198
     40  CD1      -16.4020   44.5440   -5.2380 C.ar   95  TYR95      -0.0009
     41  CD2      -14.4830   45.8200   -5.8990 C.ar   95  TYR95      -0.0009
     42  CE1      -17.1410   45.7000   -5.0640 C.ar   95  TYR95       0.0417
     43  CE2      -15.2340   47.0290   -5.7450 C.ar   95  TYR95       0.0417
     44  CZ       -16.5480   46.9370   -5.2900 C.ar   95  TYR95       0.1957
     45  OH       -17.3270   48.0170   -5.0510 O.3    95  TYR95      -0.2866
     46  N        -11.9580   41.1250   -4.3500 N.am   96  LEU96      -0.1977
     47  CA       -11.1730   39.9830   -4.8250 C.3    96  LEU96       0.1596
     48  C        -10.3720   39.4230   -3.7050 C.2    96  LEU96       0.2287
     49  O         -9.4620   40.1120   -3.2110 O.2    96  LEU96      -0.2864
     50  CB       -10.1760   40.4070   -5.8920 C.3    96  LEU96       0.0297
     51  CG        -9.7780   39.6040   -7.1360 C.3    96  LEU96       0.0022
     52  CD1       -8.3010   39.9460   -7.5830 C.3    96  LEU96       0.0001
     53  CD2      -10.0160   38.1190   -7.0730 C.3    96  LEU96       0.0001
     54  N        -14.4620   36.1590   -5.8670 N.3   132  ALA132     -0.1231
     55  CA       -14.6140   37.4560   -6.5360 C.3   132  ALA132      0.1694
     56  C        -16.0890   37.9010   -6.5500 C.2   132  ALA132      0.2592
     57  O        -16.9840   37.0560   -6.6550 O.2   132  ALA132     -0.2718
     58  CB       -14.0960   37.3520   -7.9550 C.3   132  ALA132      0.0304
     59  N        -16.3260   39.2240   -6.4740 N.am  133  TYR133     -0.1962
     60  CA       -17.6850   39.8040   -6.4770 C.3   133  TYR133      0.1771
     61  C        -17.7470   40.9000   -7.5430 C.2   133  TYR133      0.2619
     62  O        -16.7690   41.5670   -7.8060 O.2   133  TYR133     -0.2715
     63  CB       -18.1050   40.3360   -5.0630 C.3   133  TYR133      0.0574
     64  CG       -17.8570   39.2910   -4.0030 C.ar  133  TYR133     -0.0198
     65  CD1      -18.8450   38.3440   -3.6790 C.ar  133  TYR133     -0.0009
     66  CD2      -16.6000   39.1670   -3.4060 C.ar  133  TYR133     -0.0009
     67  CE1      -18.6070   37.3210   -2.7760 C.ar  133  TYR133      0.0417
     68  CE2      -16.3400   38.1480   -2.4860 C.ar  133  TYR133      0.0417
     69  CZ       -17.3620   37.2100   -2.1740 C.ar  133  TYR133      0.1957
     70  OH       -17.1210   36.1850   -1.2530 O.3   133  TYR133     -0.2866
     71  N        -18.9200   41.0960   -8.1130 N.am  134  LEU134     -0.1964
     72  CA       -19.0840   41.9880   -9.2370 C.3   134  LEU134      0.1713
     73  C        -19.2130   43.4160   -8.7180 C.2   134  LEU134      0.2458
     74  O        -20.1420   43.7130   -7.9990 O.2   134  LEU134     -0.2730
     75  CB       -20.3360   41.5610  -10.0060 C.3   134  LEU134      0.0310
     76  CG       -20.3060   41.5120  -11.5240 C.3   134  LEU134      0.0022
     77  CD1      -21.6680   41.0380  -12.0920 C.3   134  LEU134      0.0001
     78  CD2      -19.9770   42.8900  -12.0850 C.3   134  LEU134      0.0001
     79  N        -18.2600   44.3070   -9.0580 N.am  135  PRO135     -0.2727
     80  CA       -18.3920   45.6880   -8.6000 C.3   135  PRO135      0.1402
     81  C        -19.7000   46.3350   -9.0210 C.2   135  PRO135      0.2269
     82  O        -20.1950   47.1930   -8.3280 O.2   135  PRO135     -0.2865
     83  CB       -17.2320   46.4030   -9.3010 C.3   135  PRO135      0.0296
     84  CG       -16.1730   45.3670   -9.4310 C.3   135  PRO135      0.0237
     85  CD       -16.9130   44.0250   -9.6050 C.3   135  PRO135      0.0939
     86  N        -23.4640   39.5860   -6.1230 N.3   140  LEU140     -0.1231
     87  CA       -23.1220   38.4230   -6.9430 C.3   140  LEU140      0.1693
     88  C        -21.6660   38.0210   -6.8420 C.2   140  LEU140      0.2593
     89  O        -20.7580   38.8150   -7.1980 O.2   140  LEU140     -0.2718
     90  CB       -23.4550   38.6380   -8.4160 C.3   140  LEU140      0.0284
     91  CG       -23.2680   37.4590   -9.4220 C.3   140  LEU140      0.0019
     92  CD1      -24.0320   36.2060   -9.0320 C.3   140  LEU140      0.0001
     93  CD2      -23.7450   37.8650  -10.8250 C.3   140  LEU140      0.0001
     94  N        -21.4480   36.7890   -6.3620 N.am  141  GLY141     -0.1942
     95  CA       -20.0890   36.2760   -6.1420 C.3   141  GLY141      0.2014
     96  C        -19.7810   35.0080   -6.9340 C.2   141  GLY141      0.2639
     97  O        -20.6590   34.2130   -7.2640 O.2   141  GLY141     -0.2714
     98  N        -18.5190   34.8480   -7.2700 N.am  142  GLY142     -0.1954
     99  CA       -18.0240   33.6770   -7.9360 C.3   142  GLY142      0.1869
    100  C        -16.9480   33.0670   -7.0930 C.2   142  GLY142      0.2309
    101  O        -16.3500   33.7360   -6.2220 O.2   142  GLY142     -0.2863
    102  N        -21.0720   29.6430   -7.6010 N.3   173  ILE173     -0.1245
    103  CA       -21.7460   30.9440   -7.6650 C.3   173  ILE173      0.1561
    104  C        -22.4330   31.1550   -6.3450 C.2   173  ILE173      0.2260
    105  O        -22.8600   30.2050   -5.7280 O.2   173  ILE173     -0.2867
    106  CB       -22.8210   30.9680   -8.7710 C.3   173  ILE173      0.0252
    107  CG1      -22.2620   30.3900  -10.0310 C.3   173  ILE173      0.0019
    108  CG2      -23.2840   32.4240   -9.0970 C.3   173  ILE173      0.0019
    109  CD1      -21.5390   31.4030  -10.8970 C.3   173  ILE173      0.0001
@<TRIPOS>BOND
     1    77    76    1
     2    78    76    1
     3    76    75    1
     4   109   107    1
     5    93    91    1
     6   107   106    1
     7    75    72    1
     8    85    84    1
     9    85    79    1
    10    84    83    1
    11    91    92    1
    12    91    90    1
    13    83    80    1
    14    72    73    1
    15    72    71    1
    16   108   106    1
    17    79    73   am
    18    79    80    1
    19    81    80    1
    20    81    82    2
    21   106   103    1
    22    73    74    2
    23    90    87    1
    24    71    61   am
    25    58    55    1
    26    99    98    1
    27    99   100    1
    28    62    61    2
    29   103   102    1
    30   103   104    1
    31    52    51    1
    32    61    60    1
    33    98    96   am
    34    97    96    2
    35    89    88    2
    36    51    53    1
    37    51    50    1
    38   100   101    2
    39    87    88    1
    40    87    86    1
    41    96    95    1
    42    88    94   am
    43    57    56    2
    44    56    55    1
    45    56    59   am
    46    55    54    1
    47    60    59    1
    48    60    63    1
    49    94    95    1
    50   104   105    2
    51    16    18   ar
    52    16    14   ar
    53    18    17   ar
    54    41    43   ar
    55    41    39   ar
    56    50    47    1
    57    38    39    1
    58    38    35    1
    59    43    44   ar
    60    39    40   ar
    61    37    36    2
    62    13    14   ar
    63    13    11   ar
    64    14    12   ar
    65    44    42   ar
    66    44    45    1
    67    40    42   ar
    68    29    28    2
    69    25    23    1
    70    63    64    1
    71    36    35    1
    72    36    46   am
    73    47    46    1
    74    47    48    1
    75    17    15   ar
    76    35    34    1
    77    11    10   ar
    78    28    34   am
    79    28    27    1
    80    24    23    1
    81    64    65   ar
    82    64    66   ar
    83    12    15   ar
    84    12    10   ar
    85    23    20    1
    86    48    49    2
    87    65    67   ar
    88    30    27    1
    89    30    31    1
    90    66    68   ar
    91    10     9    1
    92    27    26    1
    93    26    21   am
    94    32    31   ar
    95    67    69   ar
    96    21    20    1
    97    21    22    2
    98    20    19    1
    99    31    33   ar
   100    68    69   ar
   101     4     3    2
   102    69    70    1
   103     2     3    1
   104     2     1    1
   105     9     6    1
   106     3     5   am
   107     5     6    1
   108     6     7    1
   109     7     8    2
