@<TRIPOS>MOLECULE
tmp/4e1tA02.pdb
 102 98 0 0 0
SMALL
GASTEIGER

@<TRIPOS>ATOM
      1  N        -15.8920   31.7630   14.4580 N.3    26  TRP26      -0.1241
      2  CA       -15.8450   33.1150   15.0430 C.3    26  TRP26       0.1605
      3  C        -14.4560   33.7640   14.9250 C.2    26  TRP26       0.2264
      4  O        -13.4850   33.2370   15.4140 O.2    26  TRP26      -0.2867
      5  CB       -16.3270   33.0690   16.4950 C.3    26  TRP26       0.0550
      6  CG       -15.9380   34.2230   17.3660 C.ar   26  TRP26       0.0003
      7  CD1      -16.1200   35.5780   17.1110 C.ar   26  TRP26       0.0946
      8  CD2      -15.3110   34.1420   18.6670 C.ar   26  TRP26       0.0152
      9  NE1      -15.6370   36.3350   18.1940 N.ar   26  TRP26      -0.2442
     10  CE2      -15.1350   35.4720   19.1440 C.ar   26  TRP26       0.0810
     11  CE3      -14.8780   33.0750   19.4720 C.ar   26  TRP26       0.0012
     12  CZ2      -14.5350   35.7420   20.3800 C.ar   26  TRP26       0.0191
     13  CZ3      -14.2860   33.3480   20.6980 C.ar   26  TRP26       0.0001
     14  CH2      -14.1180   34.6690   21.1390 C.ar   26  TRP26       0.0015
     15  N        -11.9090   30.5880   15.8760 N.3    42  LEU42      -0.1245
     16  CA       -12.2900   29.3540   16.5710 C.3    42  LEU42       0.1561
     17  C        -13.4630   28.7700   15.8190 C.2    42  LEU42       0.2260
     18  O        -14.4320   29.4860   15.4850 O.2    42  LEU42      -0.2867
     19  CB       -12.7310   29.6650   18.0000 C.3    42  LEU42       0.0270
     20  CG       -13.0530   28.6150   19.0940 C.3    42  LEU42       0.0019
     21  CD1      -13.0270   29.2830   20.4260 C.3    42  LEU42       0.0001
     22  CD2      -14.4000   27.9640   18.9670 C.3    42  LEU42       0.0001
     23  N        -12.8550   20.6060   16.0190 N.3    53  LEU53      -0.1245
     24  CA       -12.6200   21.9010   16.6170 C.3    53  LEU53       0.1561
     25  C        -11.4540   22.4690   15.8210 C.2    53  LEU53       0.2260
     26  O        -10.4710   21.7480   15.5780 O.2    53  LEU53      -0.2867
     27  CB       -12.1040   21.6900   18.0260 C.3    53  LEU53       0.0270
     28  CG       -12.4040   22.6320   19.1980 C.3    53  LEU53       0.0019
     29  CD1      -11.1780   22.8510   20.0510 C.3    53  LEU53       0.0001
     30  CD2      -13.0330   23.9260   18.8300 C.3    53  LEU53       0.0001
     31  N         -8.8120   25.8330   15.8010 N.3    55  LEU55      -0.1245
     32  CA        -8.3040   26.9430   16.6100 C.3    55  LEU55       0.1561
     33  C         -7.1620   27.6080   15.8210 C.2    55  LEU55       0.2260
     34  O         -6.1850   26.9590   15.5480 O.2    55  LEU55      -0.2867
     35  CB        -7.7140   26.4000   17.9120 C.3    55  LEU55       0.0270
     36  CG        -8.5960   25.6350   18.9110 C.3    55  LEU55       0.0019
     37  CD1       -7.7540   24.8350   19.8880 C.3    55  LEU55       0.0001
     38  CD2       -9.4510   26.5730   19.7030 C.3    55  LEU55       0.0001
     39  N         -4.5850   24.8610   14.3130 N.3    74  TYR74      -0.1241
     40  CA        -4.5950   23.5180   14.8180 C.3    74  TYR74       0.1605
     41  C         -6.0230   22.9780   14.5890 C.2    74  TYR74       0.2264
     42  O         -6.9850   23.5080   15.1430 O.2    74  TYR74      -0.2867
     43  CB        -4.2870   23.5870   16.3210 C.3    74  TYR74       0.0534
     44  CG        -4.4860   22.2730   17.0280 C.ar   74  TYR74      -0.0201
     45  CD1       -4.1210   21.0840   16.3980 C.ar   74  TYR74      -0.0009
     46  CD2       -5.0390   22.2140   18.3220 C.ar   74  TYR74      -0.0009
     47  CE1       -4.3080   19.8660   16.9930 C.ar   74  TYR74       0.0417
     48  CE2       -5.2150   20.9680   18.9600 C.ar   74  TYR74       0.0417
     49  CZ        -4.8460   19.7870   18.2590 C.ar   74  TYR74       0.1957
     50  OH        -4.9700   18.5150   18.8040 O.3    74  TYR74      -0.2866
     51  N         -8.6280   19.6530   14.9360 N.3    76  ASN76      -0.1225
     52  CA        -8.7650   18.5070   15.8640 C.3    76  ASN76       0.1785
     53  C        -10.1020   17.8200   15.6700 C.2    76  ASN76       0.2597
     54  O        -11.0970   18.2700   16.1720 O.2    76  ASN76      -0.2718
     55  CB        -8.6640   18.9640   17.3180 C.3    76  ASN76       0.1169
     56  CG        -8.7020   17.7730   18.3290 C.2    76  ASN76       0.2627
     57  OD1       -9.0670   16.6010   17.9910 O.2    76  ASN76      -0.2716
     58  ND2       -8.3590   18.0830   19.5820 N.am   76  ASN76      -0.0877
     59  N        -10.0950   16.7260   14.9090 N.am   77  ASP77      -0.1960
     60  CA       -11.2350   15.8480   14.7770 C.3    77  ASP77       0.1840
     61  C        -11.3540   15.1200   16.0830 C.2    77  ASP77       0.2621
     62  O        -10.5780   14.2140   16.3260 O.2    77  ASP77      -0.2715
     63  CB       -10.9880   14.8780   13.6310 C.3    77  ASP77       0.1450
     64  CG       -11.8760   13.6440   13.6860 C.2    77  ASP77       0.3671
     65  OD1      -12.8230   13.5380   14.4870 O.co2  77  ASP77      -0.2456
     66  OD2      -11.5990   12.7470   12.9120 O.co2  77  ASP77      -0.2456
     67  N        -12.2980   15.5530   16.9300 N.am   78  LEU78      -0.1977
     68  CA       -12.5040   15.0030   18.2910 C.3    78  LEU78       0.1596
     69  C        -13.0480   13.5810   18.2500 C.2    78  LEU78       0.2287
     70  O        -12.9480   12.8620   19.2430 O.2    78  LEU78      -0.2864
     71  CB       -13.5080   15.8670   19.0830 C.3    78  LEU78       0.0297
     72  CG       -13.2140   17.3840   19.0270 C.3    78  LEU78       0.0022
     73  CD1      -14.4540   18.2490   19.3180 C.3    78  LEU78       0.0001
     74  CD2      -12.0300   17.7380   19.9650 C.3    78  LEU78       0.0001
     75  N        -10.0700   11.2830   16.7150 N.3    81  HIS81      -0.1241
     76  CA        -8.7560   11.7190   17.2460 C.3    81  HIS81       0.1621
     77  C         -7.7020   11.9660   16.1290 C.2    81  HIS81       0.2264
     78  O         -6.6240   11.3600   16.0960 O.2    81  HIS81      -0.2867
     79  CB        -8.2630   10.7340   18.3210 C.3    81  HIS81       0.0745
     80  CG        -9.2780   10.4610   19.4030 C.ar   81  HIS81       0.0817
     81  ND1       -9.3020   11.1510   20.5940 N.ar   81  HIS81      -0.2268
     82  CD2      -10.3140    9.5880   19.4570 C.ar   81  HIS81       0.1154
     83  CE1      -10.3030   10.7160   21.3380 C.ar   81  HIS81       0.1986
     84  NE2      -10.9380    9.7670   20.6700 N.ar   81  HIS81      -0.2212
     85  N         -5.2930   14.7720   14.1810 N.3    83  HIS83      -0.1241
     86  CA        -4.7020   16.0820   14.4650 C.3    83  HIS83       0.1621
     87  C         -3.9450   16.6350   13.2750 C.2    83  HIS83       0.2264
     88  O         -3.1050   15.9440   12.6460 O.2    83  HIS83      -0.2867
     89  CB        -3.7770   16.0080   15.6700 C.3    83  HIS83       0.0745
     90  CG        -4.4330   15.4170   16.8870 C.ar   83  HIS83       0.0817
     91  ND1       -3.9020   14.3460   17.5820 N.ar   83  HIS83      -0.2268
     92  CD2       -5.5970   15.7150   17.4950 C.ar   83  HIS83       0.1154
     93  CE1       -4.6920   14.0390   18.5890 C.ar   83  HIS83       0.1986
     94  NE2       -5.7320   14.8490   18.5520 N.ar   83  HIS83      -0.2212
     95  N         -0.5700   13.4400   13.5700 N.3   107  ASN107     -0.1240
     96  CA        -0.5680   12.0840   14.0810 C.3   107  ASN107      0.1653
     97  C         -0.5610   11.0510   12.9710 C.2   107  ASN107      0.2266
     98  O         -0.7970   11.3880   11.7930 O.2   107  ASN107     -0.2867
     99  CB        -1.6980   11.8820   15.1170 C.3   107  ASN107      0.1155
    100  CG        -3.0810   11.8680   14.4930 C.2   107  ASN107      0.2627
    101  OD1       -3.4700   12.7660   13.7460 O.2   107  ASN107     -0.2716
    102  ND2       -3.8430   10.8160   14.8060 N.am  107  ASN107     -0.0877
@<TRIPOS>BOND
     1    98    97    2
     2    88    87    2
     3    66    64   ar
     4    97    96    1
     5    87    86    1
     6    95    96    1
     7    63    64    1
     8    63    60    1
     9    64    65   ar
    10   101   100    2
    11    96    99    1
    12    85    86    1
    13    39    40    1
    14     1     2    1
    15    86    89    1
    16   100   102   am
    17   100    99    1
    18    41    40    1
    19    41    42    2
    20    60    59    1
    21    60    61    1
    22    40    43    1
    23    59    53   am
    24     3     2    1
    25     3     4    2
    26    51    52    1
    27     2     5    1
    28    18    17    2
    29    34    33    2
    30    26    25    2
    31    89    90    1
    32    53    52    1
    33    53    54    2
    34    31    32    1
    35    17    16    1
    36    25    24    1
    37    33    32    1
    38    52    55    1
    39    15    16    1
    40    23    24    1
    41    61    62    2
    42    61    67   am
    43    78    77    2
    44    77    76    1
    45    43    44    1
    46    45    47   ar
    47    45    44   ar
    48     5     6    1
    49    16    19    1
    50    32    35    1
    51    24    27    1
    52    75    76    1
    53    90    92   ar
    54    90    91   ar
    55    67    68    1
    56    47    49   ar
    57    44    46   ar
    58     7     6   ar
    59     7     9   ar
    60    76    79    1
    61    55    56    1
    62     6     8   ar
    63    92    94   ar
    64    91    93   ar
    65    35    36    1
    66    57    56    2
    67    19    20    1
    68    27    28    1
    69     9    10   ar
    70    69    68    1
    71    69    70    2
    72    49    50    1
    73    49    48   ar
    74    68    71    1
    75    79    80    1
    76    46    48   ar
    77    56    58   am
    78    94    93   ar
    79     8    10   ar
    80     8    11   ar
    81    30    28    1
    82    36    38    1
    83    36    37    1
    84    22    20    1
    85    72    71    1
    86    72    73    1
    87    72    74    1
    88    20    21    1
    89    10    12   ar
    90    28    29    1
    91    80    82   ar
    92    80    81   ar
    93    82    84   ar
    94    11    13   ar
    95    12    14   ar
    96    81    83   ar
    97    84    83   ar
    98    13    14   ar
