@<TRIPOS>MOLECULE
tmp/4e1tA09.pdb
 104 105 0 0 0
SMALL
GASTEIGER

@<TRIPOS>ATOM
      1  N        -16.1450   44.3900   16.1320 N.3     4  PHE4       -0.1241
      2  CA       -15.5190   43.4580   17.1150 C.3     4  PHE4        0.1605
      3  C        -15.5050   41.9940   16.6520 C.2     4  PHE4        0.2264
      4  O        -15.4460   41.0780   17.4770 O.2     4  PHE4       -0.2867
      5  CB       -16.1660   43.5430   18.4850 C.3     4  PHE4        0.0534
      6  CG       -16.4120   44.9620   18.9830 C.ar    4  PHE4       -0.0203
      7  CD1      -17.6250   45.5980   18.7560 C.ar    4  PHE4       -0.0042
      8  CD2      -15.4320   45.6420   19.7020 C.ar    4  PHE4       -0.0042
      9  CE1      -17.8470   46.8840   19.2120 C.ar    4  PHE4       -0.0003
     10  CE2      -15.6610   46.9270   20.1580 C.ar    4  PHE4       -0.0003
     11  CZ       -16.8600   47.5460   19.9050 C.ar    4  PHE4       -0.0000
     12  N        -15.8920   31.7630   14.4580 N.3    26  TRP26      -0.1241
     13  CA       -15.8450   33.1150   15.0430 C.3    26  TRP26       0.1605
     14  C        -14.4560   33.7640   14.9250 C.2    26  TRP26       0.2264
     15  O        -13.4850   33.2370   15.4140 O.2    26  TRP26      -0.2867
     16  CB       -16.3270   33.0690   16.4950 C.3    26  TRP26       0.0550
     17  CG       -15.9380   34.2230   17.3660 C.ar   26  TRP26       0.0003
     18  CD1      -16.1200   35.5780   17.1110 C.ar   26  TRP26       0.0946
     19  CD2      -15.3110   34.1420   18.6670 C.ar   26  TRP26       0.0152
     20  NE1      -15.6370   36.3350   18.1940 N.ar   26  TRP26      -0.2442
     21  CE2      -15.1350   35.4720   19.1440 C.ar   26  TRP26       0.0810
     22  CE3      -14.8780   33.0750   19.4720 C.ar   26  TRP26       0.0012
     23  CZ2      -14.5350   35.7420   20.3800 C.ar   26  TRP26       0.0191
     24  CZ3      -14.2860   33.3480   20.6980 C.ar   26  TRP26       0.0001
     25  CH2      -14.1180   34.6690   21.1390 C.ar   26  TRP26       0.0015
     26  N        -12.0090   36.8780   15.9830 N.3    28  ALA28      -0.1231
     27  CA       -11.9880   38.0000   16.9590 C.3    28  ALA28       0.1679
     28  C        -10.7160   38.7840   16.7650 C.2    28  ALA28       0.2434
     29  O         -9.6410   38.2190   16.8240 O.2    28  ALA28      -0.2733
     30  CB       -12.0690   37.4950   18.3950 C.3    28  ALA28       0.0304
     31  N        -10.8300   40.0850   16.5160 N.am   29  PRO29      -0.2718
     32  CA        -9.6320   40.9400   16.4450 C.3    29  PRO29       0.1535
     33  C         -9.0780   41.2460   17.8350 C.2    29  PRO29       0.2598
     34  O         -9.8070   41.6970   18.6960 O.2    29  PRO29      -0.2715
     35  CB       -10.1420   42.2100   15.7640 C.3    29  PRO29       0.0310
     36  CG       -11.6300   42.1970   15.9030 C.3    29  PRO29       0.0237
     37  CD       -12.0520   40.7660   16.0260 C.3    29  PRO29       0.0939
     38  N         -7.8050   40.9340   18.0840 N.am   30  TRP30      -0.1974
     39  CA        -7.2050   41.2470   19.4050 C.3    30  TRP30       0.1640
     40  C         -6.4970   42.5970   19.3770 C.2    30  TRP30       0.2290
     41  O         -6.3560   43.2680   20.4010 O.2    30  TRP30      -0.2864
     42  CB        -6.1490   40.2210   19.7580 C.3    30  TRP30       0.0576
     43  CG        -6.5850   38.8370   19.9330 C.ar   30  TRP30       0.0006
     44  CD1       -7.7590   38.2570   19.4870 C.ar   30  TRP30       0.0946
     45  CD2       -5.8560   37.8050   20.6300 C.ar   30  TRP30       0.0152
     46  NE1       -7.7850   36.9320   19.8540 N.ar   30  TRP30      -0.2442
     47  CE2       -6.6300   36.6190   20.5430 C.ar   30  TRP30       0.0810
     48  CE3       -4.6090   37.7630   21.2990 C.ar   30  TRP30       0.0012
     49  CZ2       -6.2070   35.3840   21.1340 C.ar   30  TRP30       0.0191
     50  CZ3       -4.1790   36.5240   21.8810 C.ar   30  TRP30       0.0001
     51  CH2       -4.9870   35.3560   21.7750 C.ar   30  TRP30       0.0015
     52  N         -4.3200   41.7230   14.2330 N.3    38  PHE38      -0.1241
     53  CA        -4.0360   40.3850   14.7440 C.3    38  PHE38       0.1605
     54  C         -5.3300   39.7480   15.2300 C.2    38  PHE38       0.2264
     55  O         -6.0600   40.3580   15.9680 O.2    38  PHE38      -0.2867
     56  CB        -2.9950   40.3890   15.8580 C.3    38  PHE38       0.0534
     57  CG        -2.8000   39.0510   16.4520 C.ar   38  PHE38      -0.0203
     58  CD1       -1.8050   38.1990   15.9850 C.ar   38  PHE38      -0.0042
     59  CD2       -3.6410   38.5870   17.4430 C.ar   38  PHE38      -0.0042
     60  CE1       -1.6450   36.9100   16.5310 C.ar   38  PHE38      -0.0003
     61  CE2       -3.4770   37.3380   17.9770 C.ar   38  PHE38      -0.0003
     62  CZ        -2.4690   36.5030   17.5220 C.ar   38  PHE38      -0.0000
     63  N         -7.8330   36.0190   16.2680 N.3    40  SER40      -0.1202
     64  CA        -8.0360   34.5950   16.5340 C.3    40  SER40       0.2020
     65  C         -9.2740   34.1120   15.8070 C.2    40  SER40       0.2619
     66  O        -10.2210   34.8700   15.5970 O.2    40  SER40      -0.2717
     67  CB        -8.1210   34.3060   18.0440 C.3    40  SER40       0.2103
     68  OG        -9.3460   34.6940   18.6270 O.3    40  SER40      -0.2182
     69  N         -9.2630   32.8590   15.3740 N.am   41  GLN41      -0.1965
     70  CA       -10.4580   32.2290   14.7650 C.3    41  GLN41       0.1733
     71  C        -10.6650   30.8840   15.4920 C.2    41  GLN41       0.2616
     72  O         -9.6990   30.1400   15.7180 O.2    41  GLN41      -0.2715
     73  CB       -10.2330   31.9980   13.2510 C.3    41  GLN41       0.0408
     74  CG       -11.4600   31.3870   12.5170 C.3    41  GLN41       0.0908
     75  CD       -11.4430   31.6230   11.0400 C.2    41  GLN41       0.2608
     76  OE1      -11.1420   32.6950   10.6070 O.2    41  GLN41      -0.2717
     77  NE2      -11.7510   30.6110   10.2610 N.am   41  GLN41      -0.0878
     78  N        -11.9090   30.5880   15.8760 N.am   42  LEU42      -0.1977
     79  CA       -12.2900   29.3540   16.5710 C.3    42  LEU42       0.1596
     80  C        -13.4630   28.7700   15.8190 C.2    42  LEU42       0.2287
     81  O        -14.4320   29.4860   15.4850 O.2    42  LEU42      -0.2864
     82  CB       -12.7310   29.6650   18.0000 C.3    42  LEU42       0.0297
     83  CG       -13.0530   28.6150   19.0940 C.3    42  LEU42       0.0022
     84  CD1      -13.0270   29.2830   20.4260 C.3    42  LEU42       0.0001
     85  CD2      -14.4000   27.9640   18.9670 C.3    42  LEU42       0.0001
     86  N         -8.8120   25.8330   15.8010 N.3    55  LEU55      -0.1231
     87  CA        -8.3040   26.9430   16.6100 C.3    55  LEU55       0.1693
     88  C         -7.1620   27.6080   15.8210 C.2    55  LEU55       0.2593
     89  O         -6.1850   26.9590   15.5480 O.2    55  LEU55      -0.2718
     90  CB        -7.7140   26.4000   17.9120 C.3    55  LEU55       0.0284
     91  CG        -8.5960   25.6350   18.9110 C.3    55  LEU55       0.0019
     92  CD1       -7.7540   24.8350   19.8880 C.3    55  LEU55       0.0001
     93  CD2       -9.4510   26.5730   19.7030 C.3    55  LEU55       0.0001
     94  N         -7.2540   28.8880   15.4830 N.am   56  GLY56      -0.1942
     95  CA        -6.2170   29.5100   14.6300 C.3    56  GLY56       0.2014
     96  C         -5.9460   30.9470   15.0440 C.2    56  GLY56       0.2638
     97  O         -6.7890   31.5630   15.7240 O.2    56  GLY56      -0.2714
     98  N         -4.7540   31.4420   14.6780 N.am   57  VAL57      -0.1977
     99  CA        -4.4100   32.8220   14.7520 C.3    57  VAL57       0.1596
    100  C         -3.9450   33.2580   13.3800 C.2    57  VAL57       0.2287
    101  O         -3.5690   32.4130   12.5730 O.2    57  VAL57      -0.2864
    102  CB        -3.3010   33.1110   15.7880 C.3    57  VAL57       0.0276
    103  CG1       -3.9020   33.1400   17.1870 C.3    57  VAL57       0.0022
    104  CG2       -2.1850   32.0550   15.6900 C.3    57  VAL57       0.0022
@<TRIPOS>BOND
     1    77    75   am
     2    76    75    2
     3    75    74    1
     4    74    73    1
     5   101   100    2
     6    73    70    1
     7   100    99    1
     8    52    53    1
     9    12    13    1
    10    95    96    1
    11    95    94    1
    12    98    99    1
    13    98    96   am
    14    53    54    1
    15    53    56    1
    16    99   102    1
    17    70    69    1
    18    70    71    1
    19    14    13    1
    20    14    15    2
    21    13    16    1
    22    96    97    2
    23    54    55    2
    24    69    65   am
    25    94    88   am
    26    81    80    2
    27    71    72    2
    28    71    78   am
    29    89    88    2
    30    66    65    2
    31   104   102    1
    32    35    36    1
    33    35    32    1
    34   102   103    1
    35    86    87    1
    36    65    64    1
    37    80    79    1
    38    88    87    1
    39    56    57    1
    40    78    79    1
    41    36    37    1
    42    26    27    1
    43    58    57   ar
    44    58    60   ar
    45    37    31    1
    46     1     2    1
    47    63    64    1
    48    32    31    1
    49    32    33    1
    50    57    59   ar
    51    16    17    1
    52    31    28   am
    53    60    62   ar
    54    64    67    1
    55    79    82    1
    56    87    90    1
    57     3     2    1
    58     3     4    2
    59    28    29    2
    60    28    27    1
    61    27    30    1
    62    18    17   ar
    63    18    20   ar
    64     2     5    1
    65    17    19   ar
    66    59    61   ar
    67    62    61   ar
    68    33    38   am
    69    33    34    2
    70    90    91    1
    71    82    83    1
    72    67    68    1
    73    38    39    1
    74    20    21   ar
    75     5     6    1
    76    19    21   ar
    77    19    22   ar
    78     7     6   ar
    79     7     9   ar
    80    91    93    1
    81    91    92    1
    82    85    83    1
    83     6     8   ar
    84    83    84    1
    85    21    23   ar
    86     9    11   ar
    87    40    39    1
    88    40    41    2
    89    39    42    1
    90    22    24   ar
    91    44    46   ar
    92    44    43   ar
    93     8    10   ar
    94    42    43    1
    95    46    47   ar
    96    11    10   ar
    97    43    45   ar
    98    23    25   ar
    99    47    45   ar
   100    47    49   ar
   101    45    48   ar
   102    24    25   ar
   103    49    51   ar
   104    48    50   ar
   105    51    50   ar
