@<TRIPOS>MOLECULE
tmp/4e1tA10.pdb
 110 104 0 0 0
SMALL
GASTEIGER

@<TRIPOS>ATOM
      1  N        -22.3210   31.1690   10.5380 N.3     9  VAL9       -0.1245
      2  CA       -22.9300   29.8350   10.4340 C.3     9  VAL9        0.1561
      3  C        -22.9460   29.2650    9.0200 C.2     9  VAL9        0.2260
      4  O        -23.2510   29.9670    8.0570 O.2     9  VAL9       -0.2867
      5  CB       -24.3110   29.8390   11.0390 C.3     9  VAL9        0.0252
      6  CG1      -25.0760   28.5310   10.7350 C.3     9  VAL9        0.0019
      7  CG2      -24.1270   30.0230   12.5210 C.3     9  VAL9        0.0019
      8  N        -24.3670   25.9110    6.7170 N.3    11  LEU11      -0.1245
      9  CA       -25.0940   24.6730    6.4890 C.3    11  LEU11       0.1561
     10  C        -24.8970   24.2030    5.0310 C.2    11  LEU11       0.2260
     11  O        -25.2730   24.8950    4.0950 O.2    11  LEU11      -0.2867
     12  CB       -26.5690   24.8810    6.8100 C.3    11  LEU11       0.0270
     13  CG       -26.9430   25.2520    8.2680 C.3    11  LEU11       0.0019
     14  CD1      -28.4100   25.6550    8.3250 C.3    11  LEU11       0.0001
     15  CD2      -26.6580   24.1660    9.3190 C.3    11  LEU11       0.0001
     16  N        -28.7370   17.3360    4.4010 N.3    19  LEU19      -0.1231
     17  CA       -27.8000   18.1910    5.0780 C.3    19  LEU19       0.1693
     18  C        -26.5360   17.3980    5.4570 C.2    19  LEU19       0.2592
     19  O        -26.6200   16.3310    6.0580 O.2    19  LEU19      -0.2718
     20  CB       -28.5000   18.8420    6.2670 C.3    19  LEU19       0.0284
     21  CG       -27.9120   19.7680    7.3360 C.3    19  LEU19       0.0019
     22  CD1      -27.7270   19.0530    8.6970 C.3    19  LEU19       0.0001
     23  CD2      -26.6820   20.5980    6.9140 C.3    19  LEU19       0.0001
     24  N        -25.3890   17.8880    5.0240 N.am   20  LYS20      -0.1966
     25  CA       -24.1430   17.1670    5.1470 C.3    20  LYS20       0.1728
     26  C        -23.2290   17.7350    6.2020 C.2    20  LYS20       0.2616
     27  O        -22.4860   17.0220    6.7940 O.2    20  LYS20      -0.2715
     28  CB       -23.4070   17.1430    3.8170 C.3    20  LYS20       0.0311
     29  CG       -22.2360   16.1260    3.8820 C.3    20  LYS20       0.0038
     30  CD       -21.6340   15.8310    2.5560 C.3    20  LYS20       0.0206
     31  CE       -20.9200   17.0650    2.0450 C.3    20  LYS20       0.1093
     32  NZ       -20.4950   16.8600    0.6700 N.3    20  LYS20      -0.1314
     33  N        -23.2930   19.0270    6.4320 N.am   21  GLU21      -0.1963
     34  CA       -22.4000   19.6740    7.3760 C.3    21  GLU21       0.1733
     35  C        -23.0140   20.9150    8.0090 C.2    21  GLU21       0.2617
     36  O        -23.6550   21.7420    7.3180 O.2    21  GLU21      -0.2715
     37  CB       -21.0900   20.0280    6.6700 C.3    21  GLU21       0.0429
     38  CG       -20.0260   20.5210    7.6010 C.3    21  GLU21       0.1163
     39  CD       -18.7620   21.0220    6.8920 C.2    21  GLU21       0.3649
     40  OE1      -18.7600   21.1010    5.6280 O.co2  21  GLU21      -0.2457
     41  OE2      -17.7790   21.3460    7.6210 O.co2  21  GLU21      -0.2457
     42  N        -22.7750   21.0770    9.3080 N.am   22  SER22      -0.1936
     43  CA       -23.1230   22.3260    9.9410 C.3    22  SER22       0.2055
     44  C        -21.9210   22.8820   10.6920 C.2    22  SER22       0.2644
     45  O        -21.1630   22.1140   11.3110 O.2    22  SER22      -0.2714
     46  CB       -24.3240   22.1580   10.8610 C.3    22  SER22       0.2130
     47  OG       -24.0730   21.1890   11.8690 O.3    22  SER22      -0.2179
     48  N        -21.7220   24.2060   10.6280 N.am   23  SER23      -0.1935
     49  CA       -20.5720   24.8130   11.3230 C.3    23  SER23       0.2055
     50  C        -20.8480   26.1740   11.9490 C.2    23  SER23       0.2642
     51  O        -21.7880   26.8790   11.5560 O.2    23  SER23      -0.2714
     52  CB       -19.3540   24.9010   10.4060 C.3    23  SER23       0.2130
     53  OG       -19.6490   25.7020    9.2730 O.3    23  SER23      -0.2179
     54  N        -20.0070   26.5190   12.9190 N.am   24  LEU24      -0.1977
     55  CA       -19.9780   27.8480   13.4900 C.3    24  LEU24       0.1596
     56  C        -18.5300   28.2920   13.6590 C.2    24  LEU24       0.2287
     57  O        -17.7270   27.6380   14.3210 O.2    24  LEU24      -0.2864
     58  CB       -20.7440   27.8670   14.8120 C.3    24  LEU24       0.0297
     59  CG       -20.8490   29.1040   15.7390 C.3    24  LEU24       0.0022
     60  CD1      -19.5310   29.3340   16.3160 C.3    24  LEU24       0.0001
     61  CD2      -21.2740   30.3660   15.0270 C.3    24  LEU24       0.0001
     62  N        -16.1620   25.1660   15.0520 N.3    44  ILE44      -0.1231
     63  CA       -16.6450   23.8520   15.3750 C.3    44  ILE44       0.1692
     64  C        -17.6090   23.3660   14.2930 C.2    44  ILE44       0.2592
     65  O        -18.3640   24.1380   13.7410 O.2    44  ILE44      -0.2718
     66  CB       -17.3700   23.8530   16.7170 C.3    44  ILE44       0.0266
     67  CG1      -18.5780   24.7880   16.6590 C.3    44  ILE44       0.0019
     68  CG2      -16.4310   24.3130   17.8370 C.3    44  ILE44       0.0020
     69  CD1      -19.4720   24.6420   17.8890 C.3    44  ILE44       0.0001
     70  N        -17.5940   22.0690   14.0160 N.am   45  ARG45      -0.1966
     71  CA       -18.3590   21.5520   12.9260 C.3    45  ARG45       0.1729
     72  C        -18.6790   20.0830   13.0930 C.2    45  ARG45       0.2616
     73  O        -17.9600   19.3140   13.7570 O.2    45  ARG45      -0.2715
     74  CB       -17.6460   21.8260   11.5830 C.3    45  ARG45       0.0348
     75  CG       -16.3370   21.0910   11.3330 C.3    45  ARG45       0.0492
     76  CD       -15.4850   21.9330   10.4010 C.3    45  ARG45       0.2205
     77  NE       -15.0260   23.1000   11.1510 N.pl3  45  ARG45      -0.0865
     78  CZ       -15.3870   24.3520   10.9220 C.cat  45  ARG45       0.5346
     79  NH1      -16.2060   24.6400    9.9080 N.pl3  45  ARG45       0.1354
     80  NH2      -14.8970   25.3110   11.7210 N.pl3  45  ARG45       0.1354
     81  N        -19.7850   19.6950   12.4830 N.am   46  ASN46      -0.1972
     82  CA       -20.1770   18.2980   12.4580 C.3    46  ASN46       0.1688
     83  C        -20.3330   17.8480   10.9960 C.2    46  ASN46       0.2292
     84  O        -20.9730   18.5540   10.1710 O.2    46  ASN46      -0.2864
     85  CB       -21.4500   18.1070   13.2760 C.3    46  ASN46       0.1181
     86  CG       -21.9660   16.6640   13.2400 C.2    46  ASN46       0.2629
     87  OD1      -22.5260   16.2490   12.2650 O.2    46  ASN46      -0.2716
     88  ND2      -21.7770   15.9160   14.3230 N.am   46  ASN46      -0.0877
     89  N        -20.1530   13.8710    8.5960 N.3    48  ASP48      -0.1225
     90  CA       -20.0100   12.4000    8.5640 C.3    48  ASP48       0.1805
     91  C        -19.8300   11.8580    9.9830 C.2    48  ASP48       0.2598
     92  O        -18.8510   11.1500   10.2320 O.2    48  ASP48      -0.2718
     93  CB       -18.8030   11.8910    7.6900 C.3    48  ASP48       0.1424
     94  CG       -18.6160   12.6580    6.3410 C.2    48  ASP48       0.3668
     95  OD1      -19.4150   12.4340    5.3830 O.co2  48  ASP48      -0.2456
     96  OD2      -17.6290   13.4370    6.2200 O.co2  48  ASP48      -0.2456
     97  N        -20.7530   12.1890   10.8930 N.am   49  SER49      -0.1952
     98  CA       -20.6950   11.6920   12.2820 C.3    49  SER49       0.1924
     99  C        -19.3710   12.0180   13.0320 C.2    49  SER49       0.2314
    100  O        -18.9310   11.2530   13.9000 O.2    49  SER49      -0.2863
    101  CB       -20.9420   10.1770   12.3270 C.3    49  SER49       0.2116
    102  OG       -22.1440    9.7930   11.6220 O.3    49  SER49      -0.2180
    103  N        -17.0940   15.3320   14.8980 N.3    51  ASN51      -0.1240
    104  CA       -17.0200   16.7410   15.3160 C.3    51  ASN51       0.1653
    105  C        -15.5890   17.2140   15.3970 C.2    51  ASN51       0.2266
    106  O        -14.7420   16.5740   16.0460 O.2    51  ASN51      -0.2867
    107  CB       -17.6970   16.9780   16.6610 C.3    51  ASN51       0.1155
    108  CG       -19.0960   16.3670   16.7540 C.2    51  ASN51       0.2627
    109  OD1      -20.0650   16.9050   16.1860 O.2    51  ASN51      -0.2716
    110  ND2      -19.2220   15.2720   17.5270 N.am   51  ASN51      -0.0877
@<TRIPOS>BOND
     1    32    31    1
     2    31    30    1
     3    30    29    1
     4    28    29    1
     5    28    25    1
     6    11    10    2
     7    16    17    1
     8    24    25    1
     9    24    18   am
    10    10     9    1
    11    17    18    1
    12    17    20    1
    13    25    26    1
    14    95    94   ar
    15    18    19    2
    16    40    39   ar
    17    26    33   am
    18    26    27    2
    19    96    94   ar
    20    20    21    1
    21    94    93    1
    22    33    34    1
    23     9     8    1
    24     9    12    1
    25    37    34    1
    26    37    38    1
    27    12    13    1
    28    39    38    1
    29    39    41   ar
    30    23    21    1
    31    36    35    2
    32    21    22    1
    33    34    35    1
    34    93    90    1
    35    35    42   am
    36     4     3    2
    37    13    14    1
    38    13    15    1
    39    90    89    1
    40    90    91    1
    41     3     2    1
    42    53    52    1
    43    42    43    1
    44    79    78    1
    45    43    44    1
    46    43    46    1
    47    91    92    2
    48    91    97   am
    49    84    83    2
    50    76    77    1
    51    76    75    1
    52    52    49    1
    53     2     1    1
    54     2     5    1
    55    48    44   am
    56    48    49    1
    57    44    45    2
    58     6     5    1
    59    46    47    1
    60    97    98    1
    61    78    77    2
    62    78    80    1
    63    83    82    1
    64     5     7    1
    65    49    50    1
    66    75    74    1
    67    51    50    2
    68    74    71    1
    69   102   101    1
    70    50    54   am
    71    87    86    2
    72    98   101    1
    73    98    99    1
    74    82    81    1
    75    82    85    1
    76    81    72   am
    77    54    55    1
    78    71    72    1
    79    71    70    1
    80    99   100    2
    81    72    73    2
    82    86    85    1
    83    86    88   am
    84    55    56    1
    85    55    58    1
    86    56    57    2
    87    65    64    2
    88    70    64   am
    89    64    63    1
    90    58    59    1
    91   103   104    1
    92    61    59    1
    93    62    63    1
    94   104   105    1
    95   104   107    1
    96    63    66    1
    97   105   106    2
    98    59    60    1
    99   109   108    2
   100    67    66    1
   101    67    69    1
   102   107   108    1
   103    66    68    1
   104   108   110   am
