@<TRIPOS>MOLECULE
tmp/4e1tA08.pdb
 93 89 0 0 0
SMALL
GASTEIGER

@<TRIPOS>ATOM
      1  N        -19.1780   36.3600   13.3810 N.3     7  ALA7       -0.1245
      2  CA       -19.5800   35.0130   13.6160 C.3     7  ALA7        0.1562
      3  C        -20.2620   34.5200   12.3330 C.2     7  ALA7        0.2260
      4  O        -21.0510   35.2490   11.6920 O.2     7  ALA7       -0.2867
      5  CB       -20.4860   34.9380   14.8000 C.3     7  ALA7        0.0290
      6  N        -22.3210   31.1690   10.5380 N.3     9  VAL9       -0.1245
      7  CA       -22.9300   29.8350   10.4340 C.3     9  VAL9        0.1561
      8  C        -22.9460   29.2650    9.0200 C.2     9  VAL9        0.2260
      9  O        -23.2510   29.9670    8.0570 O.2     9  VAL9       -0.2867
     10  CB       -24.3110   29.8390   11.0390 C.3     9  VAL9        0.0252
     11  CG1      -25.0760   28.5310   10.7350 C.3     9  VAL9        0.0019
     12  CG2      -24.1270   30.0230   12.5210 C.3     9  VAL9        0.0019
     13  N        -20.0070   26.5190   12.9190 N.3    24  LEU24      -0.1245
     14  CA       -19.9780   27.8480   13.4900 C.3    24  LEU24       0.1561
     15  C        -18.5300   28.2920   13.6590 C.2    24  LEU24       0.2260
     16  O        -17.7270   27.6380   14.3210 O.2    24  LEU24      -0.2867
     17  CB       -20.7440   27.8670   14.8120 C.3    24  LEU24       0.0270
     18  CG       -20.8490   29.1040   15.7390 C.3    24  LEU24       0.0019
     19  CD1      -19.5310   29.3340   16.3160 C.3    24  LEU24       0.0001
     20  CD2      -21.2740   30.3660   15.0270 C.3    24  LEU24       0.0001
     21  N        -26.2370   39.8100    5.9990 N.3   180  LEU180     -0.1245
     22  CA       -26.5150   38.7020    6.9200 C.3   180  LEU180      0.1561
     23  C        -26.5830   37.3040    6.2860 C.2   180  LEU180      0.2260
     24  O        -26.4320   36.3110    6.9930 O.2   180  LEU180     -0.2867
     25  CB       -27.8440   38.9650    7.6100 C.3   180  LEU180      0.0270
     26  CG       -28.1710   38.3130    8.9550 C.3   180  LEU180      0.0019
     27  CD1      -27.1410   38.6680   10.0260 C.3   180  LEU180      0.0001
     28  CD2      -29.6000   38.7380    9.3760 C.3   180  LEU180      0.0001
     29  N        -24.7760   32.2500    7.1970 N.3   203  MET203     -0.1230
     30  CA       -25.1350   33.4830    7.8990 C.3   203  MET203      0.1702
     31  C        -23.9200   34.2090    8.4960 C.2   203  MET203      0.2592
     32  O        -23.0310   33.5790    9.0560 O.2   203  MET203     -0.2718
     33  CB       -26.1770   33.2520    8.9930 C.3   203  MET203      0.0401
     34  CG       -27.4090   32.5240    8.5240 C.3   203  MET203      0.0596
     35  SD       -29.0120   33.3620    8.6620 S.3   203  MET203     -0.1393
     36  CE       -29.0740   33.9810   10.3450 C.3   203  MET203      0.0692
     37  N        -23.9030   35.5390    8.3900 N.am  204  ASN204     -0.1960
     38  CA       -22.8110   36.3190    8.8920 C.3   204  ASN204      0.1819
     39  C        -23.2760   37.3950    9.8540 C.2   204  ASN204      0.2621
     40  O        -24.0370   38.2890    9.4760 O.2   204  ASN204     -0.2715
     41  CB       -22.0170   36.9260    7.7420 C.3   204  ASN204      0.1195
     42  CG       -21.1680   35.8970    7.0340 C.2   204  ASN204      0.2630
     43  OD1      -20.0810   35.5340    7.5300 O.2   204  ASN204     -0.2716
     44  ND2      -21.6540   35.3950    5.8770 N.am  204  ASN204     -0.0877
     45  N        -22.8230   37.3230   11.0890 N.am  205  TYR205     -0.1974
     46  CA       -23.1230   38.4150   12.0130 C.3   205  TYR205      0.1639
     47  C        -21.8670   39.2550   12.2620 C.2   205  TYR205      0.2290
     48  O        -20.8380   38.7330   12.7210 O.2   205  TYR205     -0.2864
     49  CB       -23.7180   37.9180   13.3410 C.3   205  TYR205      0.0560
     50  CG       -24.2430   39.0660   14.1820 C.ar  205  TYR205     -0.0198
     51  CD1      -23.6570   39.4010   15.3860 C.ar  205  TYR205     -0.0009
     52  CD2      -25.3170   39.8460   13.7410 C.ar  205  TYR205     -0.0009
     53  CE1      -24.1310   40.5110   16.1490 C.ar  205  TYR205      0.0417
     54  CE2      -25.7960   40.9340   14.4810 C.ar  205  TYR205      0.0417
     55  CZ       -25.1970   41.2610   15.6810 C.ar  205  TYR205      0.1957
     56  OH       -25.7000   42.3230   16.4160 O.3   205  TYR205     -0.2866
     57  N        -20.2150   41.8210   14.5200 N.3   207  PHE207     -0.1241
     58  CA       -20.4050   42.4100   15.8580 C.3   207  PHE207      0.1605
     59  C        -20.0740   43.9090   15.8500 C.2   207  PHE207      0.2264
     60  O        -18.9870   44.3080   15.4090 O.2   207  PHE207     -0.2867
     61  CB       -19.5500   41.6770   16.9050 C.3   207  PHE207      0.0534
     62  CG       -19.9420   40.2230   17.1520 C.ar  207  PHE207     -0.0203
     63  CD1      -21.0360   39.8990   17.9420 C.ar  207  PHE207     -0.0042
     64  CD2      -19.1660   39.1830   16.6430 C.ar  207  PHE207     -0.0042
     65  CE1      -21.3850   38.5610   18.2070 C.ar  207  PHE207     -0.0003
     66  CE2      -19.5010   37.8310   16.8820 C.ar  207  PHE207     -0.0003
     67  CZ       -20.5870   37.5150   17.6820 C.ar  207  PHE207     -0.0000
     68  N        -21.8870   46.2590   14.0970 N.3   209  GLU209     -0.1231
     69  CA       -22.7760   46.7610   13.0640 C.3   209  GLU209      0.1699
     70  C        -24.2590   46.6350   13.4980 C.2   209  GLU209      0.2593
     71  O        -24.6500   45.6600   14.1300 O.2   209  GLU209     -0.2718
     72  CB       -22.5070   46.0170   11.7860 C.3   209  GLU209      0.0402
     73  CG       -21.1680   46.3510   11.1680 C.3   209  GLU209      0.1161
     74  CD       -21.1000   45.9620    9.7050 C.2   209  GLU209      0.3649
     75  OE1      -22.1110   45.4220    9.1530 O.co2 209  GLU209     -0.2457
     76  OE2      -20.0240   46.2070    9.0970 O.co2 209  GLU209     -0.2457
     77  N        -25.0690   47.6400   13.2070 N.am  210  SER210     -0.1938
     78  CA       -26.4520   47.6360   13.6320 C.3   210  SER210      0.2055
     79  C        -27.1590   46.5190   12.9090 C.2   210  SER210      0.2643
     80  O        -26.7660   46.1500   11.7820 O.2   210  SER210     -0.2714
     81  CB       -27.1480   48.9840   13.3140 C.3   210  SER210      0.2130
     82  OG       -27.1360   49.2630   11.9240 O.3   210  SER210     -0.2179
     83  N        -28.1970   45.9820   13.5300 N.am  211  PHE211     -0.1973
     84  CA       -28.8900   44.8650   12.9350 C.3   211  PHE211      0.1639
     85  C        -29.5390   45.2780   11.6090 C.2   211  PHE211      0.2290
     86  O        -29.4550   44.5470   10.6060 O.2   211  PHE211     -0.2864
     87  CB       -29.9280   44.2880   13.8840 C.3   211  PHE211      0.0560
     88  CG       -30.5510   43.0350   13.3710 C.ar  211  PHE211     -0.0200
     89  CD1      -29.7500   41.9840   12.9200 C.ar  211  PHE211     -0.0042
     90  CD2      -31.9330   42.9090   13.3010 C.ar  211  PHE211     -0.0042
     91  CE1      -30.3190   40.8070   12.4330 C.ar  211  PHE211     -0.0003
     92  CE2      -32.5180   41.7270   12.7920 C.ar  211  PHE211     -0.0003
     93  CZ       -31.7140   40.6870   12.3610 C.ar  211  PHE211     -0.0000
@<TRIPOS>BOND
     1    44    42   am
     2    21    22    1
     3    23    22    1
     4    23    24    2
     5    22    25    1
     6    42    43    2
     7    42    41    1
     8    29    30    1
     9    25    26    1
    10    41    38    1
    11    30    31    1
    12    30    33    1
    13     9     8    2
    14    37    31   am
    15    37    38    1
    16    31    32    2
    17    34    35    1
    18    34    33    1
    19    35    36    1
    20    38    39    1
    21    26    28    1
    22    26    27    1
    23     8     7    1
    24    76    74   ar
    25    75    74   ar
    26    40    39    2
    27    74    73    1
    28    39    45   am
    29     7     6    1
    30     7    10    1
    31    86    85    2
    32    11    10    1
    33    10    12    1
    34    45    46    1
    35    73    72    1
    36    85    84    1
    37     4     3    2
    38    80    79    2
    39    72    69    1
    40    82    81    1
    41    46    47    1
    42    46    49    1
    43    47    48    2
    44     3     2    1
    45    93    91   ar
    46    93    92   ar
    47    91    89   ar
    48    92    90   ar
    49    79    83   am
    50    79    78    1
    51    13    14    1
    52    89    88   ar
    53    84    83    1
    54    84    87    1
    55    69    70    1
    56    69    68    1
    57    77    70   am
    58    77    78    1
    59    90    88   ar
    60    81    78    1
    61    49    50    1
    62    88    87    1
    63     1     2    1
    64    14    15    1
    65    14    17    1
    66    70    71    2
    67     2     5    1
    68    15    16    2
    69    52    50   ar
    70    52    54   ar
    71    50    51   ar
    72    54    55   ar
    73    57    58    1
    74    17    18    1
    75    20    18    1
    76    51    53   ar
    77    60    59    2
    78    55    53   ar
    79    55    56    1
    80    18    19    1
    81    59    58    1
    82    58    61    1
    83    64    66   ar
    84    64    62   ar
    85    66    67   ar
    86    61    62    1
    87    62    63   ar
    88    67    65   ar
    89    63    65   ar
