@<TRIPOS>MOLECULE
tmp/4e1tA05.pdb
 139 134 0 0 0
SMALL
GASTEIGER

@<TRIPOS>ATOM
      1  N         -2.3530   47.0980   10.5180 N.3    36  PHE36      -0.1241
      2  CA        -2.0680   45.7620   11.0760 C.3    36  PHE36       0.1605
      3  C         -3.1790   45.2610   12.0030 C.2    36  PHE36       0.2264
      4  O         -3.5890   45.9470   12.9570 O.2    36  PHE36      -0.2867
      5  CB        -0.7550   45.7790   11.8440 C.3    36  PHE36       0.0534
      6  CG        -0.2860   44.4190   12.3380 C.ar   36  PHE36      -0.0203
      7  CD1       -0.4970   44.0330   13.6470 C.ar   36  PHE36      -0.0042
      8  CD2        0.4360   43.5670   11.5090 C.ar   36  PHE36      -0.0042
      9  CE1       -0.0510   42.7730   14.1300 C.ar   36  PHE36      -0.0003
     10  CE2        0.8940   42.3250   11.9810 C.ar   36  PHE36      -0.0003
     11  CZ         0.6480   41.9390   13.3070 C.ar   36  PHE36      -0.0000
     12  N         -2.5610   37.1010   11.0060 N.3    59  ILE59      -0.1245
     13  CA        -2.3130   38.5560   10.9160 C.3    59  ILE59       0.1561
     14  C         -2.6450   38.9930    9.4970 C.2    59  ILE59       0.2260
     15  O         -2.4970   38.1980    8.5470 O.2    59  ILE59      -0.2867
     16  CB        -0.8680   38.9390   11.2340 C.3    59  ILE59       0.0252
     17  CG1        0.0650   38.3850   10.1390 C.3    59  ILE59       0.0019
     18  CG2       -0.4720   38.5170   12.6800 C.3    59  ILE59       0.0019
     19  CD1        1.4050   37.8750   10.6590 C.3    59  ILE59       0.0001
     20  N         -2.1540   42.6830    7.0510 N.3    61  THR61      -0.1218
     21  CA        -1.5740   43.9980    6.9150 C.3    61  THR61       0.1862
     22  C         -2.0320   44.6060    5.5920 C.2    61  THR61       0.2287
     23  O         -2.2630   43.8810    4.6310 O.2    61  THR61      -0.2866
     24  CB        -0.0300   43.9610    6.9770 C.3    61  THR61       0.1770
     25  OG1        0.4550   45.3100    6.9540 O.3    61  THR61      -0.2211
     26  CG2        0.5860   43.1840    5.7760 C.3    61  THR61       0.0375
     27  N         -2.5570   41.7300    2.7900 N.3    68  TYR68      -0.1227
     28  CA        -1.7670   40.4920    2.8260 C.3    68  TYR68       0.1736
     29  C         -1.9550   39.8790    4.2210 C.2    68  TYR68       0.2596
     30  O         -1.8500   40.5950    5.2520 O.2    68  TYR68      -0.2718
     31  CB        -0.2730   40.8130    2.5420 C.3    68  TYR68       0.0548
     32  CG        -0.1160   41.5130    1.1790 C.ar   68  TYR68      -0.0200
     33  CD1       -0.2220   40.7850   -0.0160 C.ar   68  TYR68      -0.0009
     34  CD2        0.0020   42.8940    1.0880 C.ar   68  TYR68      -0.0009
     35  CE1       -0.1330   41.4230   -1.2990 C.ar   68  TYR68       0.0417
     36  CE2        0.0800   43.5360   -0.1480 C.ar   68  TYR68       0.0417
     37  CZ         0.0130   42.7800   -1.3480 C.ar   68  TYR68       0.1957
     38  OH         0.0860   43.3970   -2.5770 O.3    68  TYR68      -0.2866
     39  N         -2.2160   38.5730    4.2600 N.am   69  GLY69      -0.1942
     40  CA        -2.3830   37.8970    5.5320 C.3    69  GLY69       0.2014
     41  C         -1.5860   36.6070    5.6190 C.2    69  GLY69       0.2638
     42  O         -1.2600   36.0080    4.5880 O.2    69  GLY69      -0.2714
     43  N         -1.2670   36.1910    6.8460 N.am   70  LEU70      -0.1977
     44  CA        -0.8240   34.8370    7.1690 C.3    70  LEU70       0.1596
     45  C         -1.6430   34.3060    8.3260 C.2    70  LEU70       0.2287
     46  O         -2.0450   35.0670    9.2250 O.2    70  LEU70      -0.2864
     47  CB         0.6510   34.8260    7.5710 C.3    70  LEU70       0.0297
     48  CG         1.6020   35.1080    6.4200 C.3    70  LEU70       0.0022
     49  CD1        2.9820   35.4860    6.8740 C.3    70  LEU70       0.0001
     50  CD2        1.6280   33.9380    5.3660 C.3    70  LEU70       0.0001
     51  N         -2.0230   31.7030    3.5660 N.3    89  ALA89      -0.1231
     52  CA        -1.6420   33.0420    3.1350 C.3    89  ALA89       0.1694
     53  C         -2.8470   33.7390    2.4450 C.2    89  ALA89       0.2592
     54  O         -3.7370   33.0640    1.8930 O.2    89  ALA89      -0.2718
     55  CB        -0.3840   32.9930    2.2150 C.3    89  ALA89       0.0304
     56  N         -2.8930   35.0690    2.4900 N.am   90  GLU90      -0.1966
     57  CA        -3.9740   35.8100    1.8280 C.3    90  GLU90       0.1733
     58  C         -3.4390   36.9900    1.0090 C.2    90  GLU90       0.2616
     59  O         -2.4570   37.6470    1.3900 O.2    90  GLU90      -0.2715
     60  CB        -5.0420   36.2780    2.8460 C.3    90  GLU90       0.0429
     61  CG        -5.6520   35.1600    3.5920 C.3    90  GLU90       0.1163
     62  CD        -6.3460   35.5920    4.9150 C.2    90  GLU90       0.3649
     63  OE1       -5.8240   36.4980    5.6290 O.co2  90  GLU90      -0.2457
     64  OE2       -7.4260   34.9960    5.2310 O.co2  90  GLU90      -0.2457
     65  N         -4.0510   37.2190   -0.1360 N.am   91  ALA91      -0.1977
     66  CA        -3.7570   38.4310   -0.9050 C.3    91  ALA91       0.1597
     67  C         -5.1260   38.8960   -1.4040 C.2    91  ALA91       0.2287
     68  O         -5.7160   38.2300   -2.2570 O.2    91  ALA91      -0.2864
     69  CB        -2.8420   38.1440   -2.0800 C.3    91  ALA91       0.0319
     70  N         -7.8530   36.3010   -2.7330 N.3    98  LEU98      -0.1231
     71  CA        -7.0420   35.1230   -3.0840 C.3    98  LEU98       0.1693
     72  C         -6.4940   34.4680   -1.8230 C.2    98  LEU98       0.2592
     73  O         -6.1870   35.1510   -0.8330 O.2    98  LEU98      -0.2718
     74  CB        -5.8960   35.5280   -3.9950 C.3    98  LEU98       0.0284
     75  CG        -6.3740   36.3890   -5.1750 C.3    98  LEU98       0.0019
     76  CD1       -5.1990   36.9430   -5.9070 C.3    98  LEU98       0.0001
     77  CD2       -7.2770   35.6170   -6.1380 C.3    98  LEU98       0.0001
     78  N         -6.4260   33.1390   -1.8210 N.am   99  ALA99      -0.1966
     79  CA        -5.8610   32.4410   -0.6590 C.3    99  ALA99       0.1728
     80  C         -5.2020   31.1460   -1.0860 C.2    99  ALA99       0.2616
     81  O         -5.6170   30.5270   -2.0770 O.2    99  ALA99      -0.2715
     82  CB        -6.9220   32.1980    0.4070 C.3    99  ALA99       0.0334
     83  N         -4.1560   30.7680   -0.3260 N.am  100  ALA100     -0.1977
     84  CA        -3.4030   29.5050   -0.4890 C.3   100  ALA100      0.1597
     85  C         -3.3760   28.8400    0.8940 C.2   100  ALA100      0.2287
     86  O         -3.1190   29.5040    1.9120 O.2   100  ALA100     -0.2864
     87  CB        -2.0190   29.7660   -0.9870 C.3   100  ALA100      0.0319
     88  N         -5.7480   26.2170   -3.4100 N.3   128  LEU128     -0.1231
     89  CA        -5.6850   27.5650   -3.9800 C.3   128  LEU128      0.1693
     90  C         -7.1000   28.0180   -4.1410 C.2   128  LEU128      0.2592
     91  O         -7.8980   27.3030   -4.7450 O.2   128  LEU128     -0.2718
     92  CB        -5.0260   27.4660   -5.3370 C.3   128  LEU128      0.0284
     93  CG        -3.5200   27.7040   -5.4860 C.3   128  LEU128      0.0019
     94  CD1       -2.6980   27.7390   -4.1820 C.3   128  LEU128      0.0001
     95  CD2       -2.8670   26.8010   -6.5630 C.3   128  LEU128      0.0001
     96  N         -7.4510   29.1790   -3.5900 N.am  129  ARG129     -0.1966
     97  CA        -8.8460   29.6670   -3.6780 C.3   129  ARG129      0.1729
     98  C         -8.9400   31.0890   -4.2480 C.2   129  ARG129      0.2616
     99  O         -8.0390   31.9250   -4.0370 O.2   129  ARG129     -0.2715
    100  CB        -9.5410   29.6400   -2.3170 C.3   129  ARG129      0.0348
    101  CG        -9.4500   28.3410   -1.6100 C.3   129  ARG129      0.0492
    102  CD        -9.9260   28.3600   -0.1940 C.3   129  ARG129      0.2205
    103  NE        -9.9040   26.9730    0.3270 N.pl3 129  ARG129     -0.0865
    104  CZ       -10.9770   26.3100    0.7940 C.cat 129  ARG129      0.5346
    105  NH1      -12.1900   26.8940    0.9090 N.pl3 129  ARG129      0.1354
    106  NH2      -10.8210   25.0590    1.1920 N.pl3 129  ARG129      0.1354
    107  N        -10.0320   31.3630   -4.9660 N.am  130  ALA130     -0.1977
    108  CA       -10.3380   32.7470   -5.3420 C.3   130  ALA130      0.1597
    109  C        -11.8190   33.0140   -5.1590 C.2   130  ALA130      0.2287
    110  O        -12.6190   32.2620   -5.6770 O.2   130  ALA130     -0.2864
    111  CB        -9.9170   33.0320   -6.7940 C.3   130  ALA130      0.0319
    112  N        -13.5680   29.9920   -7.4120 N.3   144  LEU144     -0.1231
    113  CA       -12.7860   28.9110   -8.0690 C.3   144  LEU144      0.1693
    114  C        -11.8070   28.3710   -7.0470 C.2   144  LEU144      0.2592
    115  O        -11.2630   29.1540   -6.2980 O.2   144  LEU144     -0.2718
    116  CB       -11.9890   29.4830   -9.2190 C.3   144  LEU144      0.0284
    117  CG       -12.1120   28.9620  -10.6550 C.3   144  LEU144      0.0019
    118  CD1      -13.5380   28.4400  -11.1120 C.3   144  LEU144      0.0001
    119  CD2      -11.5950   30.0660  -11.6090 C.3   144  LEU144      0.0001
    120  N        -11.6120   27.0500   -6.9710 N.am  145  MET145     -0.1965
    121  CA       -10.5120   26.5020   -6.1900 C.3   145  MET145      0.1736
    122  C         -9.9150   25.2950   -6.8760 C.2   145  MET145      0.2616
    123  O        -10.5950   24.6050   -7.6700 O.2   145  MET145     -0.2715
    124  CB       -10.9250   25.9860   -4.8070 C.3   145  MET145      0.0427
    125  CG       -12.1950   26.4690   -4.1240 C.3   145  MET145      0.0599
    126  SD       -12.4520   25.4240   -2.5850 S.3   145  MET145     -0.1393
    127  CE       -10.7560   25.0200   -2.2300 C.3   145  MET145      0.0692
    128  N         -8.6480   25.0270   -6.5340 N.am  146  TYR146     -0.1974
    129  CA        -7.9710   23.7870   -6.8560 C.3   146  TYR146      0.1639
    130  C         -7.4480   23.1960   -5.5220 C.2   146  TYR146      0.2290
    131  O         -6.9090   23.9540   -4.6850 O.2   146  TYR146     -0.2864
    132  CB        -6.8410   24.0520   -7.8450 C.3   146  TYR146      0.0560
    133  CG        -5.9970   22.8430   -8.1570 C.ar  146  TYR146     -0.0198
    134  CD1       -4.7240   22.6900   -7.6040 C.ar  146  TYR146     -0.0009
    135  CD2       -6.4570   21.8400   -9.0070 C.ar  146  TYR146     -0.0009
    136  CE1       -3.9450   21.5650   -7.8660 C.ar  146  TYR146      0.0417
    137  CE2       -5.6830   20.7380   -9.2840 C.ar  146  TYR146      0.0417
    138  CZ        -4.4270   20.6060   -8.7070 C.ar  146  TYR146      0.1957
    139  OH        -3.6420   19.5070   -8.9870 O.3   146  TYR146     -0.2866
@<TRIPOS>BOND
     1   119   117    1
     2   118   117    1
     3   117   116    1
     4   137   135   ar
     5   137   138   ar
     6   116   113    1
     7   135   133   ar
     8   139   138    1
     9   138   136   ar
    10   133   132    1
    11   133   134   ar
    12   113   112    1
    13   113   114    1
    14   136   134   ar
    15   132   129    1
    16   123   122    2
    17   114   120   am
    18   114   115    2
    19   120   121    1
    20   122   128   am
    21   122   121    1
    22   129   128    1
    23   129   130    1
    24   111   108    1
    25    95    93    1
    26   121   124    1
    27    77    75    1
    28    76    75    1
    29   110   109    2
    30   130   131    2
    31    93    92    1
    32    93    94    1
    33   108   109    1
    34   108   107    1
    35    92    89    1
    36    75    74    1
    37   107    98   am
    38   124   125    1
    39    91    90    2
    40    98    99    2
    41    98    97    1
    42    90    89    1
    43    90    96   am
    44   125   126    1
    45    74    71    1
    46    89    88    1
    47    97    96    1
    48    97   100    1
    49    71    70    1
    50    71    72    1
    51   126   127    1
    52    38    37    1
    53   100   101    1
    54    68    67    2
    55    69    66    1
    56    81    80    2
    57    72    78   am
    58    72    73    2
    59    78    79    1
    60   101   102    1
    61    67    66    1
    62    37    35   ar
    63    37    36   ar
    64    35    33   ar
    65    80    79    1
    66    80    83   am
    67    87    84    1
    68    66    65    1
    69    79    82    1
    70    84    83    1
    71    84    85    1
    72   102   103    1
    73    36    34   ar
    74    65    58   am
    75    33    32   ar
    76   103   104    2
    77   104   105    1
    78   104   106    1
    79    85    86    2
    80    58    59    2
    81    58    57    1
    82    34    32   ar
    83    32    31    1
    84    57    56    1
    85    57    60    1
    86    54    53    2
    87    55    52    1
    88    53    56   am
    89    53    52    1
    90    31    28    1
    91    27    28    1
    92    28    29    1
    93    60    61    1
    94    52    51    1
    95    61    62    1
    96    29    39   am
    97    29    30    2
    98    39    40    1
    99    42    41    2
   100    23    22    2
   101    62    64   ar
   102    62    63   ar
   103    50    48    1
   104    40    41    1
   105    22    21    1
   106    41    43   am
   107    26    24    1
   108    48    49    1
   109    48    47    1
   110    43    44    1
   111    21    24    1
   112    21    20    1
   113    25    24    1
   114    44    47    1
   115    44    45    1
   116    45    46    2
   117    15    14    2
   118    14    13    1
   119    17    19    1
   120    17    16    1
   121     1     2    1
   122    13    12    1
   123    13    16    1
   124     2     5    1
   125     2     3    1
   126    16    18    1
   127     8    10   ar
   128     8     6   ar
   129     5     6    1
   130    10    11   ar
   131     3     4    2
   132     6     7   ar
   133    11     9   ar
   134     7     9   ar
