@<TRIPOS>MOLECULE
tmp/4e1tA07.pdb
 95 87 0 0 0
SMALL
GASTEIGER

@<TRIPOS>ATOM
      1  N        -11.9580   41.1250   -4.3500 N.3    96  LEU96      -0.1245
      2  CA       -11.1730   39.9830   -4.8250 C.3    96  LEU96       0.1561
      3  C        -10.3720   39.4230   -3.7050 C.2    96  LEU96       0.2260
      4  O         -9.4620   40.1120   -3.2110 O.2    96  LEU96      -0.2867
      5  CB       -10.1760   40.4070   -5.8920 C.3    96  LEU96       0.0270
      6  CG        -9.7780   39.6040   -7.1360 C.3    96  LEU96       0.0019
      7  CD1       -8.3010   39.9460   -7.5830 C.3    96  LEU96       0.0001
      8  CD2      -10.0160   38.1190   -7.0730 C.3    96  LEU96       0.0001
      9  N         -7.8530   36.3010   -2.7330 N.3    98  LEU98      -0.1245
     10  CA        -7.0420   35.1230   -3.0840 C.3    98  LEU98       0.1561
     11  C         -6.4940   34.4680   -1.8230 C.2    98  LEU98       0.2260
     12  O         -6.1870   35.1510   -0.8330 O.2    98  LEU98      -0.2867
     13  CB        -5.8960   35.5280   -3.9950 C.3    98  LEU98       0.0270
     14  CG        -6.3740   36.3890   -5.1750 C.3    98  LEU98       0.0019
     15  CD1       -5.1990   36.9430   -5.9070 C.3    98  LEU98       0.0001
     16  CD2       -7.2770   35.6170   -6.1380 C.3    98  LEU98       0.0001
     17  N        -10.0320   31.3630   -4.9660 N.3   130  ALA130     -0.1245
     18  CA       -10.3380   32.7470   -5.3420 C.3   130  ALA130      0.1562
     19  C        -11.8190   33.0140   -5.1590 C.2   130  ALA130      0.2260
     20  O        -12.6190   32.2620   -5.6770 O.2   130  ALA130     -0.2867
     21  CB        -9.9170   33.0320   -6.7940 C.3   130  ALA130      0.0290
     22  N        -14.4620   36.1590   -5.8670 N.3   132  ALA132     -0.1245
     23  CA       -14.6140   37.4560   -6.5360 C.3   132  ALA132      0.1562
     24  C        -16.0890   37.9010   -6.5500 C.2   132  ALA132      0.2260
     25  O        -16.9840   37.0560   -6.6550 O.2   132  ALA132     -0.2867
     26  CB       -14.0960   37.3520   -7.9550 C.3   132  ALA132      0.0290
     27  N        -18.5190   34.8480   -7.2700 N.3   142  GLY142     -0.1210
     28  CA       -18.0240   33.6770   -7.9360 C.3   142  GLY142      0.1956
     29  C        -16.9480   33.0670   -7.0930 C.2   142  GLY142      0.2612
     30  O        -16.3500   33.7360   -6.2220 O.2   142  GLY142     -0.2717
     31  N        -16.6850   31.7910   -7.3250 N.am  143  LYS143     -0.1965
     32  CA       -15.6010   31.1200   -6.6030 C.3   143  LYS143      0.1728
     33  C        -14.8920   30.0630   -7.4980 C.2   143  LYS143      0.2616
     34  O        -15.5490   29.3480   -8.2560 O.2   143  LYS143     -0.2715
     35  CB       -16.1640   30.5690   -5.2930 C.3   143  LYS143      0.0311
     36  CG       -15.7010   29.2060   -4.8670 C.3   143  LYS143      0.0038
     37  CD       -15.9220   29.0490   -3.3260 C.3   143  LYS143      0.0206
     38  CE       -17.3400   28.5200   -3.0080 C.3   143  LYS143      0.1093
     39  NZ       -17.6610   28.5210   -1.5280 N.3   143  LYS143     -0.1314
     40  N        -13.5680   29.9920   -7.4120 N.am  144  LEU144     -0.1977
     41  CA       -12.7860   28.9110   -8.0690 C.3   144  LEU144      0.1596
     42  C        -11.8070   28.3710   -7.0470 C.2   144  LEU144      0.2287
     43  O        -11.2630   29.1540   -6.2980 O.2   144  LEU144     -0.2864
     44  CB       -11.9890   29.4830   -9.2190 C.3   144  LEU144      0.0297
     45  CG       -12.1120   28.9620  -10.6550 C.3   144  LEU144      0.0022
     46  CD1      -13.5380   28.4400  -11.1120 C.3   144  LEU144      0.0001
     47  CD2      -11.5950   30.0660  -11.6090 C.3   144  LEU144      0.0001
     48  N        -15.8830   25.0380   -8.9600 N.3   171  ALA171     -0.1231
     49  CA       -16.5060   26.2540   -9.4690 C.3   171  ALA171      0.1694
     50  C        -17.8680   26.5310   -8.8150 C.2   171  ALA171      0.2593
     51  O        -18.7820   25.7150   -8.8900 O.2   171  ALA171     -0.2718
     52  CB       -16.6340   26.2090  -11.0140 C.3   171  ALA171      0.0304
     53  N        -18.0060   27.7200   -8.2240 N.am  172  GLY172     -0.1942
     54  CA       -19.2370   28.0910   -7.5190 C.3   172  GLY172      0.2014
     55  C        -19.7560   29.5010   -7.7460 C.2   172  GLY172      0.2638
     56  O        -18.9970   30.4420   -8.0400 O.2   172  GLY172     -0.2714
     57  N        -21.0720   29.6430   -7.6010 N.am  173  ILE173     -0.1977
     58  CA       -21.7460   30.9440   -7.6650 C.3   173  ILE173      0.1596
     59  C        -22.4330   31.1550   -6.3450 C.2   173  ILE173      0.2287
     60  O        -22.8600   30.2050   -5.7280 O.2   173  ILE173     -0.2864
     61  CB       -22.8210   30.9680   -8.7710 C.3   173  ILE173      0.0276
     62  CG1      -22.2620   30.3900  -10.0310 C.3   173  ILE173      0.0022
     63  CG2      -23.2840   32.4240   -9.0970 C.3   173  ILE173      0.0022
     64  CD1      -21.5390   31.4030  -10.8970 C.3   173  ILE173      0.0001
     65  N        -24.1190   27.7990   -4.8140 N.3   185  VAL185     -0.1231
     66  CA       -23.9980   26.4220   -5.2940 C.3   185  VAL185      0.1692
     67  C        -22.6030   26.1690   -5.8910 C.2   185  VAL185      0.2592
     68  O        -22.0670   27.0640   -6.5780 O.2   185  VAL185     -0.2718
     69  CB       -25.1640   26.0360   -6.2370 C.3   185  VAL185      0.0266
     70  CG1      -25.2980   27.0190   -7.4060 C.3   185  VAL185      0.0020
     71  CG2      -25.0570   24.5600   -6.6940 C.3   185  VAL185      0.0020
     72  N        -22.0130   25.0060   -5.5830 N.am  186  ASP186     -0.1960
     73  CA       -20.6660   24.6020   -6.0640 C.3   186  ASP186      0.1840
     74  C        -20.6910   23.3060   -6.8450 C.2   186  ASP186      0.2621
     75  O        -21.4630   22.3820   -6.5470 O.2   186  ASP186     -0.2715
     76  CB       -19.6450   24.4180   -4.9040 C.3   186  ASP186      0.1450
     77  CG       -19.3620   25.7200   -4.1900 C.2   186  ASP186      0.3671
     78  OD1      -19.5340   26.7600   -4.8800 O.co2 186  ASP186     -0.2456
     79  OD2      -19.0310   25.7370   -2.9530 O.co2 186  ASP186     -0.2456
     80  N        -19.8080   23.2240   -7.8260 N.am  187  GLN187     -0.1977
     81  CA       -19.5200   21.9630   -8.4780 C.3   187  GLN187      0.1601
     82  C        -18.0770   21.6050   -8.1880 C.2   187  GLN187      0.2287
     83  O        -17.1960   22.3950   -8.4500 O.2   187  GLN187     -0.2864
     84  CB       -19.7750   22.0770   -9.9830 C.3   187  GLN187      0.0394
     85  CG       -21.2190   21.9780  -10.3380 C.3   187  GLN187      0.0908
     86  CD       -21.4540   21.2290  -11.6370 C.2   187  GLN187      0.2608
     87  OE1      -20.8480   20.1710  -11.8790 O.2   187  GLN187     -0.2717
     88  NE2      -22.3630   21.7510  -12.4730 N.am  187  GLN187     -0.0878
     89  N        -22.0980   17.9730   -6.4000 N.3   197  THR197     -0.1218
     90  CA       -22.7240   19.2850   -6.2850 C.3   197  THR197      0.1862
     91  C        -23.1250   19.6230   -4.8400 C.2   197  THR197      0.2287
     92  O        -23.6660   18.8150   -4.1200 O.2   197  THR197     -0.2866
     93  CB       -23.7470   19.6500   -7.4430 C.3   197  THR197      0.1770
     94  OG1      -24.9620   20.1540   -6.8910 O.3   197  THR197     -0.2211
     95  CG2      -24.0590   18.5150   -8.2950 C.3   197  THR197      0.0375
@<TRIPOS>BOND
     1    88    86   am
     2    87    86    2
     3    86    85    1
     4    47    45    1
     5    46    45    1
     6    52    49    1
     7    64    62    1
     8    45    44    1
     9    85    84    1
    10    62    61    1
    11    84    81    1
    12    49    48    1
    13    49    50    1
    14    44    41    1
    15    63    61    1
    16    51    50    2
    17    50    53   am
    18    61    58    1
    19    81    82    1
    20    81    80    1
    21    83    82    2
    22    95    93    1
    23    34    33    2
    24    53    54    1
    25    41    40    1
    26    41    42    1
    27    56    55    2
    28    26    23    1
    29    28    27    1
    30    28    29    1
    31    80    74   am
    32    55    57   am
    33    55    54    1
    34    58    57    1
    35    58    59    1
    36     7     6    1
    37    33    40   am
    38    33    32    1
    39    93    94    1
    40    93    90    1
    41    70    69    1
    42    31    29   am
    43    31    32    1
    44     6     8    1
    45     6     5    1
    46    29    30    2
    47    42    43    2
    48    74    75    2
    49    74    73    1
    50    21    18    1
    51    71    69    1
    52    25    24    2
    53    32    35    1
    54    68    67    2
    55    24    23    1
    56    23    22    1
    57    89    90    1
    58    59    60    2
    59    90    91    1
    60    69    66    1
    61    16    14    1
    62    73    72    1
    63    73    76    1
    64    15    14    1
    65     5     2    1
    66    67    72   am
    67    67    66    1
    68    20    19    2
    69    18    19    1
    70    18    17    1
    71    66    65    1
    72    35    36    1
    73    14    13    1
    74    76    77    1
    75    78    77   ar
    76    36    37    1
    77    91    92    2
    78     2     1    1
    79     2     3    1
    80    77    79   ar
    81    13    10    1
    82     3     4    2
    83    37    38    1
    84    10     9    1
    85    10    11    1
    86    38    39    1
    87    11    12    2
