@<TRIPOS>MOLECULE
tmp/4e1tA00.pdb
 98 93 0 0 0
SMALL
GASTEIGER

@<TRIPOS>ATOM
      1  N         -1.2670   36.1910    6.8460 N.3    70  LEU70      -0.1245
      2  CA        -0.8240   34.8370    7.1690 C.3    70  LEU70       0.1561
      3  C         -1.6430   34.3060    8.3260 C.2    70  LEU70       0.2260
      4  O         -2.0450   35.0670    9.2250 O.2    70  LEU70      -0.2867
      5  CB         0.6510   34.8260    7.5710 C.3    70  LEU70       0.0270
      6  CG         1.6020   35.1080    6.4200 C.3    70  LEU70       0.0019
      7  CD1        2.9820   35.4860    6.8740 C.3    70  LEU70       0.0001
      8  CD2        1.6280   33.9380    5.3660 C.3    70  LEU70       0.0001
      9  N         -1.2840   25.9990    7.5210 N.3    87  LEU87      -0.1231
     10  CA        -0.7340   27.3370    7.2470 C.3    87  LEU87       0.1693
     11  C         -1.5420   27.9270    6.0810 C.2    87  LEU87       0.2593
     12  O         -1.9550   27.1840    5.1750 O.2    87  LEU87      -0.2718
     13  CB         0.7210   27.2300    6.7760 C.3    87  LEU87       0.0284
     14  CG         1.7460   26.9790    7.8610 C.3    87  LEU87       0.0019
     15  CD1        3.0600   26.5540    7.2730 C.3    87  LEU87       0.0001
     16  CD2        1.9080   28.2930    8.6980 C.3    87  LEU87       0.0001
     17  N         -1.7220   29.2350    6.0870 N.am   88  GLY88      -0.1942
     18  CA        -2.5500   29.8930    5.1130 C.3    88  GLY88       0.2014
     19  C         -1.9130   31.2410    4.8250 C.2    88  GLY88       0.2638
     20  O         -1.2770   31.8090    5.7160 O.2    88  GLY88      -0.2714
     21  N         -2.0230   31.7030    3.5660 N.am   89  ALA89      -0.1977
     22  CA        -1.6420   33.0420    3.1350 C.3    89  ALA89       0.1597
     23  C         -2.8470   33.7390    2.4450 C.2    89  ALA89       0.2287
     24  O         -3.7370   33.0640    1.8930 O.2    89  ALA89      -0.2864
     25  CB        -0.3840   32.9930    2.2150 C.3    89  ALA89       0.0319
     26  N         -4.1560   30.7680   -0.3260 N.3   100  ALA100     -0.1231
     27  CA        -3.4030   29.5050   -0.4890 C.3   100  ALA100      0.1694
     28  C         -3.3760   28.8400    0.8940 C.2   100  ALA100      0.2592
     29  O         -3.1190   29.5040    1.9120 O.2   100  ALA100     -0.2718
     30  CB        -2.0190   29.7660   -0.9870 C.3   100  ALA100      0.0304
     31  N         -3.7020   27.5550    0.9680 N.am  101  ASN101     -0.1960
     32  CA        -3.6190   26.8490    2.2470 C.3   101  ASN101      0.1819
     33  C         -2.8410   25.5500    2.1390 C.2   101  ASN101      0.2621
     34  O         -2.8540   24.8860    1.0950 O.2   101  ASN101     -0.2715
     35  CB        -4.9850   26.5580    2.8470 C.3   101  ASN101      0.1195
     36  CG        -5.8910   27.7900    2.9140 C.2   101  ASN101      0.2630
     37  OD1       -5.8250   28.5650    3.8610 O.2   101  ASN101     -0.2716
     38  ND2       -6.8250   27.8910    1.9690 N.am  101  ASN101     -0.0877
     39  N         -2.1270   25.2220    3.2180 N.am  102  GLY102     -0.1954
     40  CA        -1.4200   23.9250    3.3530 C.3   102  GLY102      0.1869
     41  C         -1.9760   23.2290    4.5810 C.2   102  GLY102      0.2309
     42  O         -2.3370   23.8980    5.5770 O.2   102  GLY102     -0.2863
     43  N         -1.2270   19.7700    7.1190 N.3   104  PHE104     -0.1241
     44  CA        -0.1840   18.7910    7.4590 C.3   104  PHE104      0.1605
     45  C         -0.5730   17.9040    8.6490 C.2   104  PHE104      0.2264
     46  O         -0.9860   18.4090    9.6900 O.2   104  PHE104     -0.2867
     47  CB         1.1780   19.5240    7.7120 C.3   104  PHE104      0.0534
     48  CG         1.4830   20.5920    6.6800 C.ar  104  PHE104     -0.0203
     49  CD1        2.0770   20.2750    5.4880 C.ar  104  PHE104     -0.0042
     50  CD2        1.0900   21.9110    6.8800 C.ar  104  PHE104     -0.0042
     51  CE1        2.2760   21.2370    4.5170 C.ar  104  PHE104     -0.0003
     52  CE2        1.3080   22.8840    5.9210 C.ar  104  PHE104     -0.0003
     53  CZ         1.8880   22.5450    4.7370 C.ar  104  PHE104     -0.0000
     54  N         -1.9070   17.8930    2.1630 N.3   125  GLY125     -0.1210
     55  CA        -2.2920   18.5210    0.9280 C.3   125  GLY125      0.1956
     56  C         -2.3240   20.0180    1.0480 C.2   125  GLY125      0.2612
     57  O         -1.7900   20.5760    1.9990 O.2   125  GLY125     -0.2717
     58  N         -2.9130   20.6690    0.0470 N.am  126  GLY126     -0.1942
     59  CA        -3.1510   22.0960    0.0730 C.3   126  GLY126      0.2014
     60  C         -4.2010   22.5360   -0.9310 C.2   126  GLY126      0.2639
     61  O         -4.6610   21.7370   -1.7570 O.2   126  GLY126     -0.2714
     62  N         -4.5550   23.8260   -0.8880 N.am  127  ASP127     -0.1957
     63  CA        -5.4230   24.3700   -1.9160 C.3   127  ASP127      0.1840
     64  C         -5.1590   25.8300   -2.2750 C.2   127  ASP127      0.2621
     65  O         -4.4740   26.5760   -1.5490 O.2   127  ASP127     -0.2715
     66  CB        -6.9210   24.1130   -1.5730 C.3   127  ASP127      0.1450
     67  CG        -7.3850   24.8500   -0.3210 C.2   127  ASP127      0.3671
     68  OD1       -8.0810   24.2310    0.5130 O.co2 127  ASP127     -0.2456
     69  OD2       -7.0460   26.0480   -0.1520 O.co2 127  ASP127     -0.2456
     70  N         -5.7480   26.2170   -3.4100 N.am  128  LEU128     -0.1977
     71  CA        -5.6850   27.5650   -3.9800 C.3   128  LEU128      0.1596
     72  C         -7.1000   28.0180   -4.1410 C.2   128  LEU128      0.2287
     73  O         -7.8980   27.3030   -4.7450 O.2   128  LEU128     -0.2864
     74  CB        -5.0260   27.4660   -5.3370 C.3   128  LEU128      0.0297
     75  CG        -3.5200   27.7040   -5.4860 C.3   128  LEU128      0.0022
     76  CD1       -2.6980   27.7390   -4.1820 C.3   128  LEU128      0.0001
     77  CD2       -2.8670   26.8010   -6.5630 C.3   128  LEU128      0.0001
     78  N         -8.6480   25.0270   -6.5340 N.3   146  TYR146     -0.1241
     79  CA        -7.9710   23.7870   -6.8560 C.3   146  TYR146      0.1605
     80  C         -7.4480   23.1960   -5.5220 C.2   146  TYR146      0.2264
     81  O         -6.9090   23.9540   -4.6850 O.2   146  TYR146     -0.2867
     82  CB        -6.8410   24.0520   -7.8450 C.3   146  TYR146      0.0534
     83  CG        -5.9970   22.8430   -8.1570 C.ar  146  TYR146     -0.0201
     84  CD1       -4.7240   22.6900   -7.6040 C.ar  146  TYR146     -0.0009
     85  CD2       -6.4570   21.8400   -9.0070 C.ar  146  TYR146     -0.0009
     86  CE1       -3.9450   21.5650   -7.8660 C.ar  146  TYR146      0.0417
     87  CE2       -5.6830   20.7380   -9.2840 C.ar  146  TYR146      0.0417
     88  CZ        -4.4270   20.6060   -8.7070 C.ar  146  TYR146      0.1957
     89  OH        -3.6420   19.5070   -8.9870 O.3   146  TYR146     -0.2866
     90  N         -5.3470   19.5990   -3.8420 N.3   148  GLN148     -0.1245
     91  CA        -4.5780   18.3940   -4.1040 C.3   148  GLN148      0.1566
     92  C         -4.0800   17.8260   -2.7850 C.2   148  GLN148      0.2260
     93  O         -3.5740   18.5710   -1.9240 O.2   148  GLN148     -0.2867
     94  CB        -3.3840   18.6860   -5.0010 C.3   148  GLN148      0.0367
     95  CG        -2.7560   17.3950   -5.5880 C.3   148  GLN148      0.0905
     96  CD        -1.3140   17.5860   -6.0110 C.2   148  GLN148      0.2608
     97  OE1       -0.9240   18.6940   -6.4090 O.2   148  GLN148     -0.2717
     98  NE2       -0.5030   16.5110   -5.9280 N.am  148  GLN148     -0.0878
@<TRIPOS>BOND
     1    87    85   ar
     2    87    88   ar
     3    85    83   ar
     4    89    88    1
     5    88    86   ar
     6    83    82    1
     7    83    84   ar
     8    86    84   ar
     9    82    79    1
    10    79    78    1
    11    79    80    1
    12    77    75    1
    13    97    96    2
    14    96    98   am
    15    96    95    1
    16    95    94    1
    17    80    81    2
    18    75    74    1
    19    75    76    1
    20    74    71    1
    21    94    91    1
    22    73    72    2
    23    72    71    1
    24    91    90    1
    25    91    92    1
    26    71    70    1
    27    70    64   am
    28    92    93    2
    29    64    63    1
    30    64    65    2
    31    63    66    1
    32    63    62    1
    33    61    60    2
    34    66    67    1
    35    30    27    1
    36    60    62   am
    37    60    59    1
    38    27    26    1
    39    27    28    1
    40    67    69   ar
    41    67    68   ar
    42    58    59    1
    43    58    56   am
    44    28    31   am
    45    28    29    2
    46    55    56    1
    47    55    54    1
    48    31    32    1
    49    56    57    2
    50    34    33    2
    51    24    23    2
    52    38    36   am
    53    33    32    1
    54    33    39   am
    55    25    22    1
    56    32    35    1
    57    23    22    1
    58    35    36    1
    59    36    37    2
    60    22    21    1
    61    39    40    1
    62    40    41    1
    63    21    19   am
    64    51    53   ar
    65    51    49   ar
    66    41    42    2
    67    53    52   ar
    68    19    18    1
    69    19    20    2
    70    18    17    1
    71    12    11    2
    72     8     6    1
    73    49    48   ar
    74    52    50   ar
    75    11    17   am
    76    11    10    1
    77     6     7    1
    78     6     5    1
    79    48    50   ar
    80    48    47    1
    81    13    10    1
    82    13    14    1
    83     1     2    1
    84    43    44    1
    85     2     5    1
    86     2     3    1
    87    10     9    1
    88    15    14    1
    89    44    47    1
    90    44    45    1
    91    14    16    1
    92     3     4    2
    93    45    46    2
