@<TRIPOS>MOLECULE
tmp/4e1zA00.pdb
 200 190 0 0 0
SMALL
GASTEIGER

@<TRIPOS>ATOM
      1  N         34.6990  -16.4190   38.9990 N.3    15  ARG15      -0.1245
      2  CA        35.6100  -15.3330   38.6000 C.3    15  ARG15       0.1563
      3  C         34.9540  -14.3870   37.5680 C.2    15  ARG15       0.2260
      4  O         33.8880  -14.6880   37.0270 O.2    15  ARG15      -0.2867
      5  CB        36.9090  -15.9320   37.9920 C.3    15  ARG15       0.0307
      6  CG        36.6850  -16.7510   36.7050 C.3    15  ARG15       0.0489
      7  CD        37.9380  -17.3200   36.0570 C.3    15  ARG15       0.2205
      8  NE        37.5770  -18.2110   34.9480 N.pl3  15  ARG15      -0.0865
      9  CZ        37.8560  -17.9940   33.6590 C.cat  15  ARG15       0.5346
     10  NH1       38.5520  -16.9240   33.2930 N.pl3  15  ARG15       0.1354
     11  NH2       37.4400  -18.8490   32.7290 N.pl3  15  ARG15       0.1354
     12  N         34.9850  -12.6000   33.7440 N.3    17  LEU17      -0.1231
     13  CA        35.2820  -13.0680   32.3840 C.3    17  LEU17       0.1693
     14  C         35.5550  -11.9570   31.4140 C.2    17  LEU17       0.2593
     15  O         36.2240  -12.1810   30.4130 O.2    17  LEU17      -0.2718
     16  CB        34.1320  -13.9420   31.8240 C.3    17  LEU17       0.0284
     17  CG        33.7400  -15.1940   32.6080 C.3    17  LEU17       0.0019
     18  CD1       32.5300  -15.8900   31.9520 C.3    17  LEU17       0.0001
     19  CD2       34.9360  -16.1320   32.7970 C.3    17  LEU17       0.0001
     20  N         34.9690  -10.8020   31.6610 N.am   18  GLY18      -0.1942
     21  CA        35.0920   -9.6360   30.7930 C.3    18  GLY18       0.2014
     22  C         34.3700   -8.4280   31.3520 C.2    18  GLY18       0.2639
     23  O         33.4390   -8.5470   32.1590 O.2    18  GLY18      -0.2714
     24  N         34.8160   -7.2560   30.9150 N.am   19  GLU19      -0.1963
     25  CA        34.3430   -5.9530   31.3540 C.3    19  GLU19       0.1733
     26  C         34.3540   -4.9660   30.1670 C.2    19  GLU19       0.2616
     27  O         35.3350   -4.8610   29.4360 O.2    19  GLU19      -0.2715
     28  CB        35.2850   -5.4650   32.4590 C.3    19  GLU19       0.0429
     29  CG        34.7760   -4.2770   33.2390 C.3    19  GLU19       0.1163
     30  CD        35.5790   -3.8620   34.4530 C.2    19  GLU19       0.3649
     31  OE1       36.7650   -4.2470   34.5670 O.co2  19  GLU19      -0.2457
     32  OE2       35.0170   -3.1180   35.2870 O.co2  19  GLU19      -0.2457
     33  N         33.2260   -4.3100   29.9580 N.am   20  GLY20      -0.1955
     34  CA        33.0700   -3.2800   28.9500 C.3    20  GLY20       0.1869
     35  C         32.7620   -1.9870   29.6740 C.2    20  GLY20       0.2309
     36  O         32.8000   -1.9460   30.9100 O.2    20  GLY20      -0.2863
     37  N         28.8100   -2.9570   30.9800 N.3    23  GLY23      -0.1210
     38  CA        28.5660   -4.2670   31.5660 C.3    23  GLY23       0.1956
     39  C         29.7680   -4.9910   32.1150 C.2    23  GLY23       0.2612
     40  O         30.9220   -4.6410   31.8530 O.2    23  GLY23      -0.2717
     41  N         29.4780   -6.0150   32.8800 N.am   24  LYS24      -0.1965
     42  CA        30.4620   -6.9210   33.4500 C.3    24  LYS24       0.1728
     43  C         29.9390   -8.3410   33.2020 C.2    24  LYS24       0.2616
     44  O         28.7450   -8.5900   33.3730 O.2    24  LYS24      -0.2715
     45  CB        30.6480   -6.6590   34.9570 C.3    24  LYS24       0.0311
     46  CG        31.9030   -7.3300   35.5420 C.3    24  LYS24       0.0038
     47  CD        32.2740   -6.7820   36.9250 C.3    24  LYS24       0.0206
     48  CE        33.0560   -5.4880   36.8740 C.3    24  LYS24       0.1093
     49  NZ        33.1900   -4.8680   38.2190 N.3    24  LYS24      -0.1314
     50  N         30.8210   -9.2420   32.7550 N.am   25  VAL25      -0.1977
     51  CA        30.4850  -10.6450   32.5260 C.3    25  VAL25       0.1596
     52  C         31.3450  -11.5030   33.4660 C.2    25  VAL25       0.2287
     53  O         32.5470  -11.2960   33.5400 O.2    25  VAL25      -0.2864
     54  CB        30.4270  -11.0880   31.0120 C.3    25  VAL25       0.0276
     55  CG1       31.7180  -10.7900   30.2710 C.3    25  VAL25       0.0022
     56  CG2       30.0330  -12.5540   30.8550 C.3    25  VAL25       0.0022
     57  N         27.6390  -18.0930   32.0920 N.3    42  ALA42      -0.1245
     58  CA        28.1950  -16.7410   32.0900 C.3    42  ALA42       0.1562
     59  C         27.0210  -15.8020   32.3950 C.2    42  ALA42       0.2260
     60  O         25.9300  -15.9450   31.8180 O.2    42  ALA42      -0.2867
     61  CB        28.7950  -16.4000   30.7410 C.3    42  ALA42       0.0290
     62  N         26.0290  -11.7300   32.6480 N.3    44  LYS44      -0.1245
     63  CA        26.3170  -10.3400   32.3000 C.3    44  LYS44       0.1561
     64  C         25.3690   -9.4380   33.0930 C.2    44  LYS44       0.2260
     65  O         24.1570   -9.6810   33.1750 O.2    44  LYS44      -0.2867
     66  CB        26.1760  -10.0900   30.7830 C.3    44  LYS44       0.0271
     67  CG        26.4740   -8.6590   30.3890 C.3    44  LYS44       0.0035
     68  CD        26.4270   -8.4570   28.9160 C.3    44  LYS44       0.0206
     69  CE        26.8400   -7.0500   28.5700 C.3    44  LYS44       0.1093
     70  NZ        27.0880   -6.8910   27.1040 N.3    44  LYS44      -0.1314
     71  N         26.6810  -16.9860   20.7700 N.3    74  VAL74      -0.1245
     72  CA        26.5760  -17.4250   22.1680 C.3    74  VAL74       0.1561
     73  C         25.0980  -17.6370   22.5270 C.2    74  VAL74       0.2260
     74  O         24.2710  -16.7800   22.2250 O.2    74  VAL74      -0.2867
     75  CB        27.3400  -16.4580   23.1410 C.3    74  VAL74       0.0252
     76  CG1       26.7090  -15.0590   23.2010 C.3    74  VAL74       0.0019
     77  CG2       27.4830  -17.0570   24.5380 C.3    74  VAL74       0.0019
     78  N         23.9380  -16.5790   29.9490 N.3    89  MET89      -0.1230
     79  CA        24.3390  -17.1760   28.6890 C.3    89  MET89       0.1702
     80  C         25.1180  -18.4450   29.0080 C.2    89  MET89       0.2592
     81  O         25.5400  -18.6510   30.1520 O.2    89  MET89      -0.2718
     82  CB        25.2850  -16.2490   27.9230 C.3    89  MET89       0.0401
     83  CG        24.6500  -15.0340   27.3320 C.3    89  MET89       0.0596
     84  SD        25.9450  -13.8000   27.1030 S.3    89  MET89      -0.1393
     85  CE        25.9150  -13.0760   28.6640 C.3    89  MET89       0.0692
     86  N         25.3850  -19.2470   27.9810 N.am   90  GLU90      -0.1966
     87  CA        26.1650  -20.4650   28.1130 C.3    90  GLU90       0.1733
     88  C         27.6290  -20.1550   28.4470 C.2    90  GLU90       0.2616
     89  O         28.1540  -19.0990   28.0790 O.2    90  GLU90      -0.2715
     90  CB        26.0890  -21.2760   26.7960 C.3    90  GLU90       0.0429
     91  CG        26.8490  -20.6600   25.6250 C.3    90  GLU90       0.1163
     92  CD        26.9660  -21.5080   24.3790 C.2    90  GLU90       0.3649
     93  OE1       27.1950  -22.7360   24.4920 O.co2  90  GLU90      -0.2457
     94  OE2       26.8280  -20.9350   23.2770 O.co2  90  GLU90      -0.2457
     95  N         28.3070  -21.1220   29.0620 N.am   91  TYR91      -0.1960
     96  CA        29.7320  -20.9860   29.3280 C.3    91  TYR91       0.1771
     97  C         30.4880  -21.6910   28.2050 C.2    91  TYR91       0.2619
     98  O         30.1740  -22.8370   27.8740 O.2    91  TYR91      -0.2715
     99  CB        30.1030  -21.5540   30.7070 C.3    91  TYR91       0.0574
    100  CG        31.5930  -21.6120   30.9370 C.ar   91  TYR91      -0.0198
    101  CD1       32.3560  -20.4480   30.9800 C.ar   91  TYR91      -0.0009
    102  CD2       32.2440  -22.8280   31.1170 C.ar   91  TYR91      -0.0009
    103  CE1       33.7330  -20.4920   31.1950 C.ar   91  TYR91       0.0417
    104  CE2       33.6200  -22.8840   31.3500 C.ar   91  TYR91       0.0417
    105  CZ        34.3580  -21.7140   31.3840 C.ar   91  TYR91       0.1957
    106  OH        35.7060  -21.7570   31.6010 O.3    91  TYR91      -0.2866
    107  N         31.4290  -20.9710   27.5760 N.am   92  VAL92      -0.1964
    108  CA        32.2560  -21.4630   26.4800 C.3    92  VAL92       0.1712
    109  C         33.7040  -21.6130   27.0040 C.2    92  VAL92       0.2458
    110  O         34.3250  -20.6380   27.4330 O.2    92  VAL92      -0.2730
    111  CB        32.0650  -20.7120   25.1280 C.3    92  VAL92       0.0289
    112  CG1       30.6000  -20.7310   24.6930 C.3    92  VAL92       0.0023
    113  CG2       32.5570  -19.2950   25.1920 C.3    92  VAL92       0.0023
    114  N         34.1760  -22.8670   27.1480 N.am   93  PRO93      -0.2716
    115  CA        35.4540  -23.1010   27.8390 C.3    93  PRO93       0.1536
    116  C         36.7630  -22.5310   27.3030 C.2    93  PRO93       0.2598
    117  O         37.7320  -22.5160   28.0660 O.2    93  PRO93      -0.2715
    118  CB        35.5020  -24.6240   27.9780 C.3    93  PRO93       0.0310
    119  CG        34.5960  -25.1470   26.8830 C.3    93  PRO93       0.0237
    120  CD        33.5020  -24.1430   26.8050 C.3    93  PRO93       0.0939
    121  N         36.8300  -22.0810   26.0270 N.am   94  LEU94      -0.1964
    122  CA        38.1120  -21.5850   25.5020 C.3    94  LEU94       0.1728
    123  C         38.4150  -20.0840   25.5560 C.2    94  LEU94       0.2617
    124  O         39.5560  -19.7000   25.2970 O.2    94  LEU94      -0.2715
    125  CB        38.4850  -22.1990   24.1390 C.3    94  LEU94       0.0311
    126  CG        38.8010  -23.6970   24.0900 C.3    94  LEU94       0.0022
    127  CD1       39.1180  -24.1280   22.6670 C.3    94  LEU94       0.0001
    128  CD2       39.9920  -24.0460   24.9920 C.3    94  LEU94       0.0001
    129  N         37.4230  -19.2590   25.8980 N.am   95  GLY95      -0.1940
    130  CA        37.5930  -17.8060   26.0020 C.3    95  GLY95       0.2014
    131  C         37.5560  -17.0280   24.7030 C.2    95  GLY95       0.2639
    132  O         37.1710  -17.5650   23.6570 O.2    95  GLY95      -0.2714
    133  N         37.9570  -15.7500   24.7640 N.am   96  SER96      -0.1949
    134  CA        37.9580  -14.8780   23.5820 C.3    96  SER96       0.1924
    135  C         39.1820  -15.0650   22.7150 C.2    96  SER96       0.2314
    136  O         40.2020  -15.5330   23.2160 O.2    96  SER96      -0.2863
    137  CB        37.7620  -13.4120   23.9530 C.3    96  SER96       0.2116
    138  OG        38.8750  -12.8330   24.6110 O.3    96  SER96      -0.2180
    139  N         40.9610  -12.7480   21.6310 N.3    98  ARG98      -0.1231
    140  CA        41.9430  -11.8260   22.1730 C.3    98  ARG98       0.1694
    141  C         42.7850  -12.5270   23.2650 C.2    98  ARG98       0.2592
    142  O         43.9840  -12.3000   23.3150 O.2    98  ARG98      -0.2718
    143  CB        41.2970  -10.5270   22.6840 C.3    98  ARG98       0.0321
    144  CG        42.3150   -9.3790   22.8960 C.3    98  ARG98       0.0489
    145  CD        41.7190   -8.1380   23.5510 C.3    98  ARG98       0.2205
    146  NE        40.9100   -8.4510   24.7390 N.pl3  98  ARG98      -0.0865
    147  CZ        40.2900   -7.5420   25.4920 C.cat  98  ARG98       0.5346
    148  NH1       40.4000   -6.2480   25.2120 N.pl3  98  ARG98       0.1354
    149  NH2       39.5560   -7.9230   26.5310 N.pl3  98  ARG98       0.1354
    150  N         42.1810  -13.3950   24.0870 N.am   99  ASP99      -0.1974
    151  CA        42.9180  -14.1040   25.1290 C.3    99  ASP99       0.1709
    152  C         43.4810  -15.4600   24.6910 C.2    99  ASP99       0.2293
    153  O         44.4670  -15.9250   25.2610 O.2    99  ASP99      -0.2864
    154  CB        42.0870  -14.2500   26.4070 C.3    99  ASP99       0.1436
    155  CG        41.4940  -12.9630   26.9700 C.2    99  ASP99       0.3671
    156  OD1       40.4230  -13.0380   27.6080 O.co2  99  ASP99      -0.2456
    157  OD2       42.1010  -11.8750   26.7640 O.co2  99  ASP99      -0.2456
    158  N         38.0680   -9.6010   20.7370 N.3   138  ARG138     -0.1231
    159  CA        37.7080   -9.7100   22.1480 C.3   138  ARG138      0.1694
    160  C         36.2580  -10.1390   22.3820 C.2   138  ARG138      0.2592
    161  O         35.9560  -10.6200   23.4770 O.2   138  ARG138     -0.2718
    162  CB        38.0270   -8.4090   22.8930 C.3   138  ARG138      0.0321
    163  CG        37.2110   -7.2200   22.4340 C.3   138  ARG138      0.0489
    164  CD        37.5630   -5.9610   23.1890 C.3   138  ARG138      0.2205
    165  NE        37.0530   -4.8030   22.4590 N.pl3 138  ARG138     -0.0865
    166  CZ        35.8480   -4.2720   22.6470 C.cat 138  ARG138      0.5346
    167  NH1       35.0310   -4.7660   23.5710 N.pl3 138  ARG138      0.1354
    168  NH2       35.4500   -3.2450   21.9120 N.pl3 138  ARG138      0.1354
    169  N         35.3700   -9.9640   21.3740 N.am  139  ASN139     -0.1974
    170  CA        33.9530  -10.3270   21.4780 C.3   139  ASN139      0.1688
    171  C         33.6060  -11.6320   20.7760 C.2   139  ASN139      0.2292
    172  O         32.4620  -12.1150   20.8810 O.2   139  ASN139     -0.2864
    173  CB        33.0370   -9.1710   21.0640 C.3   139  ASN139      0.1181
    174  CG        33.1820   -7.9430   21.9190 C.2   139  ASN139      0.2629
    175  OD1       33.2790   -8.0220   23.1360 O.2   139  ASN139     -0.2716
    176  ND2       33.1890   -6.7770   21.2970 N.am  139  ASN139     -0.0877
    177  N         34.2530  -15.6210   20.7520 N.3   141  LEU141     -0.1245
    178  CA        34.6190  -16.6750   21.7040 C.3   141  LEU141      0.1561
    179  C         34.8030  -18.0460   21.0810 C.2   141  LEU141      0.2260
    180  O         34.1910  -18.3380   20.0460 O.2   141  LEU141     -0.2867
    181  CB        33.5640  -16.7870   22.8100 C.3   141  LEU141      0.0270
    182  CG        33.0550  -15.4850   23.4440 C.3   141  LEU141      0.0019
    183  CD1       31.8390  -15.7520   24.2920 C.3   141  LEU141      0.0001
    184  CD2       34.1780  -14.7130   24.1880 C.3   141  LEU141      0.0001
    185  N         30.1180  -13.4410   21.0140 N.3   151  GLY151     -0.1210
    186  CA        29.7250  -13.4470   22.4150 C.3   151  GLY151      0.1956
    187  C         29.1980  -12.2030   23.0820 C.2   151  GLY151      0.2611
    188  O         28.8170  -12.2600   24.2630 O.2   151  GLY151     -0.2717
    189  N         29.2020  -11.0660   22.3720 N.am  152  ASP152     -0.1973
    190  CA        28.6740   -9.8620   22.9910 C.3   152  ASP152      0.1709
    191  C         27.8820   -9.0440   22.0100 C.2   152  ASP152      0.2293
    192  O         28.3260   -8.8910   20.8690 O.2   152  ASP152     -0.2864
    193  CB        29.7320   -9.0440   23.7180 C.3   152  ASP152      0.1436
    194  CG        29.0740   -8.1560   24.7510 C.2   152  ASP152      0.3671
    195  OD1       28.7760   -8.6640   25.8760 O.co2 152  ASP152     -0.2456
    196  OD2       28.7700   -6.9740   24.4130 O.co2 152  ASP152     -0.2456
    197  N         26.0850   -5.9740   23.2120 N.3   154  GLY154     -0.1225
    198  CA        25.8740   -4.7400   23.9640 C.3   154  GLY154      0.1811
    199  C         25.5960   -3.5000   23.1340 C.2   154  GLY154      0.2280
    200  O         24.8870   -2.6110   23.6030 O.2   154  GLY154     -0.2866
@<TRIPOS>BOND
     1   180   179    2
     2   158   159    1
     3   177   178    1
     4    71    72    1
     5   171   172    2
     6   171   170    1
     7   192   191    2
     8   185   186    1
     9   173   170    1
    10   173   174    1
    11   179   178    1
    12   176   174   am
    13   169   170    1
    14   169   160   am
    15   139   140    1
    16   178   181    1
    17   168   166    1
    18   174   175    2
    19   191   190    1
    20   159   160    1
    21   159   162    1
    22    72    73    1
    23    72    75    1
    24   140   143    1
    25   140   141    1
    26    74    73    2
    27   189   190    1
    28   189   187   am
    29   160   161    2
    30   186   187    1
    31   163   162    1
    32   163   164    1
    33   165   166    2
    34   165   164    1
    35   166   167    1
    36   127   126    1
    37   143   144    1
    38   135   136    2
    39   135   134    1
    40   181   182    1
    41   144   145    1
    42   190   193    1
    43   187   188    2
    44   199   200    2
    45   199   198    1
    46    75    76    1
    47    75    77    1
    48   197   198    1
    49   141   142    2
    50   141   150   am
    51    94    92   ar
    52   182   184    1
    53   182   183    1
    54   145   146    1
    55   134   137    1
    56   134   133    1
    57   132   131    2
    58   193   194    1
    59   137   138    1
    60   150   151    1
    61   126   125    1
    62   126   128    1
    63   125   122    1
    64    92    93   ar
    65    92    91    1
    66   196   194   ar
    67   152   151    1
    68   152   153    2
    69   112   111    1
    70   131   133   am
    71   131   130    1
    72   146   147    2
    73   194   195   ar
    74   111   113    1
    75   111   108    1
    76   151   154    1
    77   148   147    1
    78   124   123    2
    79   147   149    1
    80   122   123    1
    81   122   121    1
    82   123   129   am
    83    91    90    1
    84   129   130    1
    85   121   116   am
    86   154   155    1
    87   108   109    1
    88   108   107    1
    89   157   155   ar
    90    90    87    1
    91   120   119    1
    92   120   114    1
    93   119   118    1
    94   155   156   ar
    95   109   114   am
    96   109   110    2
    97    84    83    1
    98    84    85    1
    99    70    69    1
   100   114   115    1
   101   116   115    1
   102   116   117    2
   103    83    82    1
   104   107    97   am
   105   115   118    1
   106    98    97    2
   107    82    79    1
   108    86    87    1
   109    86    80   am
   110    89    88    2
   111    87    88    1
   112    97    96    1
   113    88    95   am
   114    69    68    1
   115    79    80    1
   116    79    78    1
   117    68    67    1
   118    34    35    1
   119    34    33    1
   120    80    81    2
   121    95    96    1
   122    96    99    1
   123    27    26    2
   124    35    36    2
   125    33    26   am
   126    26    25    1
   127    55    54    1
   128    67    66    1
   129    15    14    2
   130    99   100    1
   131    61    58    1
   132    66    63    1
   133    21    22    1
   134    21    20    1
   135    56    54    1
   136    24    22   am
   137    24    25    1
   138   100   101   ar
   139   100   102   ar
   140   101   103   ar
   141    37    38    1
   142    54    51    1
   143   102   104   ar
   144   103   105   ar
   145   104   105   ar
   146    22    23    2
   147    25    28    1
   148   105   106    1
   149    14    20   am
   150    14    13    1
   151    38    39    1
   152    60    59    2
   153    16    13    1
   154    16    17    1
   155    40    39    2
   156    18    17    1
   157    58    57    1
   158    58    59    1
   159    39    41   am
   160    63    62    1
   161    63    64    1
   162    13    12    1
   163    28    29    1
   164    51    50    1
   165    51    52    1
   166    17    19    1
   167    11     9    1
   168    50    43   am
   169    41    42    1
   170    64    65    2
   171    43    44    2
   172    43    42    1
   173    29    30    1
   174    10     9    1
   175    42    45    1
   176    52    53    2
   177     9     8    2
   178    30    31   ar
   179    30    32   ar
   180     8     7    1
   181    45    46    1
   182    46    47    1
   183     7     6    1
   184     6     5    1
   185    48    47    1
   186    48    49    1
   187     4     3    2
   188     3     2    1
   189     5     2    1
   190     2     1    1
