@<TRIPOS>MOLECULE
tmp/4e20A00.pdb
 174 163 0 0 0
SMALL
GASTEIGER

@<TRIPOS>ATOM
      1  N         34.9590  -12.4390   33.2850 N.3    16  LEU16      -0.1231
      2  CA        35.1810  -12.8650   31.8930 C.3    16  LEU16       0.1693
      3  C         35.4690  -11.7190   30.9320 C.2    16  LEU16       0.2593
      4  O         36.1150  -11.9270   29.8950 O.2    16  LEU16      -0.2718
      5  CB        34.0430  -13.7690   31.3610 C.3    16  LEU16       0.0284
      6  CG        33.8620  -15.1310   32.0550 C.3    16  LEU16       0.0019
      7  CD1       32.7710  -15.9570   31.3830 C.3    16  LEU16       0.0001
      8  CD2       35.1830  -15.9170   32.1380 C.3    16  LEU16       0.0001
      9  N         35.0010  -10.5270   31.2920 N.am   17  GLY17      -0.1942
     10  CA        35.1720   -9.3340   30.4790 C.3    17  GLY17       0.2014
     11  C         34.4240   -8.1620   31.0460 C.2    17  GLY17       0.2639
     12  O         33.5620   -8.3190   31.9050 O.2    17  GLY17      -0.2714
     13  N         34.7620   -6.9800   30.5730 N.am   18  GLU18      -0.1963
     14  CA        34.1730   -5.7240   31.0150 C.3    18  GLU18       0.1733
     15  C         34.2720   -4.6730   29.9210 C.2    18  GLU18       0.2616
     16  O         35.3520   -4.4380   29.3640 O.2    18  GLU18      -0.2715
     17  CB        34.9050   -5.2390   32.2660 C.3    18  GLU18       0.0429
     18  CG        34.1810   -4.1320   32.9920 C.3    18  GLU18       0.1163
     19  CD        34.9040   -3.5880   34.2060 C.2    18  GLU18       0.3649
     20  OE1       34.5620   -2.4590   34.6210 O.co2  18  GLU18      -0.2457
     21  OE2       35.7850   -4.2890   34.7560 O.co2  18  GLU18      -0.2457
     22  N         33.1340   -4.0560   29.6340 N.am   19  GLY19      -0.1955
     23  CA        33.0160   -2.9590   28.6800 C.3    19  GLY19       0.1869
     24  C         32.7120   -1.6770   29.4260 C.2    19  GLY19       0.2309
     25  O         32.8180   -1.6320   30.6560 O.2    19  GLY19      -0.2863
     26  N         28.6280   -2.7450   30.6280 N.3    22  GLY22      -0.1210
     27  CA        28.3690   -4.1010   31.1100 C.3    22  GLY22       0.1956
     28  C         29.5330   -4.8310   31.7420 C.2    22  GLY22       0.2612
     29  O         30.6880   -4.4170   31.6030 O.2    22  GLY22      -0.2717
     30  N         29.2330   -5.9580   32.4130 N.am   23  LYS23      -0.1965
     31  CA        30.2330   -6.8220   33.0490 C.3    23  LYS23       0.1728
     32  C         29.8500   -8.3070   32.8510 C.2    23  LYS23       0.2616
     33  O         28.6960   -8.6710   33.0940 O.2    23  LYS23      -0.2715
     34  CB        30.3910   -6.4320   34.5410 C.3    23  LYS23       0.0311
     35  CG        31.2850   -7.3340   35.3970 C.3    23  LYS23       0.0038
     36  CD        32.7620   -7.0180   35.2440 C.3    23  LYS23       0.0206
     37  CE        33.5960   -8.2740   35.1990 C.3    23  LYS23       0.1093
     38  NZ        34.9730   -8.0060   34.6940 N.3    23  LYS23      -0.1314
     39  N         30.7880   -9.1460   32.3710 N.am   24  VAL24      -0.1977
     40  CA        30.5490  -10.5940   32.1760 C.3    24  VAL24       0.1596
     41  C         31.3660  -11.3360   33.2030 C.2    24  VAL24       0.2287
     42  O         32.5590  -11.0950   33.2880 O.2    24  VAL24      -0.2864
     43  CB        30.8520  -11.1910   30.7620 C.3    24  VAL24       0.0276
     44  CG1       30.0920  -12.4890   30.5350 C.3    24  VAL24       0.0022
     45  CG2       30.5580  -10.2260   29.6430 C.3    24  VAL24       0.0022
     46  N         27.7250  -18.0280   31.8280 N.3    41  ALA41      -0.1245
     47  CA        28.3390  -16.7050   31.7990 C.3    41  ALA41       0.1562
     48  C         27.1940  -15.7810   32.1130 C.2    41  ALA41       0.2260
     49  O         26.1000  -15.9490   31.5570 O.2    41  ALA41      -0.2867
     50  CB        28.9170  -16.4050   30.4230 C.3    41  ALA41       0.0290
     51  N         26.0690  -11.8060   32.3710 N.3    43  LYS43      -0.1245
     52  CA        26.2690  -10.4010   32.0210 C.3    43  LYS43       0.1561
     53  C         25.2890   -9.4940   32.8180 C.2    43  LYS43       0.2260
     54  O         24.0740   -9.7330   32.8730 O.2    43  LYS43      -0.2867
     55  CB        26.1100  -10.1660   30.5080 C.3    43  LYS43       0.0271
     56  CG        26.6640   -8.8110   30.0720 C.3    43  LYS43       0.0035
     57  CD        26.5190   -8.5610   28.6000 C.3    43  LYS43       0.0206
     58  CE        26.8240   -7.1110   28.3590 C.3    43  LYS43       0.1093
     59  NZ        26.8540   -6.7790   26.9140 N.3    43  LYS43      -0.1314
     60  N         26.5830  -16.8840   20.5340 N.3    73  VAL73      -0.1245
     61  CA        26.5120  -17.3310   21.9320 C.3    73  VAL73       0.1561
     62  C         25.0470  -17.6090   22.3220 C.2    73  VAL73       0.2260
     63  O         24.1870  -16.7630   22.0900 O.2    73  VAL73      -0.2867
     64  CB        27.2860  -16.3680   22.8960 C.3    73  VAL73       0.0252
     65  CG1       26.6070  -15.0200   23.0250 C.3    73  VAL73       0.0019
     66  CG2       27.5200  -16.9910   24.2680 C.3    73  VAL73       0.0019
     67  N         23.9980  -16.7380   29.8550 N.3    87  MET87      -0.1230
     68  CA        24.4220  -17.3110   28.5850 C.3    87  MET87       0.1702
     69  C         25.2050  -18.5900   28.8310 C.2    87  MET87       0.2592
     70  O         25.5600  -18.9090   29.9770 O.2    87  MET87      -0.2718
     71  CB        25.3190  -16.3120   27.8360 C.3    87  MET87       0.0401
     72  CG        24.5850  -15.1160   27.2870 C.3    87  MET87       0.0596
     73  SD        25.7030  -13.7880   26.8190 S.3    87  MET87      -0.1393
     74  CE        26.1660  -13.1480   28.3890 C.3    87  MET87       0.0692
     75  N         25.5180  -19.3070   27.7480 N.am   88  GLU88      -0.1966
     76  CA        26.3320  -20.5120   27.8330 C.3    88  GLU88       0.1733
     77  C         27.7710  -20.0960   28.1610 C.2    88  GLU88       0.2616
     78  O         28.1670  -18.9550   27.8590 O.2    88  GLU88      -0.2715
     79  CB        26.2860  -21.3060   26.5040 C.3    88  GLU88       0.0429
     80  CG        26.8790  -20.5820   25.3070 C.3    88  GLU88       0.1163
     81  CD        27.1000  -21.4040   24.0570 C.2    88  GLU88       0.3649
     82  OE1       26.9060  -20.8500   22.9540 O.co2  88  GLU88      -0.2457
     83  OE2       27.5030  -22.5840   24.1710 O.co2  88  GLU88      -0.2457
     84  N         28.5540  -21.0050   28.7720 N.am   89  TYR89      -0.1960
     85  CA        29.9600  -20.7060   28.9990 C.3    89  TYR89       0.1771
     86  C         30.7140  -21.2790   27.8100 C.2    89  TYR89       0.2619
     87  O         30.5700  -22.4720   27.5090 O.2    89  TYR89      -0.2715
     88  CB        30.4650  -21.2620   30.3400 C.3    89  TYR89       0.0574
     89  CG        31.9590  -21.1420   30.5560 C.ar   89  TYR89      -0.0198
     90  CD1       32.6200  -19.9260   30.3600 C.ar   89  TYR89      -0.0009
     91  CD2       32.7010  -22.2180   31.0460 C.ar   89  TYR89      -0.0009
     92  CE1       33.9850  -19.7970   30.6080 C.ar   89  TYR89       0.0417
     93  CE2       34.0730  -22.1000   31.2960 C.ar   89  TYR89       0.0417
     94  CZ        34.7110  -20.8930   31.0580 C.ar   89  TYR89       0.1957
     95  OH        36.0550  -20.7750   31.2920 O.3    89  TYR89      -0.2866
     96  N         31.4380  -20.4010   27.0790 N.am   90  VAL90      -0.1977
     97  CA        32.2690  -20.7210   25.9010 C.3    90  VAL90       0.1596
     98  C         33.7220  -20.7340   26.4480 C.2    90  VAL90       0.2287
     99  O         34.3020  -19.6800   26.7400 O.2    90  VAL90      -0.2864
    100  CB        31.9930  -19.7490   24.7330 C.3    90  VAL90       0.0276
    101  CG1       32.7460  -20.1720   23.4940 C.3    90  VAL90       0.0022
    102  CG2       30.4990  -19.6710   24.4340 C.3    90  VAL90       0.0022
    103  N         37.4320  -18.5780   25.8810 N.3    93  GLY93      -0.1210
    104  CA        37.3480  -17.1260   25.9760 C.3    93  GLY93       0.1956
    105  C         37.4440  -16.4380   24.6410 C.2    93  GLY93       0.2612
    106  O         37.2550  -17.0640   23.6010 O.2    93  GLY93      -0.2717
    107  N         37.7610  -15.1510   24.6550 N.am   94  SER94      -0.1952
    108  CA        37.8380  -14.3640   23.4360 C.3    94  SER94       0.1924
    109  C         39.0950  -14.6090   22.6190 C.2    94  SER94       0.2314
    110  O         40.1420  -14.9290   23.1780 O.2    94  SER94      -0.2863
    111  CB        37.6480  -12.8810   23.7400 C.3    94  SER94       0.2116
    112  OG        38.8490  -12.2410   24.1310 O.3    94  SER94      -0.2180
    113  N         40.8480  -12.2640   21.3130 N.3    96  ARG96      -0.1231
    114  CA        41.8230  -11.2220   21.6950 C.3    96  ARG96       0.1694
    115  C         42.7290  -11.7180   22.8520 C.2    96  ARG96       0.2592
    116  O         43.9300  -11.4800   22.8230 O.2    96  ARG96      -0.2718
    117  CB        41.1260   -9.8970   22.0510 C.3    96  ARG96       0.0321
    118  CG        42.0670   -8.7040   22.3140 C.3    96  ARG96       0.0489
    119  CD        41.3020   -7.4110   22.2350 C.3    96  ARG96       0.2205
    120  NE        41.7830   -6.3990   23.1780 N.pl3  96  ARG96      -0.0865
    121  CZ        41.1820   -6.0750   24.3240 C.cat  96  ARG96       0.5346
    122  NH1       40.0660   -6.6950   24.7000 N.pl3  96  ARG96       0.1354
    123  NH2       41.6970   -5.1360   25.1060 N.pl3  96  ARG96       0.1354
    124  N         42.1640  -12.4620   23.8110 N.am   97  ASP97      -0.1974
    125  CA        42.9140  -13.0300   24.9380 C.3    97  ASP97       0.1709
    126  C         43.6130  -14.3360   24.5540 C.2    97  ASP97       0.2293
    127  O         44.7090  -14.6050   25.0430 O.2    97  ASP97      -0.2864
    128  CB        42.0040  -13.2810   26.1630 C.3    97  ASP97       0.1436
    129  CG        41.1840  -12.0890   26.6640 C.2    97  ASP97       0.3671
    130  OD1       40.0740  -12.3160   27.2080 O.co2  97  ASP97      -0.2456
    131  OD2       41.6420  -10.9330   26.5000 O.co2  97  ASP97      -0.2456
    132  N         37.8590   -9.2300   20.2990 N.3   136  ARG136     -0.1231
    133  CA        37.4650   -9.3090   21.7220 C.3   136  ARG136      0.1694
    134  C         36.0120   -9.8230   21.9050 C.2   136  ARG136      0.2592
    135  O         35.6740  -10.2810   22.9920 O.2   136  ARG136     -0.2718
    136  CB        37.6520   -7.9530   22.4450 C.3   136  ARG136      0.0321
    137  CG        37.2430   -6.7510   21.6170 C.3   136  ARG136      0.0489
    138  CD        37.4190   -5.4630   22.3700 C.3   136  ARG136      0.2205
    139  NE        36.1030   -4.9230   22.7020 N.pl3 136  ARG136     -0.0865
    140  CZ        35.4570   -4.0190   21.9720 C.cat 136  ARG136      0.5346
    141  NH1       36.0330   -3.4840   20.9010 N.pl3 136  ARG136      0.1354
    142  NH2       34.2330   -3.6380   22.3100 N.pl3 136  ARG136      0.1354
    143  N         35.1690   -9.7500   20.8520 N.am  137  ASN137     -0.1974
    144  CA        33.7820  -10.1640   20.9440 C.3   137  ASN137      0.1688
    145  C         33.4950  -11.4970   20.2730 C.2   137  ASN137      0.2292
    146  O         32.3570  -11.9740   20.2840 O.2   137  ASN137     -0.2864
    147  CB        32.8300   -9.0330   20.5260 C.3   137  ASN137      0.1181
    148  CG        32.9330   -7.8050   21.4130 C.2   137  ASN137      0.2629
    149  OD1       33.0070   -7.8940   22.6510 O.2   137  ASN137     -0.2716
    150  ND2       32.9960   -6.6280   20.7920 N.am  137  ASN137     -0.0877
    151  N         34.1840  -15.4160   20.6100 N.3   139  LEU139     -0.1245
    152  CA        34.5110  -16.4100   21.6340 C.3   139  LEU139      0.1561
    153  C         34.8920  -17.7550   21.0530 C.2   139  LEU139      0.2260
    154  O         34.2580  -18.2060   20.1040 O.2   139  LEU139     -0.2867
    155  CB        33.3150  -16.6180   22.5760 C.3   139  LEU139      0.0270
    156  CG        32.6650  -15.3830   23.2130 C.3   139  LEU139      0.0019
    157  CD1       31.6300  -15.8100   24.1900 C.3   139  LEU139      0.0001
    158  CD2       33.6950  -14.4670   23.8960 C.3   139  LEU139      0.0001
    159  N         30.0750  -13.2960   20.5600 N.3   149  GLY149     -0.1210
    160  CA        29.7740  -13.3390   21.9830 C.3   149  GLY149      0.1956
    161  C         29.1090  -12.1800   22.6700 C.2   149  GLY149      0.2611
    162  O         28.6510  -12.3510   23.8050 O.2   149  GLY149     -0.2717
    163  N         29.0780  -10.9920   22.0320 N.am  150  ASP150     -0.1973
    164  CA        28.4490   -9.8110   22.6420 C.3   150  ASP150      0.1709
    165  C         27.6370   -9.0080   21.6320 C.2   150  ASP150      0.2293
    166  O         28.1000   -8.7970   20.5070 O.2   150  ASP150     -0.2864
    167  CB        29.4820   -8.9150   23.3410 C.3   150  ASP150      0.1436
    168  CG        28.8300   -8.0110   24.3620 C.2   150  ASP150      0.3671
    169  OD1       28.5690   -8.4850   25.4930 O.co2 150  ASP150     -0.2456
    170  OD2       28.4870   -6.8610   24.0010 O.co2 150  ASP150     -0.2456
    171  N         25.8760   -5.9380   22.6970 N.3   152  GLY152     -0.1225
    172  CA        25.6870   -4.6630   23.3840 C.3   152  GLY152      0.1811
    173  C         25.3080   -3.4810   22.5020 C.2   152  GLY152      0.2280
    174  O         24.4820   -2.6520   22.9000 O.2   152  GLY152     -0.2866
@<TRIPOS>BOND
     1   154   153    2
     2   145   146    2
     3   145   144    1
     4   132   133    1
     5   166   165    2
     6   147   144    1
     7   147   148    1
     8    60    61    1
     9   159   160    1
    10   151   152    1
    11   150   148   am
    12   143   144    1
    13   143   134   am
    14   141   140    1
    15   153   152    1
    16   113   114    1
    17   148   149    2
    18   137   138    1
    19   137   136    1
    20   165   164    1
    21   152   155    1
    22   114   117    1
    23   114   115    1
    24   133   134    1
    25   133   136    1
    26   134   135    2
    27    61    62    1
    28    61    64    1
    29   140   142    1
    30   140   139    2
    31   160   161    1
    32   163   164    1
    33   163   161   am
    34   117   118    1
    35    63    62    2
    36   119   118    1
    37   119   120    1
    38   138   139    1
    39   173   174    2
    40   173   172    1
    41   155   156    1
    42   109   110    2
    43   109   108    1
    44   164   167    1
    45   161   162    2
    46   171   172    1
    47   116   115    2
    48   115   124   am
    49    64    65    1
    50    64    66    1
    51    82    81   ar
    52   120   121    2
    53   156   158    1
    54   156   157    1
    55   167   168    1
    56   108   111    1
    57   108   107    1
    58   101   100    1
    59   106   105    2
    60   111   112    1
    61   124   125    1
    62   170   168   ar
    63    81    83   ar
    64    81    80    1
    65   121   122    1
    66   121   123    1
    67   168   169   ar
    68   102   100    1
    69   126   125    1
    70   126   127    2
    71   105   107   am
    72   105   104    1
    73   100    97    1
    74   125   128    1
    75    80    79    1
    76   103   104    1
    77    97    98    1
    78    97    96    1
    79   128   129    1
    80    98    99    2
    81   131   129   ar
    82    79    76    1
    83   129   130   ar
    84    73    72    1
    85    73    74    1
    86    59    58    1
    87    96    86   am
    88    72    71    1
    89    87    86    2
    90    75    76    1
    91    75    69   am
    92    86    85    1
    93    76    77    1
    94    71    68    1
    95    78    77    2
    96    77    84   am
    97    58    57    1
    98    68    69    1
    99    68    67    1
   100    57    56    1
   101    23    24    1
   102    23    22    1
   103    84    85    1
   104    69    70    2
   105    85    88    1
   106    16    15    2
   107    24    25    2
   108    22    15   am
   109    45    43    1
   110     4     3    2
   111    15    14    1
   112    56    55    1
   113    88    89    1
   114    90    89   ar
   115    90    92   ar
   116    50    47    1
   117    10    11    1
   118    10     9    1
   119    55    52    1
   120    44    43    1
   121    89    91   ar
   122    13    14    1
   123    13    11   am
   124    92    94   ar
   125    26    27    1
   126    43    40    1
   127     3     9   am
   128     3     2    1
   129    14    17    1
   130    91    93   ar
   131    11    12    2
   132    94    95    1
   133    94    93   ar
   134    27    28    1
   135     5     2    1
   136     5     6    1
   137     7     6    1
   138    49    48    2
   139    29    28    2
   140    28    30   am
   141    47    46    1
   142    47    48    1
   143     2     1    1
   144    52    51    1
   145    52    53    1
   146     6     8    1
   147    40    39    1
   148    40    41    1
   149    17    18    1
   150    39    32   am
   151    30    31    1
   152    53    54    2
   153    32    31    1
   154    32    33    2
   155    18    19    1
   156    31    34    1
   157    41    42    2
   158    19    20   ar
   159    19    21   ar
   160    34    35    1
   161    38    37    1
   162    37    36    1
   163    36    35    1
