@<TRIPOS>MOLECULE
tmp/4e21B00.pdb
 90 85 0 0 0
SMALL
GASTEIGER

@<TRIPOS>ATOM
      1  N        -33.9040    0.3770  -30.0450 N.3    88  ASN88      -0.1240
      2  CA       -35.0520    1.0790  -29.4910 C.3    88  ASN88       0.1653
      3  C        -36.2310    0.1600  -29.2040 C.2    88  ASN88       0.2266
      4  O        -37.2760    0.2610  -29.8300 O.2    88  ASN88      -0.2867
      5  CB       -35.4690    2.1780  -30.4590 C.3    88  ASN88       0.1155
      6  CG       -34.3620    3.1790  -30.6900 C.2    88  ASN88       0.2627
      7  OD1      -33.8940    3.8200  -29.7470 O.2    88  ASN88      -0.2716
      8  ND2      -33.9250    3.3170  -31.9440 N.am   88  ASN88      -0.0877
      9  N        -33.8600    5.4910  -21.1920 N.3   180  LYS180     -0.1245
     10  CA       -33.5570    6.0500  -22.5140 C.3   180  LYS180      0.1561
     11  C        -34.8190    6.6570  -23.1460 C.2   180  LYS180      0.2260
     12  O        -34.7710    7.6940  -23.8150 O.2   180  LYS180     -0.2867
     13  CB       -32.9490    4.9730  -23.4290 C.3   180  LYS180      0.0271
     14  CG       -33.0860    5.2610  -24.9120 C.3   180  LYS180      0.0035
     15  CD       -32.0850    6.2880  -25.3760 C.3   180  LYS180      0.0206
     16  CE       -32.4310    6.8170  -26.7640 C.3   180  LYS180      0.1093
     17  NZ       -32.4130    5.7380  -27.7730 N.3   180  LYS180     -0.1314
     18  N        -35.4980   10.5820  -24.3570 N.3   183  ASN183     -0.1240
     19  CA       -36.0310   11.0010  -25.6460 C.3   183  ASN183      0.1653
     20  C        -37.2460   11.9190  -25.4970 C.2   183  ASN183      0.2266
     21  O        -37.4370   12.8220  -26.2990 O.2   183  ASN183     -0.2867
     22  CB       -36.3790    9.7800  -26.5200 C.3   183  ASN183      0.1155
     23  CG       -35.1650    9.2550  -27.2850 C.2   183  ASN183      0.2627
     24  OD1      -34.0460    9.2720  -26.7740 O.2   183  ASN183     -0.2716
     25  ND2      -35.3750    8.8390  -28.5200 N.am  183  ASN183     -0.0877
     26  N        -35.9230   15.1660  -24.6250 N.3   186  GLU186     -0.1231
     27  CA       -35.3420   15.7020  -25.8350 C.3   186  GLU186      0.1699
     28  C        -36.3900   16.3650  -26.7240 C.2   186  GLU186      0.2592
     29  O        -36.1160   17.3850  -27.3170 O.2   186  GLU186     -0.2718
     30  CB       -34.5890   14.6070  -26.5670 C.3   186  GLU186      0.0402
     31  CG       -34.1340   14.9200  -27.9550 C.3   186  GLU186      0.1161
     32  CD       -33.7730   13.6160  -28.6730 C.2   186  GLU186      0.3649
     33  OE1      -32.8710   12.9060  -28.1950 O.co2 186  GLU186     -0.2457
     34  OE2      -34.4150   13.2630  -29.6820 O.co2 186  GLU186     -0.2457
     35  N        -37.5830   15.7900  -26.7900 N.am  187  TYR187     -0.1976
     36  CA       -38.6740   16.3580  -27.5740 C.3   187  TYR187      0.1639
     37  C        -39.0890   17.7090  -26.9710 C.2   187  TYR187      0.2290
     38  O        -39.2670   18.6850  -27.6950 O.2   187  TYR187     -0.2864
     39  CB       -39.8950   15.4400  -27.5580 C.3   187  TYR187      0.0560
     40  CG       -39.9180   14.2890  -28.5350 C.ar  187  TYR187     -0.0198
     41  CD1      -38.7680   13.5890  -28.8830 C.ar  187  TYR187     -0.0009
     42  CD2      -41.1230   13.8530  -29.0680 C.ar  187  TYR187     -0.0009
     43  CE1      -38.8260   12.4950  -29.7710 C.ar  187  TYR187      0.0417
     44  CE2      -41.1880   12.7760  -29.9450 C.ar  187  TYR187      0.0417
     45  CZ       -40.0480   12.1110  -30.2910 C.ar  187  TYR187      0.1957
     46  OH       -40.1700   11.0540  -31.1610 O.3   187  TYR187     -0.2866
     47  N        -41.1660   13.6680  -38.0380 N.3   256  SER256     -0.1202
     48  CA       -41.4210   12.2980  -37.6460 C.3   256  SER256      0.2020
     49  C        -41.1680   12.1560  -36.1660 C.2   256  SER256      0.2619
     50  O        -40.5830   13.0360  -35.5370 O.2   256  SER256     -0.2717
     51  CB       -40.4810   11.3460  -38.3950 C.3   256  SER256      0.2103
     52  OG       -40.8020   11.2840  -39.7740 O.3   256  SER256     -0.2182
     53  N        -41.6070   11.0300  -35.6210 N.am  257  ASP257     -0.1959
     54  CA       -41.3440   10.6850  -34.2340 C.3   257  ASP257      0.1840
     55  C        -41.1850    9.1570  -34.2070 C.2   257  ASP257      0.2623
     56  O        -41.9300    8.4550  -34.8930 O.2   257  ASP257     -0.2715
     57  CB       -42.5160   11.1360  -33.3560 C.3   257  ASP257      0.1450
     58  CG       -43.6870   10.1760  -33.4150 C.2   257  ASP257      0.3671
     59  OD1      -44.5470   10.3060  -34.3220 O.co2 257  ASP257     -0.2456
     60  OD2      -43.7450    9.2750  -32.5460 O.co2 257  ASP257     -0.2456
     61  N        -40.2340    8.6390  -33.4290 N.am  258  SER258     -0.1936
     62  CA       -39.8670    7.2250  -33.5350 C.3   258  SER258      0.2055
     63  C        -40.4520    6.2830  -32.4890 C.2   258  SER258      0.2644
     64  O        -40.2440    5.0700  -32.5570 O.2   258  SER258     -0.2714
     65  CB       -38.3500    7.0600  -33.5840 C.3   258  SER258      0.2130
     66  OG       -37.8430    7.7320  -34.7200 O.3   258  SER258     -0.2179
     67  N        -41.1720    6.8250  -31.5230 N.am  259  GLY259     -0.1939
     68  CA       -41.8580    5.9710  -30.5790 C.3   259  GLY259      0.2014
     69  C        -41.5660    6.3210  -29.1430 C.2   259  GLY259      0.2638
     70  O        -42.4810    6.3930  -28.3310 O.2   259  GLY259     -0.2714
     71  N        -40.3020    6.5360  -28.8120 N.am  260  GLU260     -0.1977
     72  CA       -39.9320    6.7910  -27.4220 C.3   260  GLU260      0.1602
     73  C        -40.6770    7.9860  -26.8360 C.2   260  GLU260      0.2287
     74  O        -41.0190    7.9820  -25.6670 O.2   260  GLU260     -0.2864
     75  CB       -38.4330    6.9840  -27.2890 C.3   260  GLU260      0.0415
     76  CG       -37.6630    5.6640  -27.1720 C.3   260  GLU260      0.1163
     77  CD       -37.0700    5.1870  -28.4910 C.2   260  GLU260      0.3649
     78  OE1      -37.2590    5.8820  -29.5390 O.co2 260  GLU260     -0.2457
     79  OE2      -36.4090    4.1080  -28.4570 O.co2 260  GLU260     -0.2457
     80  N        -45.4850   17.5490  -33.2870 N.3   285  ARG285     -0.1245
     81  CA       -45.0010   16.6880  -34.3560 C.3   285  ARG285      0.1563
     82  C        -46.1780   16.0690  -35.1170 C.2   285  ARG285      0.2260
     83  O        -46.1540   16.0340  -36.3530 O.2   285  ARG285     -0.2867
     84  CB       -44.0350   15.6130  -33.8300 C.3   285  ARG285      0.0307
     85  CG       -42.7840   16.1940  -33.1850 C.3   285  ARG285      0.0489
     86  CD       -41.7250   15.1440  -32.9680 C.3   285  ARG285      0.2205
     87  NE       -40.5140   15.7230  -32.3920 N.pl3 285  ARG285     -0.0865
     88  CZ       -39.3210   15.1400  -32.4050 C.cat 285  ARG285      0.5346
     89  NH1      -39.1500   13.9580  -32.9920 N.pl3 285  ARG285      0.1354
     90  NH2      -38.2970   15.7540  -31.8460 N.pl3 285  ARG285      0.1354
@<TRIPOS>BOND
     1    52    51    1
     2    51    48    1
     3    47    48    1
     4    48    49    1
     5    83    82    2
     6    49    53   am
     7    49    50    2
     8    53    54    1
     9    82    81    1
    10    56    55    2
    11    66    65    1
    12    81    84    1
    13    81    80    1
    14    59    58   ar
    15    54    55    1
    16    54    57    1
    17    55    61   am
    18    84    85    1
    19    65    62    1
    20    62    61    1
    21    62    63    1
    22    58    57    1
    23    58    60   ar
    24    85    86    1
    25    89    88    1
    26    86    87    1
    27    64    63    2
    28    63    67   am
    29    88    87    2
    30    88    90    1
    31     8     6   am
    32    67    68    1
    33    46    45    1
    34     6     5    1
    35     6     7    2
    36    68    69    1
    37     5     2    1
    38    45    44   ar
    39    45    43   ar
    40     1     2    1
    41    44    42   ar
    42     4     3    2
    43    43    41   ar
    44    34    32   ar
    45    78    77   ar
    46     2     3    1
    47    69    71   am
    48    69    70    2
    49    42    40   ar
    50    41    40   ar
    51    71    72    1
    52    32    33   ar
    53    32    31    1
    54    40    39    1
    55    25    23   am
    56    77    79   ar
    57    77    76    1
    58    31    30    1
    59    17    16    1
    60    38    37    2
    61    36    39    1
    62    36    37    1
    63    36    35    1
    64    72    75    1
    65    72    73    1
    66    29    28    2
    67    75    76    1
    68    23    24    2
    69    23    22    1
    70    73    74    2
    71    35    28   am
    72    16    15    1
    73    28    27    1
    74    30    27    1
    75    22    19    1
    76    21    20    2
    77    27    26    1
    78    19    20    1
    79    19    18    1
    80    15    14    1
    81    14    13    1
    82    12    11    2
    83    13    10    1
    84    11    10    1
    85    10     9    1
