@<TRIPOS>MOLECULE
tmp/4e26A00.pdb
 144 137 0 0 0
SMALL
GASTEIGER

@<TRIPOS>ATOM
      1  N          5.8750  -16.2530    5.9220 N.3    16  ILE16      -0.1231
      2  CA         6.3490  -15.7990    4.6200 C.3    16  ILE16       0.1696
      3  C          5.2770  -15.2570    3.6730 C.2    16  ILE16       0.2632
      4  O          5.5870  -14.4780    2.7730 O.2    16  ILE16      -0.2714
      5  CB         7.1070  -16.9310    3.9030 C.3    16  ILE16       0.0266
      6  CG1        8.2390  -17.4390    4.8000 C.3    16  ILE16       0.0019
      7  CG2        7.6620  -16.4390    2.5760 C.3    16  ILE16       0.0020
      8  CD1        9.2320  -16.3650    5.2290 C.3    16  ILE16       0.0001
      9  N          4.0230  -15.6570    3.8580 N.am   17  GLY17      -0.1718
     10  CA         2.9860  -15.1550    2.9720 C.2    17  GLY17       0.1480
     11  C          1.5830  -15.7160    3.1330 C.2    17  GLY17       0.2821
     12  O          1.3110  -16.5200    4.0290 O.2    17  GLY17      -0.2669
     13  N          0.6880  -15.2770    2.2490 N.am   18  SER18      -0.1915
     14  CA        -0.7080  -15.7090    2.2540 C.3    18  SER18       0.1927
     15  C         -1.0930  -16.2760    0.8910 C.2    18  SER18       0.2314
     16  O         -0.2420  -16.7650    0.1480 O.2    18  SER18      -0.2863
     17  CB        -1.6310  -14.5320    2.5940 C.3    18  SER18       0.2116
     18  OG        -1.3490  -13.9990    3.8770 O.3    18  SER18      -0.2180
     19  N          1.8190  -19.4560    3.4310 N.3    24  VAL24      -0.1245
     20  CA         3.1120  -20.1120    3.5380 C.3    24  VAL24       0.1561
     21  C          3.8890  -19.6920    4.7770 C.2    24  VAL24       0.2260
     22  O          3.7140  -18.5890    5.2850 O.2    24  VAL24      -0.2867
     23  CB         3.9700  -19.8110    2.2960 C.3    24  VAL24       0.0252
     24  CG1        5.2620  -20.6060    2.3500 C.3    24  VAL24       0.0019
     25  CG2        3.1920  -20.1450    1.0320 C.3    24  VAL24       0.0019
     26  N          9.5070  -25.3470    3.8960 N.3    34  ALA34      -0.1245
     27  CA         8.4630  -24.3740    3.6220 C.3    34  ALA34       0.1562
     28  C          7.1500  -25.1150    3.8760 C.2    34  ALA34       0.2260
     29  O          6.8980  -26.1720    3.2870 O.2    34  ALA34      -0.2867
     30  CB         8.5410  -23.8990    2.1770 C.3    34  ALA34       0.0290
     31  N          3.0350  -25.0160    3.8010 N.3    36  LYS36      -0.1245
     32  CA         1.8640  -24.3390    3.2700 C.3    36  LYS36       0.1561
     33  C          0.6740  -24.9130    4.0260 C.2    36  LYS36       0.2260
     34  O          0.3460  -26.0880    3.8800 O.2    36  LYS36      -0.2867
     35  CB         1.7470  -24.6250    1.7750 C.3    36  LYS36       0.0271
     36  CG         0.7020  -23.8140    1.0170 C.3    36  LYS36       0.0035
     37  CD         0.6540  -24.2790   -0.4410 C.3    36  LYS36       0.0206
     38  CE        -0.2440  -23.4110   -1.3040 C.3    36  LYS36       0.1093
     39  NZ        -0.2230  -23.8580   -2.7310 N.3    36  LYS36      -0.1314
     40  N         10.5960  -27.8960   -7.3320 N.3    67  LEU67      -0.1245
     41  CA        10.6620  -27.7120   -5.8870 C.3    67  LEU67       0.1561
     42  C         10.3560  -29.0700   -5.2470 C.2    67  LEU67       0.2260
     43  O          9.3470  -29.6990   -5.5640 O.2    67  LEU67      -0.2867
     44  CB         9.6240  -26.6760   -5.4550 C.3    67  LEU67       0.0270
     45  CG         9.6360  -26.2380   -3.9900 C.3    67  LEU67       0.0019
     46  CD1       10.8790  -25.4260   -3.7150 C.3    67  LEU67       0.0001
     47  CD2        8.4060  -25.4150   -3.7050 C.3    67  LEU67       0.0001
     48  N          7.4930  -28.6130    1.7400 N.3    82  THR82      -0.1203
     49  CA         8.4550  -28.6730    0.6370 C.3    82  THR82       0.1994
     50  C          9.8170  -28.1680    1.1170 C.2    82  THR82       0.2618
     51  O          9.9050  -27.5190    2.1550 O.2    82  THR82      -0.2717
     52  CB         8.0230  -27.7850   -0.5540 C.3    82  THR82       0.1784
     53  OG1        7.9120  -26.4220   -0.1160 O.3    82  THR82      -0.2211
     54  CG2        6.6950  -28.2590   -1.1290 C.3    82  THR82       0.0376
     55  N         10.8730  -28.4660    0.3630 N.am   83  GLN83      -0.1965
     56  CA        12.2140  -28.0110    0.7270 C.3    83  GLN83       0.1733
     57  C         12.1830  -26.4920    0.8230 C.2    83  GLN83       0.2616
     58  O         11.3700  -25.8430    0.1570 O.2    83  GLN83      -0.2715
     59  CB        13.2330  -28.4070   -0.3430 C.3    83  GLN83       0.0408
     60  CG        13.0990  -27.6430   -1.6700 C.3    83  GLN83       0.0908
     61  CD        14.1470  -28.0410   -2.7090 C.2    83  GLN83       0.2608
     62  OE1       13.8360  -28.2290   -3.8870 O.2    83  GLN83      -0.2717
     63  NE2       15.3940  -28.1550   -2.2770 N.am   83  GLN83      -0.0878
     64  N         13.0540  -25.9240    1.6540 N.am   84  TRP84      -0.1960
     65  CA        13.1170  -24.4720    1.7890 C.3    84  TRP84       0.1771
     66  C         14.1890  -23.9270    0.8730 C.2    84  TRP84       0.2619
     67  O         15.3660  -24.2330    1.0450 O.2    84  TRP84      -0.2715
     68  CB        13.4330  -24.0530    3.2230 C.3    84  TRP84       0.0590
     69  CG        13.7160  -22.5660    3.3450 C.ar   84  TRP84       0.0006
     70  CD1       14.9410  -21.9670    3.4330 C.ar   84  TRP84       0.0946
     71  CD2       12.7500  -21.5020    3.3670 C.ar   84  TRP84       0.0152
     72  NE1       14.8010  -20.6050    3.5100 N.ar   84  TRP84      -0.2442
     73  CE2       13.4690  -20.2890    3.4710 C.ar   84  TRP84       0.0810
     74  CE3       11.3490  -21.4560    3.3070 C.ar   84  TRP84       0.0012
     75  CZ2       12.8340  -19.0400    3.5170 C.ar   84  TRP84       0.0191
     76  CZ3       10.7160  -20.2140    3.3540 C.ar   84  TRP84       0.0001
     77  CH2       11.4620  -19.0240    3.4580 C.ar   84  TRP84       0.0015
     78  N         13.7790  -23.1170   -0.0960 N.am   85  CYS85      -0.1968
     79  CA        14.7230  -22.5430   -1.0410 C.3    85  CYS85       0.1712
     80  C         15.5460  -21.4110   -0.4670 C.2    85  CYS85       0.2296
     81  O         15.0380  -20.5490    0.2400 O.2    85  CYS85      -0.2864
     82  CB        13.9940  -22.0530   -2.2840 C.3    85  CYS85       0.0983
     83  SG        13.3970  -23.4120   -3.2920 S.3    85  CYS85      -0.0798
     84  N         17.4680  -18.1410   -1.1980 N.3    87  GLY87      -0.1210
     85  CA        17.5940  -17.1160   -2.2200 C.3    87  GLY87       0.1956
     86  C         16.2850  -16.4350   -2.5870 C.2    87  GLY87       0.2613
     87  O         15.4040  -16.2670   -1.7410 O.2    87  GLY87      -0.2717
     88  N         16.1450  -16.0340   -3.8460 N.am   88  SER88      -0.1938
     89  CA        14.9190  -15.3720   -4.2670 C.3    88  SER88       0.2055
     90  C         14.3410  -15.9690   -5.5320 C.2    88  SER88       0.2643
     91  O         14.9550  -16.8200   -6.1780 O.2    88  SER88      -0.2714
     92  CB        15.1700  -13.8780   -4.4880 C.3    88  SER88       0.2130
     93  OG        15.4780  -13.2270   -3.2680 O.3    88  SER88      -0.2179
     94  N         13.1440  -15.5130   -5.8760 N.am   89  SER89      -0.1949
     95  CA        12.4770  -15.9650   -7.0820 C.3    89  SER89       0.1924
     96  C         13.0420  -15.1630   -8.2550 C.2    89  SER89       0.2314
     97  O         13.5980  -14.0860   -8.0640 O.2    89  SER89      -0.2863
     98  CB        10.9760  -15.7240   -6.9740 C.3    89  SER89       0.2116
     99  OG        10.6910  -14.3450   -7.0950 O.3    89  SER89      -0.2180
    100  N         11.8220  -11.6120   -8.3050 N.3    92  HIS92      -0.1241
    101  CA        12.5220  -10.7160   -7.3930 C.3    92  HIS92       0.1621
    102  C         13.8930  -10.2990   -7.9530 C.2    92  HIS92       0.2264
    103  O         14.2690   -9.1280   -7.8880 O.2    92  HIS92      -0.2867
    104  CB        12.6710  -11.4090   -6.0370 C.3    92  HIS92       0.0745
    105  CG        13.1510  -10.5110   -4.9420 C.ar   92  HIS92       0.0817
    106  ND1       14.4820  -10.3930   -4.6060 N.ar   92  HIS92      -0.2268
    107  CD2       12.4750   -9.6840   -4.1110 C.ar   92  HIS92       0.1154
    108  CE1       14.6060   -9.5310   -3.6130 C.ar   92  HIS92       0.1986
    109  NE2       13.4040   -9.0870   -3.2950 N.ar   92  HIS92      -0.2212
    110  N          7.4760  -15.4900  -10.6750 N.3   133  ASN133     -0.1225
    111  CA         7.2640  -15.4760   -9.2330 C.3   133  ASN133      0.1785
    112  C          7.3900  -16.8750   -8.6510 C.2   133  ASN133      0.2597
    113  O          7.7900  -17.0330   -7.5040 O.2   133  ASN133     -0.2718
    114  CB         5.8640  -14.9660   -8.9020 C.3   133  ASN133      0.1169
    115  CG         5.6460  -13.5570   -9.3490 C.2   133  ASN133      0.2627
    116  OD1        6.1250  -12.6150   -8.7140 O.2   133  ASN133     -0.2716
    117  ND2        4.9250  -13.3910  -10.4570 N.am  133  ASN133     -0.0877
    118  N          7.0170  -17.8820   -9.4340 N.am  134  ASN134     -0.1974
    119  CA         7.0760  -19.2610   -8.9670 C.3   134  ASN134      0.1688
    120  C          8.2990  -20.0110   -9.4630 C.2   134  ASN134      0.2292
    121  O          8.3170  -21.2360   -9.4670 O.2   134  ASN134     -0.2864
    122  CB         5.8120  -20.0260   -9.3780 C.3   134  ASN134      0.1181
    123  CG         4.5400  -19.3520   -8.9020 C.2   134  ASN134      0.2629
    124  OD1        4.4700  -18.8360   -7.7830 O.2   134  ASN134     -0.2716
    125  ND2        3.5170  -19.3590   -9.7520 N.am  134  ASN134     -0.0877
    126  N         12.0030  -20.3330   -8.4720 N.3   136  PHE136     -0.1241
    127  CA        13.0020  -20.0000   -7.4780 C.3   136  PHE136      0.1605
    128  C         14.3910  -20.3180   -7.9630 C.2   136  PHE136      0.2264
    129  O         14.6330  -21.3560   -8.5890 O.2   136  PHE136     -0.2867
    130  CB        12.6950  -20.7410   -6.1860 C.3   136  PHE136      0.0534
    131  CG        11.3380  -20.4200   -5.6340 C.ar  136  PHE136     -0.0203
    132  CD1       11.1350  -19.2670   -4.8710 C.ar  136  PHE136     -0.0042
    133  CD2       10.2400  -21.2310   -5.9320 C.ar  136  PHE136     -0.0042
    134  CE1        9.8550  -18.9240   -4.4160 C.ar  136  PHE136     -0.0003
    135  CE2        8.9580  -20.8980   -5.4840 C.ar  136  PHE136     -0.0003
    136  CZ         8.7660  -19.7440   -4.7270 C.ar  136  PHE136     -0.0000
    137  N          4.9860  -23.6130   -6.6650 N.3   147  ASP147     -0.1239
    138  CA         3.5740  -23.2630   -6.5990 C.3   147  ASP147      0.1674
    139  C          2.7060  -24.1140   -7.5170 C.2   147  ASP147      0.2266
    140  O          2.3680  -23.7030   -8.6190 O.2   147  ASP147     -0.2867
    141  CB         3.3890  -21.7830   -6.9260 C.3   147  ASP147      0.1410
    142  CG         1.9810  -21.3070   -6.6430 C.2   147  ASP147      0.3668
    143  OD1        1.6560  -20.1410   -6.9760 O.co2 147  ASP147     -0.2456
    144  OD2        1.2020  -22.1140   -6.0780 O.co2 147  ASP147     -0.2456
@<TRIPOS>BOND
     1   110   111    1
     2   117   115   am
     3   125   123   am
     4   121   120    2
     5   120   119    1
     6   118   119    1
     7   118   112   am
     8   122   119    1
     9   122   123    1
    10   115   114    1
    11   115   116    2
    12   111   114    1
    13   111   112    1
    14   123   124    2
    15   112   113    2
    16   140   139    2
    17   129   128    2
    18   126   127    1
    19   100   101    1
    20    96    97    2
    21    96    95    1
    22   128   127    1
    23   102   103    2
    24   102   101    1
    25   139   138    1
    26   127   130    1
    27   101   104    1
    28    40    41    1
    29    99    98    1
    30    95    98    1
    31    95    94    1
    32   143   142   ar
    33   141   142    1
    34   141   138    1
    35   137   138    1
    36   142   144   ar
    37   130   131    1
    38    91    90    2
    39   104   105    1
    40   133   131   ar
    41   133   135   ar
    42    41    44    1
    43    41    42    1
    44    94    90   am
    45   131   132   ar
    46    43    42    2
    47    90    89    1
    48   135   136   ar
    49    44    45    1
    50   105   106   ar
    51   105   107   ar
    52   132   134   ar
    53   136   134   ar
    54   106   108   ar
    55    92    89    1
    56    92    93    1
    57    89    88    1
    58   107   109   ar
    59    45    46    1
    60    45    47    1
    61    62    61    2
    62    88    86   am
    63   108   109   ar
    64    83    82    1
    65    39    38    1
    66    61    63   am
    67    61    60    1
    68    86    85    1
    69    86    87    2
    70    82    79    1
    71    85    84    1
    72    60    59    1
    73    38    37    1
    74    54    52    1
    75    79    80    1
    76    79    78    1
    77    52    53    1
    78    52    49    1
    79    80    81    2
    80    37    36    1
    81    59    56    1
    82    78    66   am
    83    16    15    2
    84    58    57    2
    85    55    56    1
    86    55    50   am
    87    49    50    1
    88    49    48    1
    89    56    57    1
    90    57    64   am
    91    66    67    2
    92    66    65    1
    93    15    14    1
    94    36    35    1
    95    25    23    1
    96    50    51    2
    97    64    65    1
    98    35    32    1
    99    65    68    1
   100    30    27    1
   101    13    14    1
   102    13    11   am
   103    14    17    1
   104    23    24    1
   105    23    20    1
   106     7     5    1
   107    17    18    1
   108     4     3    2
   109    10    11    1
   110    10     9    2
   111    11    12    2
   112    68    69    1
   113    32    31    1
   114    32    33    1
   115    29    28    2
   116    74    76   ar
   117    74    71   ar
   118    69    71   ar
   119    69    70   ar
   120    76    77   ar
   121    71    73   ar
   122    19    20    1
   123    70    72   ar
   124    77    75   ar
   125    73    72   ar
   126    73    75   ar
   127    20    21    1
   128    27    28    1
   129    27    26    1
   130     3     9    1
   131     3     2    1
   132    34    33    2
   133     5     2    1
   134     5     6    1
   135     2     1    1
   136    21    22    2
   137     6     8    1
