@<TRIPOS>MOLECULE
tmp/4e28A00.pdb
 153 147 0 0 0
SMALL
GASTEIGER

@<TRIPOS>ATOM
      1  N         63.2930  -17.4810   13.0690 N.3    52  LYS52      -0.1231
      2  CA        62.4820  -18.6420   12.7160 C.3    52  LYS52       0.1693
      3  C         61.5320  -18.1780   11.6130 C.2    52  LYS52       0.2592
      4  O         61.2400  -16.9840   11.5110 O.2    52  LYS52      -0.2718
      5  CB        61.6820  -19.1450   13.9140 C.3    52  LYS52       0.0285
      6  CG        60.4370  -18.2890   14.2230 C.3    52  LYS52       0.0035
      7  CD        59.6670  -18.8430   15.3990 C.3    52  LYS52       0.0206
      8  CE        58.4860  -17.9340   15.7590 C.3    52  LYS52       0.1093
      9  NZ        57.7200  -18.5270   16.8780 N.3    52  LYS52      -0.1314
     10  N         61.0560  -19.0980   10.7800 N.am   53  ARG53      -0.1966
     11  CA        60.1310  -18.7000    9.7270 C.3    53  ARG53       0.1729
     12  C         58.7720  -18.4070   10.3350 C.2    53  ARG53       0.2616
     13  O         58.2040  -19.2410   11.0290 O.2    53  ARG53      -0.2715
     14  CB        60.0290  -19.7670    8.6270 C.3    53  ARG53       0.0348
     15  CG        59.0600  -19.4240    7.4870 C.3    53  ARG53       0.0492
     16  CD        59.0500  -20.5410    6.3970 C.3    53  ARG53       0.2205
     17  NE        60.3220  -20.5740    5.6790 N.pl3  53  ARG53      -0.0865
     18  CZ        60.6740  -19.6830    4.7530 C.cat  53  ARG53       0.5346
     19  NH1       59.8430  -18.6920    4.4250 N.pl3  53  ARG53       0.1354
     20  NH2       61.8530  -19.7760    4.1560 N.pl3  53  ARG53       0.1354
     21  N         58.2650  -17.2060   10.0860 N.am   54  VAL54      -0.1963
     22  CA        56.9690  -16.8000   10.6070 C.3    54  VAL54       0.1727
     23  C         55.9250  -17.0540    9.5370 C.2    54  VAL54       0.2616
     24  O         56.1560  -16.7790    8.3650 O.2    54  VAL54      -0.2715
     25  CB        56.9820  -15.3030   11.0280 C.3    54  VAL54       0.0290
     26  CG1       55.5640  -14.7690   11.2650 C.3    54  VAL54       0.0023
     27  CG2       57.8390  -15.1250   12.2510 C.3    54  VAL54       0.0023
     28  N         54.7830  -17.5930    9.9380 N.am   55  PHE55      -0.1974
     29  CA        53.7270  -17.9650    8.9930 C.3    55  PHE55       0.1639
     30  C         53.0120  -16.7080    8.4390 C.2    55  PHE55       0.2290
     31  O         51.8970  -16.3820    8.8340 O.2    55  PHE55      -0.2864
     32  CB        52.7420  -18.9320    9.6800 C.3    55  PHE55       0.0560
     33  CG        51.7230  -19.5300    8.7610 C.ar   55  PHE55      -0.0200
     34  CD1       52.0180  -19.7740    7.4290 C.ar   55  PHE55      -0.0042
     35  CD2       50.4520  -19.8280    9.2270 C.ar   55  PHE55      -0.0042
     36  CE1       51.0680  -20.3200    6.5810 C.ar   55  PHE55      -0.0003
     37  CE2       49.4930  -20.3640    8.3850 C.ar   55  PHE55      -0.0003
     38  CZ        49.8020  -20.6160    7.0620 C.ar   55  PHE55      -0.0000
     39  N         49.2770  -16.8230    7.0750 N.3    58  GLY58      -0.1225
     40  CA        48.2490  -16.8560    8.0940 C.3    58  GLY58       0.1811
     41  C         48.1030  -15.4930    8.7490 C.2    58  GLY58       0.2280
     42  O         47.0100  -15.0950    9.1400 O.2    58  GLY58      -0.2866
     43  N         44.4240  -13.8670    8.3810 N.3    62  GLU62      -0.1245
     44  CA        43.6870  -13.6230    9.6130 C.3    62  GLU62       0.1567
     45  C         43.3840  -12.1360    9.8400 C.2    62  GLU62       0.2260
     46  O         42.3060  -11.7830   10.3330 O.2    62  GLU62      -0.2867
     47  CB        44.4500  -14.1900   10.8030 C.3    62  GLU62       0.0388
     48  CG        43.7710  -13.9560   12.1330 C.3    62  GLU62       0.1160
     49  CD        44.4730  -14.6780   13.2650 C.2    62  GLU62       0.3649
     50  OE1       44.4590  -14.1620   14.4050 O.co2  62  GLU62      -0.2457
     51  OE2       45.0380  -15.7650   13.0070 O.co2  62  GLU62      -0.2457
     52  N         33.6780  -18.7620   11.9310 N.3    73  ALA73      -0.1245
     53  CA        35.0010  -19.3330   12.1600 C.3    73  ALA73       0.1562
     54  C         35.5240  -20.0890   10.9390 C.2    73  ALA73       0.2260
     55  O         36.7250  -20.0720   10.6560 O.2    73  ALA73      -0.2867
     56  CB        34.9840  -20.2370   13.3860 C.3    73  ALA73       0.0290
     57  N         37.1530  -18.5710    7.8220 N.3    76  LEU76      -0.1231
     58  CA        38.6060  -18.4910    7.8350 C.3    76  LEU76       0.1693
     59  C         39.2190  -19.8660    7.5550 C.2    76  LEU76       0.2593
     60  O         39.9360  -20.4270    8.3880 O.2    76  LEU76      -0.2718
     61  CB        39.1040  -17.9410    9.1720 C.3    76  LEU76       0.0284
     62  CG        40.6140  -17.7250    9.2770 C.3    76  LEU76       0.0019
     63  CD1       41.1110  -16.8170    8.1590 C.3    76  LEU76       0.0001
     64  CD2       40.9730  -17.1560   10.6360 C.3    76  LEU76       0.0001
     65  N         38.9120  -20.4070    6.3810 N.am   77  SER77      -0.1938
     66  CA        39.5330  -21.6360    5.9050 C.3    77  SER77       0.2055
     67  C         40.4130  -21.3080    4.6990 C.2    77  SER77       0.2644
     68  O         40.0100  -21.4890    3.5470 O.2    77  SER77      -0.2714
     69  CB        38.4690  -22.6790    5.5440 C.3    77  SER77       0.2130
     70  OG        37.4670  -22.1290    4.7030 O.3    77  SER77      -0.2179
     71  N         41.6170  -20.8190    4.9820 N.am   78  SER78      -0.1935
     72  CA        42.5000  -20.2870    3.9500 C.3    78  SER78       0.2055
     73  C         43.5960  -21.2760    3.5650 C.2    78  SER78       0.2642
     74  O         44.6970  -20.8790    3.1770 O.2    78  SER78      -0.2714
     75  CB        43.1250  -18.9730    4.4270 C.3    78  SER78       0.2130
     76  OG        42.1390  -18.1040    4.9610 O.3    78  SER78      -0.2179
     77  N         43.2860  -22.5640    3.6750 N.am   79  LYS79      -0.1977
     78  CA        44.2370  -23.6190    3.3410 C.3    79  LYS79       0.1596
     79  C         43.5400  -24.7980    2.6630 C.2    79  LYS79       0.2287
     80  O         43.9640  -25.9470    2.7970 O.2    79  LYS79      -0.2864
     81  CB        44.9870  -24.0880    4.5940 C.3    79  LYS79       0.0298
     82  CG        46.0220  -23.0950    5.1230 C.3    79  LYS79       0.0038
     83  CD        45.3770  -21.8680    5.7530 C.3    79  LYS79       0.0206
     84  CE        46.4080  -20.7740    5.9910 C.3    79  LYS79       0.1093
     85  NZ        45.8500  -19.5870    6.7050 N.3    79  LYS79      -0.1314
     86  N         41.9620  -20.5340   21.5600 N.3    80  ASP80      -0.1239
     87  CA        42.4500  -20.9000   20.2340 C.3    80  ASP80       0.1674
     88  C         41.9640  -19.9050   19.1820 C.2    80  ASP80       0.2266
     89  O         42.2210  -20.0680   17.9860 O.2    80  ASP80      -0.2867
     90  CB        42.0060  -22.3190   19.8670 C.3    80  ASP80       0.1410
     91  CG        43.1040  -23.1170   19.1800 C.2    80  ASP80       0.3668
     92  OD1       44.2610  -23.0560   19.6490 O.co2  80  ASP80      -0.2456
     93  OD2       42.8110  -23.8020   18.1750 O.co2  80  ASP80      -0.2456
     94  N         42.8190  -16.7430   19.5110 N.3    82  GLY82      -0.1210
     95  CA        43.8650  -15.7320   19.5610 C.3    82  GLY82       0.1940
     96  C         44.7930  -15.7630   18.3590 C.2    82  GLY82       0.2453
     97  O         44.5140  -16.4620   17.3860 O.2    82  GLY82      -0.2732
     98  N         45.8950  -14.9920   18.4140 N.am   83  PRO83      -0.2728
     99  CA        46.2200  -14.1050   19.5370 C.3    83  PRO83       0.1401
    100  C         45.8760  -12.6330   19.2610 C.2    83  PRO83       0.2269
    101  O         46.2730  -11.7650   20.0390 O.2    83  PRO83      -0.2865
    102  CB        47.7450  -14.2700   19.6790 C.3    83  PRO83       0.0296
    103  CG        48.2210  -14.8810   18.3530 C.3    83  PRO83       0.0237
    104  CD        47.0070  -15.0490   17.4540 C.3    83  PRO83       0.0939
    105  N         56.7350  -17.1450   22.8350 N.3   158  GLY158     -0.1210
    106  CA        57.1280  -18.1150   21.8260 C.3   158  GLY158      0.1956
    107  C         56.2700  -18.1550   20.5730 C.2   158  GLY158      0.2612
    108  O         56.7680  -18.2200   19.4490 O.2   158  GLY158     -0.2717
    109  N         54.9620  -18.1440   20.7690 N.am  159  LEU159     -0.1965
    110  CA        54.0260  -18.2920   19.6720 C.3   159  LEU159      0.1728
    111  C         53.3500  -16.9660   19.3100 C.2   159  LEU159      0.2616
    112  O         53.4500  -16.5050   18.1850 O.2   159  LEU159     -0.2715
    113  CB        52.9700  -19.3340   20.0470 C.3   159  LEU159      0.0311
    114  CG        52.7420  -20.5240   19.1130 C.3   159  LEU159      0.0022
    115  CD1       53.9830  -20.8350   18.2830 C.3   159  LEU159      0.0001
    116  CD2       52.3450  -21.7330   19.9370 C.3   159  LEU159      0.0001
    117  N         52.6820  -16.3380   20.2730 N.am  160  GLY160     -0.1955
    118  CA        51.8180  -15.2060   19.9640 C.3   160  GLY160      0.1869
    119  C         52.5480  -13.9390   19.5680 C.2   160  GLY160      0.2309
    120  O         52.1560  -13.2420   18.6310 O.2   160  GLY160     -0.2863
    121  N         55.5890  -13.0310   18.1050 N.3   162  PRO162     -0.2102
    122  CA        56.0870  -12.8180   16.7340 C.3   162  PRO162      0.1504
    123  C         54.9430  -12.6570   15.7380 C.2   162  PRO162      0.2575
    124  O         55.0440  -11.8470   14.8160 O.2   162  PRO162     -0.2718
    125  CB        56.8910  -14.0990   16.4320 C.3   162  PRO162      0.0282
    126  CG        57.2830  -14.6220   17.8090 C.3   162  PRO162      0.0208
    127  CD        56.0570  -14.3070   18.6720 C.3   162  PRO162      0.0893
    128  N         53.8710  -13.4180   15.9350 N.am  163  PHE163     -0.1977
    129  CA        52.6790  -13.3360   15.0870 C.3   163  PHE163      0.1639
    130  C         51.9850  -11.9740   15.2380 C.2   163  PHE163      0.2290
    131  O         51.5730  -11.3590   14.2440 O.2   163  PHE163     -0.2864
    132  CB        51.7130  -14.4630   15.4600 C.3   163  PHE163      0.0560
    133  CG        50.6000  -14.6640   14.4850 C.ar  163  PHE163     -0.0200
    134  CD1       50.7110  -15.6110   13.4780 C.ar  163  PHE163     -0.0042
    135  CD2       49.4340  -13.9190   14.5750 C.ar  163  PHE163     -0.0042
    136  CE1       49.6720  -15.8120   12.5780 C.ar  163  PHE163     -0.0003
    137  CE2       48.3990  -14.1040   13.6670 C.ar  163  PHE163     -0.0003
    138  CZ        48.5160  -15.0530   12.6750 C.ar  163  PHE163     -0.0000
    139  N         61.7590  -23.0020   10.2180 N.3   244  THR244     -0.1203
    140  CA        60.6120  -23.1270   11.1100 C.3   244  THR244      0.1994
    141  C         60.9930  -23.7810   12.4390 C.2   244  THR244      0.2617
    142  O         61.7520  -24.7630   12.4850 O.2   244  THR244     -0.2717
    143  CB        59.5130  -23.9810   10.4490 C.3   244  THR244      0.1784
    144  OG1       59.0040  -23.2890    9.3090 O.3   244  THR244     -0.2211
    145  CG2       58.3730  -24.2950   11.4300 C.3   244  THR244      0.0376
    146  N         60.4570  -23.2280   13.5170 N.am  245  ILE245     -0.1979
    147  CA        60.5090  -23.8500   14.8230 C.3   245  ILE245      0.1595
    148  C         59.0870  -24.1780   15.2520 C.2   245  ILE245      0.2287
    149  O         58.2280  -23.3050   15.2840 O.2   245  ILE245     -0.2864
    150  CB        61.1460  -22.9200   15.8530 C.3   245  ILE245      0.0276
    151  CG1       62.6070  -22.6550   15.4840 C.3   245  ILE245      0.0022
    152  CG2       61.0520  -23.5190   17.2600 C.3   245  ILE245      0.0022
    153  CD1       63.3200  -21.7740   16.4810 C.3   245  ILE245      0.0001
@<TRIPOS>BOND
     1    79    80    2
     2    79    78    1
     3    74    73    2
     4    78    77    1
     5    78    81    1
     6    68    67    2
     7    73    77   am
     8    73    72    1
     9    72    75    1
    10    72    71    1
    11    20    18    1
    12    19    18    1
    13    75    76    1
    14    81    82    1
    15    67    71   am
    16    67    66    1
    17    70    69    1
    18    18    17    2
    19    82    83    1
    20    69    66    1
    21    17    16    1
    22    83    84    1
    23    66    65    1
    24    84    85    1
    25    65    59   am
    26    16    15    1
    27    36    38   ar
    28    36    34   ar
    29    38    37   ar
    30    39    40    1
    31    34    33   ar
    32    15    14    1
    33    59    58    1
    34    59    60    2
    35    57    58    1
    36    58    61    1
    37    40    41    1
    38    63    62    1
    39    24    23    2
    40    43    44    1
    41    37    35   ar
    42    30    31    2
    43    30    29    1
    44    14    11    1
    45    41    42    2
    46    33    35   ar
    47    33    32    1
    48    29    32    1
    49    29    28    1
    50    61    62    1
    51    62    64    1
    52   144   143    1
    53    23    28   am
    54    23    22    1
    55    44    45    1
    56    44    47    1
    57    11    12    1
    58    11    10    1
    59    45    46    2
    60    21    12   am
    61    21    22    1
    62   139   140    1
    63    12    13    2
    64   143   140    1
    65   143   145    1
    66    22    25    1
    67    55    54    2
    68    10     3   am
    69    47    48    1
    70    54    53    1
    71    25    26    1
    72    25    27    1
    73   140   141    1
    74     4     3    2
    75     3     2    1
    76    52    53    1
    77    48    49    1
    78    53    56    1
    79   141   142    2
    80   141   146   am
    81   136   138   ar
    82   136   134   ar
    83   138   137   ar
    84     2     1    1
    85     2     5    1
    86    51    49   ar
    87    49    50   ar
    88   134   133   ar
    89   146   147    1
    90   137   135   ar
    91     5     6    1
    92     6     7    1
    93   131   130    2
    94   133   135   ar
    95   133   132    1
    96   124   123    2
    97   147   148    1
    98   147   150    1
    99   129   130    1
   100   129   132    1
   101   129   128    1
   102   148   149    2
   103     7     8    1
   104   151   150    1
   105   151   153    1
   106   123   128   am
   107   123   122    1
   108     8     9    1
   109   150   152    1
   110   125   122    1
   111   125   126    1
   112   122   121    1
   113    97    96    2
   114   104   103    1
   115   104    98    1
   116   126   127    1
   117    89    88    2
   118   121   127    1
   119    93    91   ar
   120   112   111    2
   121   115   114    1
   122   103   102    1
   123    96    98   am
   124    96    95    1
   125    98    99    1
   126   120   119    2
   127   114   116    1
   128   114   113    1
   129    91    92   ar
   130    91    90    1
   131    88    87    1
   132   100    99    1
   133   100   101    2
   134   111   110    1
   135   111   117   am
   136   108   107    2
   137    94    95    1
   138    99   102    1
   139   119   118    1
   140   110   113    1
   141   110   109    1
   142    90    87    1
   143   118   117    1
   144    87    86    1
   145   107   109   am
   146   107   106    1
   147   106   105    1
