@<TRIPOS>MOLECULE
tmp/4e2jB00.pdb
 220 208 0 0 0
SMALL
GASTEIGER

@<TRIPOS>ATOM
      1  N        -25.3710   54.5810   33.2980 N.3    30  LEU30      -0.1231
      2  CA       -26.2940   55.2120   32.3660 C.3    30  LEU30       0.1693
      3  C        -27.6310   54.4700   32.2920 C.2    30  LEU30       0.2591
      4  O        -28.6860   55.0920   32.4530 O.2    30  LEU30      -0.2718
      5  CB       -25.6600   55.3640   30.9820 C.3    30  LEU30       0.0284
      6  CG       -26.3970   56.1820   29.9150 C.3    30  LEU30       0.0019
      7  CD1      -27.1110   57.4050   30.4800 C.3    30  LEU30       0.0001
      8  CD2      -25.3990   56.6070   28.8550 C.3    30  LEU30       0.0001
      9  N        -27.5790   53.1550   32.0780 N.am   31  MET31      -0.1979
     10  CA       -28.7860   52.3300   31.9830 C.3    31  MET31       0.1605
     11  C        -29.5710   52.2740   33.2960 C.2    31  MET31       0.2287
     12  O        -30.8020   52.2100   33.2810 O.2    31  MET31      -0.2864
     13  CB       -28.4460   50.9180   31.4930 C.3    31  MET31       0.0413
     14  CG       -27.8540   50.8840   30.0920 C.3    31  MET31       0.0598
     15  SD       -27.3900   49.2330   29.5250 S.3    31  MET31      -0.1393
     16  CE       -28.9920   48.5460   29.1720 C.3    31  MET31       0.0692
     17  N        -31.2540   55.7400   33.7110 N.3    34  LEU34      -0.1231
     18  CA       -32.3960   55.7860   32.7900 C.3    34  LEU34       0.1693
     19  C        -33.5830   54.9610   33.2740 C.2    34  LEU34       0.2592
     20  O        -34.7290   55.4050   33.1680 O.2    34  LEU34      -0.2718
     21  CB       -31.9890   55.3640   31.3780 C.3    34  LEU34       0.0284
     22  CG       -31.0920   56.3660   30.6440 C.3    34  LEU34       0.0019
     23  CD1      -30.5820   55.7870   29.3380 C.3    34  LEU34       0.0001
     24  CD2      -31.8120   57.6810   30.4020 C.3    34  LEU34       0.0001
     25  N        -33.3090   53.7780   33.8220 N.am   35  ASN35      -0.1974
     26  CA       -34.3600   52.9520   34.4090 C.3    35  ASN35       0.1688
     27  C        -35.0470   53.6020   35.6070 C.2    35  ASN35       0.2292
     28  O        -36.2680   53.5260   35.7290 O.2    35  ASN35      -0.2864
     29  CB       -33.8360   51.5580   34.7720 C.3    35  ASN35       0.1181
     30  CG       -33.5880   50.6920   33.5500 C.2    35  ASN35       0.2629
     31  OD1      -33.9900   51.0340   32.4390 O.2    35  ASN35      -0.2716
     32  ND2      -32.9240   49.5650   33.7500 N.am   35  ASN35      -0.0877
     33  N        -35.2410   56.8650   36.2300 N.3    37  LEU37      -0.1231
     34  CA       -36.0630   57.8760   35.5730 C.3    37  LEU37       0.1693
     35  C        -37.3110   57.2230   34.9570 C.2    37  LEU37       0.2592
     36  O        -38.4370   57.6880   35.1720 O.2    37  LEU37      -0.2718
     37  CB       -35.2460   58.6160   34.5060 C.3    37  LEU37       0.0284
     38  CG       -35.9610   59.6700   33.6500 C.3    37  LEU37       0.0019
     39  CD1      -36.3570   60.8960   34.4670 C.3    37  LEU37       0.0001
     40  CD2      -35.0960   60.0760   32.4630 C.3    37  LEU37       0.0001
     41  N        -37.1040   56.1320   34.2170 N.am   38  GLY38      -0.1957
     42  CA       -38.1960   55.3970   33.5760 C.3    38  GLY38       0.1869
     43  C        -39.2790   54.9860   34.5530 C.2    38  GLY38       0.2309
     44  O        -40.4750   55.1910   34.2940 O.2    38  GLY38      -0.2863
     45  N        -41.2670   58.0390   35.5490 N.3    41  GLN41      -0.1245
     46  CA       -42.1100   58.4170   34.4100 C.3    41  GLN41       0.1566
     47  C        -43.3380   57.5160   34.2640 C.2    41  GLN41       0.2260
     48  O        -44.4350   57.9970   33.9590 O.2    41  GLN41      -0.2867
     49  CB       -41.2980   58.4120   33.1090 C.3    41  GLN41       0.0367
     50  CG       -40.3420   59.5850   32.9550 C.3    41  GLN41       0.0905
     51  CD       -39.4150   59.4540   31.7570 C.2    41  GLN41       0.2608
     52  OE1      -39.4060   58.4330   31.0630 O.2    41  GLN41      -0.2717
     53  NE2      -38.6200   60.4870   31.5130 N.am   41  GLN41      -0.0878
     54  N        -46.5680   50.7130   28.0560 N.3    71  TRP71      -0.1227
     55  CA       -45.6760   51.6220   28.7880 C.3    71  TRP71       0.1737
     56  C        -44.4660   52.0560   28.0000 C.2    71  TRP71       0.2595
     57  O        -44.1340   53.2430   27.9820 O.2    71  TRP71      -0.2718
     58  CB       -45.2790   51.0420   30.1470 C.3    71  TRP71       0.0564
     59  CG       -44.2320   49.9600   30.0690 C.ar   71  TRP71       0.0003
     60  CD1      -44.4320   48.5990   29.8670 C.ar   71  TRP71       0.0946
     61  CD2      -42.7750   50.1200   30.1660 C.ar   71  TRP71       0.0152
     62  NE1      -43.2380   47.9270   29.8420 N.ar   71  TRP71      -0.2442
     63  CE2      -42.2040   48.7790   30.0120 C.ar   71  TRP71       0.0810
     64  CE3      -41.9200   51.2000   30.3510 C.ar   71  TRP71       0.0012
     65  CZ2      -40.8360   48.5510   30.0570 C.ar   71  TRP71       0.0191
     66  CZ3      -40.5400   50.9580   30.3960 C.ar   71  TRP71       0.0001
     67  CH2      -40.0140   49.6630   30.2550 C.ar   71  TRP71       0.0015
     68  N        -43.8090   51.1140   27.3270 N.am   72  MET72      -0.1979
     69  CA       -42.6170   51.4290   26.5430 C.3    72  MET72       0.1605
     70  C        -42.9430   52.3450   25.3620 C.2    72  MET72       0.2287
     71  O        -42.1470   53.2180   25.0180 O.2    72  MET72      -0.2864
     72  CB       -41.8980   50.1570   26.0790 C.3    72  MET72       0.0413
     73  CG       -40.6390   50.4060   25.2620 C.3    72  MET72       0.0598
     74  SD       -39.2820   51.1190   26.2150 S.3    72  MET72      -0.1393
     75  CE       -38.5940   49.6310   26.9390 C.3    72  MET72       0.0692
     76  N        -43.4150   55.9140   26.8320 N.3    75  MET75      -0.1230
     77  CA       -42.1010   56.4740   27.1760 C.3    75  MET75       0.1702
     78  C        -41.3260   56.8870   25.9360 C.2    75  MET75       0.2592
     79  O        -40.7730   57.9830   25.8820 O.2    75  MET75      -0.2718
     80  CB       -41.2480   55.4790   27.9770 C.3    75  MET75       0.0401
     81  CG       -41.8450   54.9640   29.2760 C.3    75  MET75       0.0596
     82  SD       -42.1970   56.2410   30.4910 S.3    75  MET75      -0.1393
     83  CE       -43.9140   56.6320   30.1420 C.3    75  MET75       0.0692
     84  N        -41.2930   56.0010   24.9440 N.am   76  ALA76      -0.1980
     85  CA       -40.5130   56.2070   23.7320 C.3    76  ALA76       0.1597
     86  C        -41.0520   57.3640   22.8960 C.2    76  ALA76       0.2287
     87  O        -40.2820   58.1160   22.2990 O.2    76  ALA76      -0.2864
     88  CB       -40.4630   54.9250   22.9140 C.3    76  ALA76       0.0319
     89  N        -40.1620   60.6020   24.7880 N.3    79  LEU79      -0.1245
     90  CA       -38.7440   60.7990   24.4920 C.3    79  LEU79       0.1561
     91  C        -38.5600   61.3990   23.0950 C.2    79  LEU79       0.2260
     92  O        -37.8080   62.3600   22.9200 O.2    79  LEU79      -0.2867
     93  CB       -37.9760   59.4770   24.6200 C.3    79  LEU79       0.0270
     94  CG       -36.4980   59.4660   24.2040 C.3    79  LEU79       0.0019
     95  CD1      -35.6680   60.3890   25.0850 C.3    79  LEU79       0.0001
     96  CD2      -35.9430   58.0460   24.2330 C.3    79  LEU79       0.0001
     97  N        -39.8330   65.1380   23.2780 N.3    82  ARG82      -0.1245
     98  CA       -38.8150   65.9330   23.9560 C.3    82  ARG82       0.1563
     99  C        -37.6250   66.2210   23.0520 C.2    82  ARG82       0.2260
    100  O        -37.1900   67.3640   22.9450 O.2    82  ARG82      -0.2867
    101  CB       -38.3220   65.2110   25.2070 C.3    82  ARG82       0.0307
    102  CG       -39.0380   65.5770   26.4890 C.3    82  ARG82       0.0489
    103  CD       -38.5330   64.6780   27.5990 C.3    82  ARG82       0.2205
    104  NE       -39.3900   63.5070   27.7350 N.pl3  82  ARG82      -0.0865
    105  CZ       -38.9760   62.2820   28.0350 C.cat  82  ARG82       0.5346
    106  NH1      -37.6920   62.0170   28.2200 N.pl3  82  ARG82       0.1354
    107  NH2      -39.8630   61.3100   28.1320 N.pl3  82  ARG82       0.1354
    108  N        -33.4270   62.6370   27.1050 N.3    94  PHE94      -0.1241
    109  CA       -34.0810   61.8550   28.1560 C.3    94  PHE94       0.1605
    110  C        -34.5930   62.7420   29.2870 C.2    94  PHE94       0.2264
    111  O        -35.6880   62.5310   29.8150 O.2    94  PHE94      -0.2867
    112  CB       -33.1240   60.7980   28.7120 C.3    94  PHE94       0.0534
    113  CG       -32.7390   59.7390   27.7160 C.ar   94  PHE94      -0.0203
    114  CD1      -33.5300   58.6070   27.5400 C.ar   94  PHE94      -0.0042
    115  CD2      -31.5800   59.8670   26.9580 C.ar   94  PHE94      -0.0042
    116  CE1      -33.1720   57.6270   26.6250 C.ar   94  PHE94      -0.0003
    117  CE2      -31.2200   58.8880   26.0400 C.ar   94  PHE94      -0.0003
    118  CZ       -32.0150   57.7640   25.8740 C.ar   94  PHE94      -0.0000
    119  N        -28.0560   63.1220   25.3860 N.3   100  ILE100     -0.1245
    120  CA       -26.9780   62.3870   24.7320 C.3   100  ILE100      0.1561
    121  C        -26.6740   62.9630   23.3450 C.2   100  ILE100      0.2260
    122  O        -27.5480   63.0200   22.4810 O.2   100  ILE100     -0.2867
    123  CB       -27.2610   60.8680   24.6960 C.3   100  ILE100      0.0252
    124  CG1      -27.3800   60.3270   26.1260 C.3   100  ILE100      0.0019
    125  CG2      -26.1580   60.1230   23.9580 C.3   100  ILE100      0.0019
    126  CD1      -27.6970   58.8480   26.2230 C.3   100  ILE100      0.0001
    127  N        -24.0360   51.4840   22.7130 N.3   110  MET110     -0.1245
    128  CA       -25.3790   52.0610   22.6350 C.3   110  MET110      0.1570
    129  C        -25.7480   52.5860   21.2410 C.2   110  MET110      0.2261
    130  O        -26.7360   53.3080   21.0900 O.2   110  MET110     -0.2867
    131  CB       -25.5580   53.1660   23.6850 C.3   110  MET110      0.0387
    132  CG       -24.6210   54.3570   23.5240 C.3   110  MET110      0.0595
    133  SD       -25.1420   55.7860   24.4920 S.3   110  MET110     -0.1393
    134  CE       -25.2280   55.0660   26.1240 C.3   110  MET110      0.0692
    135  N        -29.3180   50.9720   19.9240 N.3   113  GLN113     -0.1231
    136  CA       -30.4100   51.4640   20.7620 C.3   113  GLN113      0.1698
    137  C        -30.7220   52.9300   20.4700 C.2   113  GLN113      0.2592
    138  O        -31.8930   53.3100   20.3680 O.2   113  GLN113     -0.2718
    139  CB       -30.0910   51.2890   22.2520 C.3   113  GLN113      0.0381
    140  CG       -29.8270   49.8550   22.6940 C.3   113  GLN113      0.0905
    141  CD       -28.3460   49.4920   22.7110 C.2   113  GLN113      0.2608
    142  OE1      -27.6130   49.7640   21.7620 O.2   113  GLN113     -0.2717
    143  NE2      -27.9050   48.8680   23.7960 N.am  113  GLN113     -0.0878
    144  N        -29.6780   53.7430   20.3280 N.am  114  CYS114     -0.1970
    145  CA       -29.8490   55.1800   20.1150 C.3   114  CYS114      0.1712
    146  C        -30.4290   55.5160   18.7390 C.2   114  CYS114      0.2296
    147  O        -31.2670   56.4110   18.6200 O.2   114  CYS114     -0.2864
    148  CB       -28.5390   55.9300   20.3670 C.3   114  CYS114      0.0983
    149  SG       -28.0440   55.9740   22.1120 S.3   114  CYS114     -0.0798
    150  N        -34.1290   54.6850   18.9550 N.3   117  MET117     -0.1245
    151  CA       -34.8400   55.7310   19.6900 C.3   117  MET117      0.1570
    152  C        -34.9100   57.0320   18.8920 C.2   117  MET117      0.2261
    153  O        -35.8650   57.7960   19.0200 O.2   117  MET117     -0.2867
    154  CB       -34.2040   55.9600   21.0640 C.3   117  MET117      0.0387
    155  CG       -34.4470   54.8190   22.0350 C.3   117  MET117      0.0595
    156  SD       -33.6990   54.9900   23.6670 S.3   117  MET117     -0.1393
    157  CE       -31.9560   54.8460   23.2980 C.3   117  MET117      0.0692
    158  N        -36.9300   48.1360   20.9880 N.3   203  LEU203     -0.1245
    159  CA       -36.5910   48.7020   22.2950 C.3   203  LEU203      0.1561
    160  C        -36.9820   47.7650   23.4230 C.2   203  LEU203      0.2260
    161  O        -36.2620   47.6570   24.4200 O.2   203  LEU203     -0.2867
    162  CB       -37.2590   50.0630   22.4980 C.3   203  LEU203      0.0270
    163  CG       -37.0220   51.1370   21.4400 C.3   203  LEU203      0.0019
    164  CD1      -37.8430   52.3690   21.7890 C.3   203  LEU203      0.0001
    165  CD2      -35.5410   51.4740   21.3120 C.3   203  LEU203      0.0001
    166  N        -34.3720   44.9380   23.6730 N.3   206  PHE206     -0.1227
    167  CA       -33.2180   45.4150   24.4380 C.3   206  PHE206      0.1736
    168  C        -33.5210   45.4120   25.9290 C.2   206  PHE206      0.2595
    169  O        -32.7160   44.9440   26.7380 O.2   206  PHE206     -0.2718
    170  CB       -32.8000   46.8220   24.0020 C.3   206  PHE206      0.0547
    171  CG       -31.9420   46.8530   22.7680 C.ar  206  PHE206     -0.0202
    172  CD1      -30.6260   46.4040   22.8050 C.ar  206  PHE206     -0.0042
    173  CD2      -32.4410   47.3600   21.5700 C.ar  206  PHE206     -0.0042
    174  CE1      -29.8310   46.4420   21.6640 C.ar  206  PHE206     -0.0003
    175  CE2      -31.6540   47.3980   20.4280 C.ar  206  PHE206     -0.0003
    176  CZ       -30.3470   46.9370   20.4750 C.ar  206  PHE206     -0.0000
    177  N        -34.6960   45.9280   26.2780 N.am  207  CYS207     -0.1970
    178  CA       -35.1250   46.0360   27.6640 C.3   207  CYS207      0.1712
    179  C        -35.2810   44.6760   28.3360 C.2   207  CYS207      0.2296
    180  O        -34.7720   44.4760   29.4410 O.2   207  CYS207     -0.2864
    181  CB       -36.4210   46.8400   27.7450 C.3   207  CYS207      0.0983
    182  SG       -37.1500   46.9280   29.3910 S.3   207  CYS207     -0.0798
    183  N        -33.8930   41.8470   27.4260 N.3   209  TYR209     -0.1227
    184  CA       -32.5400   41.3030   27.4950 C.3   209  TYR209      0.1736
    185  C        -31.7800   41.8160   28.7170 C.2   209  TYR209      0.2596
    186  O        -31.2900   41.0280   29.5320 O.2   209  TYR209     -0.2718
    187  CB       -31.7710   41.6290   26.2060 C.3   209  TYR209      0.0548
    188  CG       -30.2690   41.5050   26.3280 C.ar  209  TYR209     -0.0200
    189  CD1      -29.6620   40.2570   26.4880 C.ar  209  TYR209     -0.0009
    190  CD2      -29.4520   42.6350   26.2810 C.ar  209  TYR209     -0.0009
    191  CE1      -28.2860   40.1410   26.6040 C.ar  209  TYR209      0.0417
    192  CE2      -28.0750   42.5270   26.3920 C.ar  209  TYR209      0.0417
    193  CZ       -27.4980   41.2760   26.5550 C.ar  209  TYR209      0.1957
    194  OH       -26.1320   41.1560   26.6670 O.3   209  TYR209     -0.2866
    195  N        -31.6970   43.1390   28.8280 N.am  210  THR210     -0.1953
    196  CA       -31.0400   43.8080   29.9450 C.3   210  THR210      0.1897
    197  C        -31.5970   43.3490   31.2970 C.2   210  THR210      0.2313
    198  O        -30.8620   43.2750   32.2790 O.2   210  THR210     -0.2863
    199  CB       -31.1720   45.3370   29.8030 C.3   210  THR210      0.1794
    200  OG1      -30.5490   45.7530   28.5800 O.3   210  THR210     -0.2208
    201  CG2      -30.5130   46.0510   30.9630 C.3   210  THR210      0.0378
    202  N        -32.9890   48.0070   38.1130 N.3   220  PHE220     -0.1241
    203  CA       -34.3710   48.2430   37.7220 C.3   220  PHE220      0.1605
    204  C        -35.1870   48.5590   38.9710 C.2   220  PHE220      0.2264
    205  O        -35.2020   47.7590   39.9070 O.2   220  PHE220     -0.2867
    206  CB       -34.9620   46.9920   37.0610 C.3   220  PHE220      0.0534
    207  CG       -34.4890   46.7560   35.6580 C.ar  220  PHE220     -0.0203
    208  CD1      -33.2810   46.1070   35.4120 C.ar  220  PHE220     -0.0042
    209  CD2      -35.2650   47.1620   34.5740 C.ar  220  PHE220     -0.0042
    210  CE1      -32.8470   45.8880   34.1090 C.ar  220  PHE220     -0.0003
    211  CE2      -34.8400   46.9390   33.2700 C.ar  220  PHE220     -0.0003
    212  CZ       -33.6300   46.3020   33.0380 C.ar  220  PHE220     -0.0000
    213  N        -40.7580   49.1250   37.2160 N.3   224  LEU224     -0.1245
    214  CA       -40.3990   48.5290   35.9280 C.3   224  LEU224      0.1561
    215  C        -40.2150   47.0190   36.0190 C.2   224  LEU224      0.2260
    216  O        -40.6290   46.2900   35.1150 O.2   224  LEU224     -0.2867
    217  CB       -39.1470   49.1800   35.3300 C.3   224  LEU224      0.0270
    218  CG       -39.1530   50.6780   35.0100 C.3   224  LEU224      0.0019
    219  CD1      -37.9360   51.0320   34.1700 C.3   224  LEU224      0.0001
    220  CD2      -40.4300   51.1080   34.2980 C.3   224  LEU224      0.0001
@<TRIPOS>BOND
     1   147   146    2
     2   146   145    1
     3   152   153    2
     4   152   151    1
     5   150   151    1
     6   151   154    1
     7   135   136    1
     8   145   144    1
     9   145   148    1
    10   144   137   am
    11   148   149    1
    12   138   137    2
    13   175   176   ar
    14   175   173   ar
    15   137   136    1
    16   176   174   ar
    17   136   139    1
    18   158   159    1
    19   154   155    1
    20   130   129    2
    21   129   128    1
    22   165   163    1
    23   163   164    1
    24   163   162    1
    25   173   171   ar
    26   174   172   ar
    27   142   141    2
    28   155   156    1
    29   139   140    1
    30   159   162    1
    31   159   160    1
    32    87    86    2
    33   122   121    2
    34   128   127    1
    35   128   131    1
    36   140   141    1
    37   141   143   am
    38   171   172   ar
    39   171   170    1
    40    86    85    1
    41    88    85    1
    42    92    91    2
    43   100    99    2
    44    99    98    1
    45    91    90    1
    46    97    98    1
    47   157   156    1
    48   121   120    1
    49   160   161    2
    50   132   131    1
    51   132   133    1
    52   166   167    1
    53    85    84    1
    54    98   101    1
    55   125   123    1
    56   170   167    1
    57    94    96    1
    58    94    93    1
    59    94    95    1
    60   167   168    1
    61    90    93    1
    62    90    89    1
    63   133   134    1
    64   123   120    1
    65   123   124    1
    66   120   119    1
    67    84    78   am
    68    71    70    2
    69   101   102    1
    70    73    72    1
    71    73    74    1
    72    70    69    1
    73   118   117   ar
    74   118   116   ar
    75    79    78    2
    76   168   177   am
    77   168   169    2
    78    78    77    1
    79   117   115   ar
    80    72    69    1
    81   124   126    1
    82   187   188    1
    83   187   184    1
    84    74    75    1
    85   177   178    1
    86   190   188   ar
    87   190   192   ar
    88   188   189   ar
    89   192   193   ar
    90   189   191   ar
    91   102   103    1
    92    69    68    1
    93   193   191   ar
    94   193   194    1
    95   116   114   ar
    96    76    77    1
    97   115   113   ar
    98   108   109    1
    99    77    80    1
   100    68    56   am
   101   183   184    1
   102   184   185    1
   103   114   113   ar
   104   103   104    1
   105   178   181    1
   106   178   179    1
   107   113   112    1
   108   104   105    2
   109   181   182    1
   110    80    81    1
   111    57    56    2
   112    56    55    1
   113   105   107    1
   114   105   106    1
   115    54    55    1
   116   109   112    1
   117   109   110    1
   118   179   180    2
   119   200   199    1
   120   185   195   am
   121   185   186    2
   122    55    58    1
   123   195   196    1
   124     8     6    1
   125    16    15    1
   126    81    82    1
   127   110   111    2
   128    23    22    1
   129    15    14    1
   130   199   196    1
   131   199   201    1
   132    62    60   ar
   133    62    63   ar
   134    60    59   ar
   135     6     7    1
   136     6     5    1
   137   196   197    1
   138    63    65   ar
   139    63    61   ar
   140    65    67   ar
   141    59    58    1
   142    59    61   ar
   143    14    13    1
   144    83    82    1
   145    61    64   ar
   146    67    66   ar
   147    64    66   ar
   148    24    22    1
   149    22    21    1
   150     5     2    1
   151    52    51    2
   152   197   198    2
   153    21    18    1
   154    13    10    1
   155    53    51   am
   156    51    50    1
   157    10     9    1
   158    10    11    1
   159     9     3   am
   160     3     2    1
   161     3     4    2
   162     2     1    1
   163    31    30    2
   164    40    38    1
   165    18    19    1
   166    18    17    1
   167    50    49    1
   168   212   211   ar
   169   212   210   ar
   170    49    46    1
   171    20    19    2
   172   211   209   ar
   173    19    25   am
   174    12    11    2
   175    30    32   am
   176    30    29    1
   177    42    41    1
   178    42    43    1
   179    38    39    1
   180    38    37    1
   181    25    26    1
   182    48    47    2
   183   210   208   ar
   184   219   218    1
   185    41    35   am
   186    47    46    1
   187    44    43    2
   188   220   218    1
   189    26    29    1
   190    26    27    1
   191    46    45    1
   192    37    34    1
   193   209   207   ar
   194    35    36    2
   195    35    34    1
   196   218   217    1
   197   216   215    2
   198   217   214    1
   199   208   207   ar
   200    34    33    1
   201    27    28    2
   202   207   206    1
   203   214   215    1
   204   214   213    1
   205   206   203    1
   206   203   202    1
   207   203   204    1
   208   204   205    2
