@<TRIPOS>MOLECULE
tmp/4e2oA01.pdb
 183 181 0 0 0
SMALL
GASTEIGER

@<TRIPOS>ATOM
      1  N        -57.9540  -13.8120    9.4010 N.3    66  TYR66      -0.1227
      2  CA       -57.0730  -14.9880    9.3650 C.3    66  TYR66       0.1736
      3  C        -55.6780  -14.6520    8.8340 C.2    66  TYR66       0.2595
      4  O        -54.6850  -15.2780    9.2160 O.2    66  TYR66      -0.2718
      5  CB       -57.6870  -16.1240    8.5360 C.3    66  TYR66       0.0548
      6  CG       -57.6320  -15.8780    7.0470 C.ar   66  TYR66      -0.0200
      7  CD1      -56.5570  -16.3360    6.2830 C.ar   66  TYR66      -0.0009
      8  CD2      -58.6450  -15.1690    6.4030 C.ar   66  TYR66      -0.0009
      9  CE1      -56.4930  -16.0900    4.9240 C.ar   66  TYR66       0.0417
     10  CE2      -58.5870  -14.9170    5.0440 C.ar   66  TYR66       0.0417
     11  CZ       -57.5120  -15.3840    4.3110 C.ar   66  TYR66       0.1957
     12  OH       -57.4530  -15.1410    2.9590 O.3    66  TYR66      -0.2866
     13  N        -55.6110  -13.6610    7.9510 N.am   67  HIS67      -0.1975
     14  CA       -54.3560  -13.2870    7.3060 C.3    67  HIS67       0.1656
     15  C        -53.5200  -12.3540    8.1630 C.2    67  HIS67       0.2291
     16  O        -52.3440  -12.1450    7.8850 O.2    67  HIS67      -0.2864
     17  CB       -54.6450  -12.6430    5.9590 C.3    67  HIS67       0.0771
     18  CG       -55.8410  -11.7530    5.9810 C.ar   67  HIS67       0.0820
     19  ND1      -55.8380  -10.5230    6.6060 N.ar   67  HIS67      -0.2267
     20  CD2      -57.0940  -11.9330    5.5000 C.ar   67  HIS67       0.1154
     21  CE1      -57.0330   -9.9740    6.4860 C.ar   67  HIS67       0.1986
     22  NE2      -57.8140  -10.8090    5.8220 N.ar   67  HIS67      -0.2212
     23  N        -53.9660   -9.0430    8.6660 N.3    69  TYR69      -0.1227
     24  CA       -53.8460   -7.6430    8.2540 C.3    69  TYR69       0.1736
     25  C        -54.9110   -6.6920    8.8270 C.2    69  TYR69       0.2595
     26  O        -54.8770   -5.4830    8.5710 O.2    69  TYR69      -0.2718
     27  CB       -53.7440   -7.5190    6.7240 C.3    69  TYR69       0.0548
     28  CG       -52.4340   -8.0380    6.1740 C.ar   69  TYR69      -0.0200
     29  CD1      -51.2540   -7.3090    6.3140 C.ar   69  TYR69      -0.0009
     30  CD2      -52.3690   -9.2670    5.5300 C.ar   69  TYR69      -0.0009
     31  CE1      -50.0490   -7.7930    5.8090 C.ar   69  TYR69       0.0417
     32  CE2      -51.1720   -9.7550    5.0240 C.ar   69  TYR69       0.0417
     33  CZ       -50.0210   -9.0230    5.1630 C.ar   69  TYR69       0.1957
     34  OH       -48.8410   -9.5310    4.6590 O.3    69  TYR69      -0.2866
     35  N        -55.8310   -7.2330    9.6200 N.am   70  TRP70      -0.1976
     36  CA       -56.8970   -6.4320   10.2170 C.3    70  TRP70       0.1640
     37  C        -56.6300   -6.2570   11.7070 C.2    70  TRP70       0.2290
     38  O        -57.3190   -6.8360   12.5400 O.2    70  TRP70      -0.2864
     39  CB       -58.2530   -7.1070    9.9990 C.3    70  TRP70       0.0576
     40  CG       -58.6390   -7.2570    8.5530 C.ar   70  TRP70       0.0006
     41  CD1      -58.0940   -6.6060    7.4870 C.ar   70  TRP70       0.0946
     42  CD2      -59.6520   -8.1230    8.0190 C.ar   70  TRP70       0.0152
     43  NE1      -58.7070   -7.0070    6.3210 N.ar   70  TRP70      -0.2442
     44  CE2      -59.6660   -7.9380    6.6210 C.ar   70  TRP70       0.0810
     45  CE3      -60.5540   -9.0340    8.5890 C.ar   70  TRP70       0.0012
     46  CZ2      -60.5450   -8.6330    5.7820 C.ar   70  TRP70       0.0191
     47  CZ3      -61.4200   -9.7260    7.7550 C.ar   70  TRP70       0.0001
     48  CH2      -61.4080   -9.5210    6.3670 C.ar   70  TRP70       0.0015
     49  N        -53.3960    1.3260    8.8830 N.3   109  HIS109     -0.1241
     50  CA       -54.7910    1.1020    9.2110 C.3   109  HIS109      0.1621
     51  C        -54.9470    0.0050   10.2560 C.2   109  HIS109      0.2264
     52  O        -54.0050   -0.7500   10.5530 O.2   109  HIS109     -0.2867
     53  CB       -55.5520    0.7110    7.9470 C.3   109  HIS109      0.0745
     54  CG       -55.1330   -0.6100    7.3800 C.ar  109  HIS109      0.0817
     55  ND1      -54.2040   -0.7250    6.3670 N.ar  109  HIS109     -0.2268
     56  CD2      -55.5010   -1.8730    7.6980 C.ar  109  HIS109      0.1154
     57  CE1      -54.0220   -2.0010    6.0830 C.ar  109  HIS109      0.1986
     58  NE2      -54.8000   -2.7190    6.8740 N.ar  109  HIS109     -0.2212
     59  N        -61.5180   -3.5560   10.2020 N.3   112  TYR112     -0.1241
     60  CA       -62.8380   -2.9470   10.0950 C.3   112  TYR112      0.1605
     61  C        -63.5010   -2.8360   11.4690 C.2   112  TYR112      0.2264
     62  O        -63.3330   -3.7130   12.3180 O.2   112  TYR112     -0.2867
     63  CB       -63.7230   -3.7650    9.1540 C.3   112  TYR112      0.0534
     64  CG       -63.1900   -3.8810    7.7380 C.ar  112  TYR112     -0.0201
     65  CD1      -63.2100   -2.7930    6.8730 C.ar  112  TYR112     -0.0009
     66  CD2      -62.6840   -5.0880    7.2640 C.ar  112  TYR112     -0.0009
     67  CE1      -62.7360   -2.9030    5.5760 C.ar  112  TYR112      0.0417
     68  CE2      -62.2030   -5.2020    5.9730 C.ar  112  TYR112      0.0417
     69  CZ       -62.2310   -4.1150    5.1360 C.ar  112  TYR112      0.1957
     70  OH       -61.7400   -4.2390    3.8580 O.3   112  TYR112     -0.2866
     71  N        -58.0510    2.3490    2.3470 N.3   146  VAL146     -0.1231
     72  CA       -57.6390    1.2470    1.4890 C.3   146  VAL146      0.1692
     73  C        -58.5420    0.0390    1.6950 C.2   146  VAL146      0.2592
     74  O        -58.5430   -0.5610    2.7690 O.2   146  VAL146     -0.2718
     75  CB       -56.1680    0.8840    1.7930 C.3   146  VAL146      0.0266
     76  CG1      -55.6850   -0.2510    0.9210 C.3   146  VAL146      0.0020
     77  CG2      -55.2920    2.1250    1.6330 C.3   146  VAL146      0.0020
     78  N        -59.3090   -0.3100    0.6600 N.am  147  TYR147     -0.1976
     79  CA       -60.3120   -1.3770    0.7320 C.3   147  TYR147      0.1639
     80  C        -61.2630   -1.2060    1.9090 C.2   147  TYR147      0.2290
     81  O        -61.7200   -2.1850    2.5050 O.2   147  TYR147     -0.2864
     82  CB       -59.6520   -2.7560    0.7510 C.3   147  TYR147      0.0560
     83  CG       -59.1030   -3.1390   -0.6050 C.ar  147  TYR147     -0.0198
     84  CD1      -59.9260   -3.7120   -1.5660 C.ar  147  TYR147     -0.0009
     85  CD2      -57.7700   -2.9060   -0.9340 C.ar  147  TYR147     -0.0009
     86  CE1      -59.4400   -4.0560   -2.8140 C.ar  147  TYR147      0.0417
     87  CE2      -57.2710   -3.2440   -2.1880 C.ar  147  TYR147      0.0417
     88  CZ       -58.1180   -3.8160   -3.1220 C.ar  147  TYR147      0.1957
     89  OH       -57.6470   -4.1540   -4.3700 O.3   147  TYR147     -0.2866
     90  N        -60.5760    0.1110    4.8540 N.3   149  LEU149     -0.1245
     91  CA       -59.9370   -0.0620    6.1610 C.3   149  LEU149      0.1561
     92  C        -59.7070    1.2760    6.8540 C.2   149  LEU149      0.2260
     93  O        -59.1380    2.1890    6.2550 O.2   149  LEU149     -0.2867
     94  CB       -58.5870   -0.7770    6.0250 C.3   149  LEU149      0.0270
     95  CG       -58.4200   -2.2920    6.1370 C.3   149  LEU149      0.0019
     96  CD1      -59.5760   -2.9550    6.8500 C.3   149  LEU149      0.0001
     97  CD2      -58.1450   -2.9230    4.7760 C.3   149  LEU149      0.0001
     98  N        -41.4110   -6.3630    7.5310 N.3   180  ARG180     -0.1245
     99  CA       -41.9170   -6.0730    6.2090 C.3   180  ARG180      0.1563
    100  C        -43.0020   -5.0260    6.4380 C.2   180  ARG180      0.2260
    101  O        -43.9290   -5.2580    7.2110 O.2   180  ARG180     -0.2867
    102  CB       -42.4910   -7.3180    5.5420 C.3   180  ARG180      0.0307
    103  CG       -43.0980   -7.0610    4.1790 C.3   180  ARG180      0.0489
    104  CD       -44.5980   -6.7730    4.2610 C.3   180  ARG180      0.2205
    105  NE       -45.2430   -6.9080    2.9590 N.pl3 180  ARG180     -0.0865
    106  CZ       -46.5440   -6.7450    2.7490 C.cat 180  ARG180      0.5346
    107  NH1      -47.0400   -6.8860    1.5310 N.pl3 180  ARG180      0.1354
    108  NH2      -47.3450   -6.4310    3.7540 N.pl3 180  ARG180      0.1354
    109  N        -46.1790   -3.0070    5.5340 N.3   182  ASP182     -0.1225
    110  CA       -47.4180   -3.0280    4.7500 C.3   182  ASP182      0.1805
    111  C        -47.7930   -1.6350    4.2440 C.2   182  ASP182      0.2598
    112  O        -47.4850   -0.6430    4.8970 O.2   182  ASP182     -0.2718
    113  CB       -48.5510   -3.5500    5.6420 C.3   182  ASP182      0.1424
    114  CG       -49.8390   -3.8070    4.8780 C.2   182  ASP182      0.3668
    115  OD1      -49.8650   -4.7700    4.0870 O.co2 182  ASP182     -0.2456
    116  OD2      -50.8320   -3.0690    5.0770 O.co2 182  ASP182     -0.2456
    117  N        -48.4730   -1.5640    3.0940 N.am  183  THR183     -0.1953
    118  CA       -49.1470   -0.3300    2.6370 C.3   183  THR183      0.1897
    119  C        -48.2920    0.9390    2.7090 C.2   183  THR183      0.2313
    120  O        -48.7530    1.9900    3.1620 O.2   183  THR183     -0.2863
    121  CB       -50.4700   -0.0740    3.4200 C.3   183  THR183      0.1794
    122  OG1      -50.3090   -0.4660    4.7920 O.3   183  THR183     -0.2208
    123  CG2      -51.6330   -0.8560    2.8060 C.3   183  THR183      0.0378
    124  N        -43.5320   -2.5670    1.2790 N.3   211  GLU211     -0.1245
    125  CA       -44.4270   -2.9590    0.1930 C.3   211  GLU211      0.1567
    126  C        -44.9600   -1.6890   -0.4640 C.2   211  GLU211      0.2260
    127  O        -45.8670   -1.0390    0.0610 O.2   211  GLU211     -0.2867
    128  CB       -45.6020   -3.8040    0.6900 C.3   211  GLU211      0.0388
    129  CG       -46.4530   -4.3870   -0.4470 C.3   211  GLU211      0.1160
    130  CD       -47.9450   -4.1710   -0.2520 C.2   211  GLU211      0.3649
    131  OE1      -48.3170   -3.4930    0.7310 O.co2 211  GLU211     -0.2457
    132  OE2      -48.7440   -4.6860   -1.0780 O.co2 211  GLU211     -0.2457
    133  N        -46.6380   -1.1360   -3.8070 N.3   213  TRP213     -0.1241
    134  CA       -47.1240   -1.8490   -4.9760 C.3   213  TRP213      0.1605
    135  C        -47.2950   -0.8960   -6.1540 C.2   213  TRP213      0.2264
    136  O        -48.3530   -0.2950   -6.3560 O.2   213  TRP213     -0.2867
    137  CB       -48.4030   -2.6300   -4.6640 C.3   213  TRP213      0.0550
    138  CG       -48.8350   -3.5690   -5.7410 C.ar  213  TRP213      0.0003
    139  CD1      -48.4900   -3.5360   -7.0670 C.ar  213  TRP213      0.0946
    140  CD2      -49.6940   -4.7040   -5.5790 C.ar  213  TRP213      0.0152
    141  NE1      -49.0930   -4.5800   -7.7400 N.ar  213  TRP213     -0.2442
    142  CE2      -49.8390   -5.3060   -6.8480 C.ar  213  TRP213      0.0810
    143  CE3      -50.3600   -5.2660   -4.4840 C.ar  213  TRP213      0.0012
    144  CZ2      -50.6080   -6.4520   -7.0450 C.ar  213  TRP213      0.0191
    145  CZ3      -51.1280   -6.3930   -4.6830 C.ar  213  TRP213      0.0001
    146  CH2      -51.2460   -6.9770   -5.9510 C.ar  213  TRP213      0.0015
    147  N        -48.9760  -13.5700   -1.6160 N.3   278  HIS278     -0.1226
    148  CA       -50.3160  -13.8070   -1.0930 C.3   278  HIS278      0.1752
    149  C        -51.3670  -12.9020   -1.7430 C.2   278  HIS278      0.2596
    150  O        -52.5700  -13.0260   -1.4600 O.2   278  HIS278     -0.2718
    151  CB       -50.3270  -13.6060    0.4260 C.3   278  HIS278      0.0759
    152  CG       -49.9710  -12.2150    0.8550 C.ar  278  HIS278      0.0818
    153  ND1      -48.8030  -11.5880    0.4660 N.ar  278  HIS278     -0.2268
    154  CD2      -50.6270  -11.3280    1.6430 C.ar  278  HIS278      0.1154
    155  CE1      -48.7580  -10.3770    0.9900 C.ar  278  HIS278      0.1986
    156  NE2      -49.8520  -10.1940    1.7090 N.ar  278  HIS278     -0.2212
    157  N        -50.9090  -12.0110   -2.6210 N.am  279  ASP279     -0.1974
    158  CA       -51.7760  -11.0350   -3.2500 C.3   279  ASP279      0.1709
    159  C        -51.8990  -11.2790   -4.7500 C.2   279  ASP279      0.2293
    160  O        -52.6270  -10.5640   -5.4350 O.2   279  ASP279     -0.2864
    161  CB       -51.2730   -9.5980   -3.0030 C.3   279  ASP279      0.1436
    162  CG       -51.4540   -9.1470   -1.5610 C.2   279  ASP279      0.3671
    163  OD1      -52.3000   -9.7460   -0.8500 O.co2 279  ASP279     -0.2456
    164  OD2      -50.7520   -8.1870   -1.1440 O.co2 279  ASP279     -0.2456
    165  N        -56.7000  -14.3530   -4.4090 N.3   327  ASP327     -0.1239
    166  CA       -57.0270  -14.2320   -2.9850 C.3   327  ASP327      0.1674
    167  C        -58.5130  -14.5180   -2.8270 C.2   327  ASP327      0.2266
    168  O        -59.3290  -13.8130   -3.4220 O.2   327  ASP327     -0.2867
    169  CB       -56.7100  -12.8000   -2.5400 C.3   327  ASP327      0.1410
    170  CG       -57.0660  -12.5140   -1.0790 C.2   327  ASP327      0.3668
    171  OD1      -57.4750  -13.4350   -0.3410 O.co2 327  ASP327     -0.2456
    172  OD2      -56.9160  -11.3350   -0.6610 O.co2 327  ASP327     -0.2456
    173  N        -53.9310  -18.9560   -1.0020 N.3   331  ARG331     -0.1245
    174  CA       -53.5100  -19.1490    0.3820 C.3   331  ARG331      0.1563
    175  C        -53.9130  -20.5340    0.8930 C.2   331  ARG331      0.2260
    176  O        -54.2960  -20.6930    2.0520 O.2   331  ARG331     -0.2867
    177  CB       -54.1200  -18.0460    1.2550 C.3   331  ARG331      0.0307
    178  CG       -53.7460  -16.6410    0.7790 C.3   331  ARG331      0.0489
    179  CD       -54.6130  -15.5140    1.3580 C.3   331  ARG331      0.2205
    180  NE       -54.2100  -14.2170    0.7980 N.pl3 331  ARG331     -0.0865
    181  CZ       -54.5890  -13.0260    1.2630 C.cat 331  ARG331      0.5346
    182  NH1      -55.3960  -12.9280    2.3090 N.pl3 331  ARG331      0.1354
    183  NH2      -54.1610  -11.9240    0.6740 N.pl3 331  ARG331      0.1354
@<TRIPOS>BOND
     1   141   139   ar
     2   141   142   ar
     3   139   138   ar
     4   144   142   ar
     5   144   146   ar
     6   142   140   ar
     7   136   135    2
     8   135   134    1
     9   146   145   ar
    10   138   140   ar
    11   138   137    1
    12   140   143   ar
    13   160   159    2
    14   134   137    1
    15   134   133    1
    16   159   158    1
    17   145   143   ar
    18   165   166    1
    19    89    88    1
    20   168   167    2
    21   158   161    1
    22   158   157    1
    23    88    86   ar
    24    88    87   ar
    25   161   162    1
    26   166   167    1
    27   166   169    1
    28    86    84   ar
    29   157   149   am
    30   169   170    1
    31    87    85   ar
    32   149   150    2
    33   149   148    1
    34   147   148    1
    35    84    83   ar
    36   162   164   ar
    37   162   163   ar
    38   148   151    1
    39   170   172   ar
    40   170   171   ar
    41   132   130   ar
    42   173   174    1
    43    85    83   ar
    44    83    82    1
    45   126   127    2
    46   126   125    1
    47   129   130    1
    48   129   128    1
    49   130   131   ar
    50   125   128    1
    51   125   124    1
    52   174   175    1
    53   174   177    1
    54   151   152    1
    55   153   152   ar
    56   153   155   ar
    57    78    79    1
    58    78    73   am
    59   183   181    1
    60    79    82    1
    61    79    80    1
    62   178   177    1
    63   178   179    1
    64   180   181    2
    65   180   179    1
    66   152   154   ar
    67   175   176    2
    68    76    75    1
    69   155   156   ar
    70   181   182    1
    71    72    73    1
    72    72    75    1
    73    72    71    1
    74   107   106    1
    75    77    75    1
    76   154   156   ar
    77    73    74    2
    78    80    81    2
    79   118   119    1
    80   118   117    1
    81   118   121    1
    82   119   120    2
    83   106   105    2
    84   106   108    1
    85   123   121    1
    86   105   104    1
    87    12    11    1
    88   117   111   am
    89   121   122    1
    90    70    69    1
    91   115   114   ar
    92   103   104    1
    93   103   102    1
    94   111   110    1
    95   111   112    2
    96    11     9   ar
    97    11    10   ar
    98    34    33    1
    99   110   109    1
   100   110   113    1
   101    97    95    1
   102    90    91    1
   103   114   116   ar
   104   114   113    1
   105     9     7   ar
   106    32    33   ar
   107    32    30   ar
   108    10     8   ar
   109    69    67   ar
   110    69    68   ar
   111    33    31   ar
   112    20    22   ar
   113    20    18   ar
   114    30    28   ar
   115   102    99    1
   116    67    65   ar
   117    46    48   ar
   118    46    44   ar
   119    31    29   ar
   120    22    21   ar
   121    17    18    1
   122    17    14    1
   123    68    66   ar
   124    18    19   ar
   125    94    95    1
   126    94    91    1
   127    57    55   ar
   128    57    58   ar
   129    95    96    1
   130    91    92    1
   131    28    29   ar
   132    28    27    1
   133    99   100    1
   134    99    98    1
   135    93    92    2
   136     7     6   ar
   137    43    44   ar
   138    43    41   ar
   139    55    54   ar
   140    48    47   ar
   141     8     6   ar
   142   100   101    2
   143    21    19   ar
   144    44    42   ar
   145    27    24    1
   146    65    64   ar
   147    58    56   ar
   148     6     5    1
   149    66    64   ar
   150    14    13    1
   151    14    15    1
   152    54    56   ar
   153    54    53    1
   154    41    40   ar
   155    64    63    1
   156    47    45   ar
   157    16    15    2
   158    53    50    1
   159    13     3   am
   160    42    40   ar
   161    42    45   ar
   162    24    23    1
   163    24    25    1
   164     5     2    1
   165    40    39    1
   166    26    25    2
   167    25    35   am
   168     3     4    2
   169     3     2    1
   170    49    50    1
   171    63    60    1
   172    50    51    1
   173     2     1    1
   174    35    36    1
   175    39    36    1
   176    60    59    1
   177    60    61    1
   178    36    37    1
   179    51    52    2
   180    61    62    2
   181    37    38    2
