@<TRIPOS>MOLECULE
tmp/4e2oA02.pdb
 106 105 0 0 0
SMALL
GASTEIGER

@<TRIPOS>ATOM
      1  N        -55.8200    6.4830   -7.9670 N.3   135  TRP135     -0.1241
      2  CA       -54.6350    5.7760   -7.4840 C.3   135  TRP135      0.1605
      3  C        -53.3230    6.2810   -8.0540 C.2   135  TRP135      0.2264
      4  O        -52.2900    5.6300   -7.9160 O.2   135  TRP135     -0.2867
      5  CB       -54.7670    4.2810   -7.7330 C.3   135  TRP135      0.0550
      6  CG       -55.7250    3.6630   -6.8100 C.ar  135  TRP135      0.0003
      7  CD1      -57.0650    3.8500   -6.7910 C.ar  135  TRP135      0.0946
      8  CD2      -55.4220    2.7610   -5.7400 C.ar  135  TRP135      0.0152
      9  NE1      -57.6300    3.1150   -5.7770 N.ar  135  TRP135     -0.2442
     10  CE2      -56.6380    2.4360   -5.1160 C.ar  135  TRP135      0.0810
     11  CE3      -54.2400    2.1880   -5.2560 C.ar  135  TRP135      0.0012
     12  CZ2      -56.7110    1.5580   -4.0300 C.ar  135  TRP135      0.0191
     13  CZ3      -54.3130    1.3270   -4.1790 C.ar  135  TRP135      0.0001
     14  CH2      -55.5430    1.0140   -3.5800 C.ar  135  TRP135      0.0015
     15  N        -58.0510    2.3490    2.3470 N.3   146  VAL146     -0.1231
     16  CA       -57.6390    1.2470    1.4890 C.3   146  VAL146      0.1692
     17  C        -58.5420    0.0390    1.6950 C.2   146  VAL146      0.2592
     18  O        -58.5430   -0.5610    2.7690 O.2   146  VAL146     -0.2718
     19  CB       -56.1680    0.8840    1.7930 C.3   146  VAL146      0.0266
     20  CG1      -55.6850   -0.2510    0.9210 C.3   146  VAL146      0.0020
     21  CG2      -55.2920    2.1250    1.6330 C.3   146  VAL146      0.0020
     22  N        -59.3090   -0.3100    0.6600 N.am  147  TYR147     -0.1976
     23  CA       -60.3120   -1.3770    0.7320 C.3   147  TYR147      0.1639
     24  C        -61.2630   -1.2060    1.9090 C.2   147  TYR147      0.2290
     25  O        -61.7200   -2.1850    2.5050 O.2   147  TYR147     -0.2864
     26  CB       -59.6520   -2.7560    0.7510 C.3   147  TYR147      0.0560
     27  CG       -59.1030   -3.1390   -0.6050 C.ar  147  TYR147     -0.0198
     28  CD1      -59.9260   -3.7120   -1.5660 C.ar  147  TYR147     -0.0009
     29  CD2      -57.7700   -2.9060   -0.9340 C.ar  147  TYR147     -0.0009
     30  CE1      -59.4400   -4.0560   -2.8140 C.ar  147  TYR147      0.0417
     31  CE2      -57.2710   -3.2440   -2.1880 C.ar  147  TYR147      0.0417
     32  CZ       -58.1180   -3.8160   -3.1220 C.ar  147  TYR147      0.1957
     33  OH       -57.6470   -4.1540   -4.3700 O.3   147  TYR147     -0.2866
     34  N        -46.1790   -3.0070    5.5340 N.3   182  ASP182     -0.1225
     35  CA       -47.4180   -3.0280    4.7500 C.3   182  ASP182      0.1805
     36  C        -47.7930   -1.6350    4.2440 C.2   182  ASP182      0.2598
     37  O        -47.4850   -0.6430    4.8970 O.2   182  ASP182     -0.2718
     38  CB       -48.5510   -3.5500    5.6420 C.3   182  ASP182      0.1424
     39  CG       -49.8390   -3.8070    4.8780 C.2   182  ASP182      0.3668
     40  OD1      -49.8650   -4.7700    4.0870 O.co2 182  ASP182     -0.2456
     41  OD2      -50.8320   -3.0690    5.0770 O.co2 182  ASP182     -0.2456
     42  N        -48.4730   -1.5640    3.0940 N.am  183  THR183     -0.1953
     43  CA       -49.1470   -0.3300    2.6370 C.3   183  THR183      0.1897
     44  C        -48.2920    0.9390    2.7090 C.2   183  THR183      0.2313
     45  O        -48.7530    1.9900    3.1620 O.2   183  THR183     -0.2863
     46  CB       -50.4700   -0.0740    3.4200 C.3   183  THR183      0.1794
     47  OG1      -50.3090   -0.4660    4.7920 O.3   183  THR183     -0.2208
     48  CG2      -51.6330   -0.8560    2.8060 C.3   183  THR183      0.0378
     49  N        -46.9730    2.9730    0.4180 N.3   185  ARG185     -0.1231
     50  CA       -47.3400    4.0870   -0.4720 C.3   185  ARG185      0.1694
     51  C        -48.5770    4.8390    0.0320 C.2   185  ARG185      0.2592
     52  O        -48.9790    5.8680   -0.5270 O.2   185  ARG185     -0.2718
     53  CB       -47.5980    3.5910   -1.9050 C.3   185  ARG185      0.0321
     54  CG       -48.9820    3.0010   -2.0950 C.3   185  ARG185      0.0489
     55  CD       -49.2160    2.4730   -3.5050 C.3   185  ARG185      0.2205
     56  NE       -49.1910    3.5100   -4.5330 N.pl3 185  ARG185     -0.0865
     57  CZ       -49.7410    3.3670   -5.7380 C.cat 185  ARG185      0.5346
     58  NH1      -50.3630    2.2350   -6.0550 N.pl3 185  ARG185      0.1354
     59  NH2      -49.6700    4.3420   -6.6290 N.pl3 185  ARG185      0.1354
     60  N        -49.1820    4.3100    1.0880 N.am  186  HIS186     -0.1976
     61  CA       -50.3810    4.8980    1.6380 C.3   186  HIS186      0.1656
     62  C        -50.0650    5.6940    2.8790 C.2   186  HIS186      0.2291
     63  O        -50.9290    6.3040    3.4430 O.2   186  HIS186     -0.2864
     64  CB       -51.4130    3.8170    1.9360 C.3   186  HIS186      0.0771
     65  CG       -51.8870    3.1010    0.7100 C.ar  186  HIS186      0.0820
     66  ND1      -52.6100    3.7280   -0.2820 N.ar  186  HIS186     -0.2267
     67  CD2      -51.7310    1.8200    0.3040 C.ar  186  HIS186      0.1154
     68  CE1      -52.8840    2.8620   -1.2430 C.ar  186  HIS186      0.1986
     69  NE2      -52.3630    1.6970   -0.9100 N.ar  186  HIS186     -0.2212
     70  N        -43.5320   -2.5670    1.2790 N.3   211  GLU211     -0.1245
     71  CA       -44.4270   -2.9590    0.1930 C.3   211  GLU211      0.1567
     72  C        -44.9600   -1.6890   -0.4640 C.2   211  GLU211      0.2260
     73  O        -45.8670   -1.0390    0.0610 O.2   211  GLU211     -0.2867
     74  CB       -45.6020   -3.8040    0.6900 C.3   211  GLU211      0.0388
     75  CG       -46.4530   -4.3870   -0.4470 C.3   211  GLU211      0.1160
     76  CD       -47.9450   -4.1710   -0.2520 C.2   211  GLU211      0.3649
     77  OE1      -48.3170   -3.4930    0.7310 O.co2 211  GLU211     -0.2457
     78  OE2      -48.7440   -4.6860   -1.0780 O.co2 211  GLU211     -0.2457
     79  N        -46.6380   -1.1360   -3.8070 N.3   213  TRP213     -0.1227
     80  CA       -47.1240   -1.8490   -4.9760 C.3   213  TRP213      0.1737
     81  C        -47.2950   -0.8960   -6.1540 C.2   213  TRP213      0.2596
     82  O        -48.3530   -0.2950   -6.3560 O.2   213  TRP213     -0.2718
     83  CB       -48.4030   -2.6300   -4.6640 C.3   213  TRP213      0.0564
     84  CG       -48.8350   -3.5690   -5.7410 C.ar  213  TRP213      0.0003
     85  CD1      -48.4900   -3.5360   -7.0670 C.ar  213  TRP213      0.0946
     86  CD2      -49.6940   -4.7040   -5.5790 C.ar  213  TRP213      0.0152
     87  NE1      -49.0930   -4.5800   -7.7400 N.ar  213  TRP213     -0.2442
     88  CE2      -49.8390   -5.3060   -6.8480 C.ar  213  TRP213      0.0810
     89  CE3      -50.3600   -5.2660   -4.4840 C.ar  213  TRP213      0.0012
     90  CZ2      -50.6080   -6.4520   -7.0450 C.ar  213  TRP213      0.0191
     91  CZ3      -51.1280   -6.3930   -4.6830 C.ar  213  TRP213      0.0001
     92  CH2      -51.2460   -6.9770   -5.9510 C.ar  213  TRP213      0.0015
     93  N        -46.2220   -0.7740   -6.9210 N.am  214  SER214     -0.1952
     94  CA       -46.2060    0.0040   -8.1460 C.3   214  SER214      0.1924
     95  C        -45.3430   -0.7020   -9.1750 C.2   214  SER214      0.2314
     96  O        -44.4040   -1.4190   -8.8190 O.2   214  SER214     -0.2863
     97  CB       -45.6330    1.3940   -7.8900 C.3   214  SER214      0.2116
     98  OG       -45.3690    2.0380   -9.1270 O.3   214  SER214     -0.2180
     99  N        -50.9090  -12.0110   -2.6210 N.3   279  ASP279     -0.1239
    100  CA       -51.7760  -11.0350   -3.2500 C.3   279  ASP279      0.1674
    101  C        -51.8990  -11.2790   -4.7500 C.2   279  ASP279      0.2266
    102  O        -52.6270  -10.5640   -5.4350 O.2   279  ASP279     -0.2867
    103  CB       -51.2730   -9.5980   -3.0030 C.3   279  ASP279      0.1410
    104  CG       -51.4540   -9.1470   -1.5610 C.2   279  ASP279      0.3668
    105  OD1      -52.3000   -9.7460   -0.8500 O.co2 279  ASP279     -0.2456
    106  OD2      -50.7520   -8.1870   -1.1440 O.co2 279  ASP279     -0.2456
@<TRIPOS>BOND
     1    95    96    2
     2    95    94    1
     3    98    97    1
     4    94    97    1
     5    94    93    1
     6     3     4    2
     7     3     2    1
     8     1     2    1
     9    87    85   ar
    10    87    88   ar
    11     5     2    1
    12     5     6    1
    13    85    84   ar
    14    90    88   ar
    15    90    92   ar
    16    93    81   am
    17    88    86   ar
    18     6     7   ar
    19     6     8   ar
    20     7     9   ar
    21    59    57    1
    22    82    81    2
    23    81    80    1
    24    58    57    1
    25    92    91   ar
    26     9    10   ar
    27    84    86   ar
    28    84    83    1
    29     8    11   ar
    30     8    10   ar
    31    57    56    2
    32    86    89   ar
    33   102   101    2
    34    11    13   ar
    35    10    12   ar
    36    80    83    1
    37    80    79    1
    38   101   100    1
    39    91    89   ar
    40    56    55    1
    41    33    32    1
    42    13    14   ar
    43    12    14   ar
    44    55    54    1
    45   100   103    1
    46   100    99    1
    47    32    30   ar
    48    32    31   ar
    49   103   104    1
    50    30    28   ar
    51    31    29   ar
    52    54    53    1
    53    53    50    1
    54    28    27   ar
    55   104   106   ar
    56   104   105   ar
    57    68    69   ar
    58    68    66   ar
    59    78    76   ar
    60    29    27   ar
    61    69    67   ar
    62    27    26    1
    63    52    51    2
    64    50    51    1
    65    50    49    1
    66    72    73    2
    67    72    71    1
    68    75    76    1
    69    75    74    1
    70    66    65   ar
    71    76    77   ar
    72    51    60   am
    73    71    74    1
    74    71    70    1
    75    67    65   ar
    76    22    23    1
    77    22    17   am
    78    65    64    1
    79    23    26    1
    80    23    24    1
    81    20    19    1
    82    60    61    1
    83    16    17    1
    84    16    19    1
    85    16    15    1
    86    21    19    1
    87    61    64    1
    88    61    62    1
    89    17    18    2
    90    24    25    2
    91    43    44    1
    92    43    42    1
    93    43    46    1
    94    44    45    2
    95    48    46    1
    96    62    63    2
    97    42    36   am
    98    46    47    1
    99    40    39   ar
   100    36    35    1
   101    36    37    2
   102    35    34    1
   103    35    38    1
   104    39    41   ar
   105    39    38    1
