@<TRIPOS>MOLECULE
tmp/4e2sH00.pdb
 124 117 0 0 0
SMALL
GASTEIGER

@<TRIPOS>ATOM
      1  N         96.7670   -1.9380   42.6980 N.3   164  PHE164     -0.1241
      2  CA        97.8210   -2.9470   42.6310 C.3   164  PHE164      0.1605
      3  C         97.3190   -4.2290   41.9630 C.2   164  PHE164      0.2264
      4  O         96.1250   -4.4770   41.9330 O.2   164  PHE164     -0.2867
      5  CB        98.3730   -3.2220   44.0420 C.3   164  PHE164      0.0534
      6  CG        97.3450   -3.7100   45.0310 C.ar  164  PHE164     -0.0203
      7  CD1       96.9170   -5.0330   45.0220 C.ar  164  PHE164     -0.0042
      8  CD2       96.8090   -2.8450   45.9810 C.ar  164  PHE164     -0.0042
      9  CE1       95.9730   -5.4820   45.9440 C.ar  164  PHE164     -0.0003
     10  CE2       95.8590   -3.2910   46.9100 C.ar  164  PHE164     -0.0003
     11  CZ        95.4450   -4.6100   46.8870 C.ar  164  PHE164     -0.0000
     12  N         99.3480  -13.6510   49.4900 N.3   181  HIS181     -0.1241
     13  CA        99.0890  -12.7570   48.3690 C.3   181  HIS181      0.1621
     14  C        100.3490  -12.2750   47.6820 C.2   181  HIS181      0.2264
     15  O        101.4080  -12.1730   48.2850 O.2   181  HIS181     -0.2867
     16  CB        98.3210  -11.5200   48.8300 C.3   181  HIS181      0.0745
     17  CG        96.9740  -11.8150   49.3980 C.ar  181  HIS181      0.0817
     18  ND1       96.1440  -10.8260   49.8760 N.ar  181  HIS181     -0.2268
     19  CD2       96.2910  -12.9760   49.5260 C.ar  181  HIS181      0.1154
     20  CE1       95.0030  -11.3650   50.2670 C.ar  181  HIS181      0.1986
     21  NE2       95.0660  -12.6680   50.0650 N.ar  181  HIS181     -0.2212
     22  N        101.4970   -9.0020   45.5420 N.3   183  MET183     -0.1245
     23  CA       101.0160   -7.6550   45.2530 C.3   183  MET183      0.1570
     24  C        102.0200   -6.7750   44.5200 C.2   183  MET183      0.2261
     25  O        103.0190   -6.3390   45.0890 O.2   183  MET183     -0.2867
     26  CB       100.5300   -6.9690   46.5500 C.3   183  MET183      0.0387
     27  CG        99.1900   -7.5170   47.0700 C.3   183  MET183      0.0595
     28  SD        98.6360   -6.9140   48.6880 S.3   183  MET183     -0.1393
     29  CE        98.4480   -5.1680   48.3820 C.3   183  MET183      0.0692
     30  N         98.7850    2.4080   47.9810 N.3   191  LEU191     -0.1245
     31  CA        97.5110    1.9440   48.5240 C.3   191  LEU191      0.1561
     32  C         96.6210    3.1390   48.7880 C.2   191  LEU191      0.2260
     33  O         97.0380    4.0790   49.4520 O.2   191  LEU191     -0.2867
     34  CB        97.7100    1.1880   49.8330 C.3   191  LEU191      0.0270
     35  CG        97.6850   -0.3410   49.9110 C.3   191  LEU191      0.0019
     36  CD1       97.7770   -0.7170   51.3770 C.3   191  LEU191      0.0001
     37  CD2       96.4170   -0.9150   49.3280 C.3   191  LEU191      0.0001
     38  N         94.7350    1.2080   55.4000 N.3   195  GLU195     -0.1245
     39  CA        94.2980    0.0570   56.1610 C.3   195  GLU195      0.1567
     40  C         94.4780    0.0160   57.6720 C.2   195  GLU195      0.2260
     41  O         95.4710    0.4820   58.2310 O.2   195  GLU195     -0.2867
     42  CB        94.9140   -1.2010   55.5630 C.3   195  GLU195      0.0388
     43  CG        94.3180   -1.6380   54.2500 C.3   195  GLU195      0.1160
     44  CD        95.0180   -2.8750   53.7100 C.2   195  GLU195      0.3649
     45  OE1       95.5810   -3.6250   54.5360 O.co2 195  GLU195     -0.2457
     46  OE2       94.9980   -3.1050   52.4780 O.co2 195  GLU195     -0.2457
     47  N         92.9510   -3.1790   59.9820 N.3   197  HIS197     -0.1241
     48  CA        92.1290   -4.3800   60.0140 C.3   197  HIS197      0.1621
     49  C         92.6110   -5.3880   61.0410 C.2   197  HIS197      0.2264
     50  O         93.7850   -5.4100   61.3850 O.2   197  HIS197     -0.2867
     51  CB        92.0960   -5.0300   58.6160 C.3   197  HIS197      0.0745
     52  CG        93.4490   -5.3420   58.0420 C.ar  197  HIS197      0.0817
     53  ND1       94.4080   -6.0630   58.7250 N.ar  197  HIS197     -0.2268
     54  CD2       93.9800   -5.0850   56.8210 C.ar  197  HIS197      0.1154
     55  CE1       95.4650   -6.2400   57.9500 C.ar  197  HIS197      0.1986
     56  NE2       95.2310   -5.6570   56.7890 N.ar  197  HIS197     -0.2212
     57  N         99.7030   -9.5740   59.2690 N.3   201  HIS201     -0.1241
     58  CA       100.5730   -9.8880   58.1540 C.3   201  HIS201      0.1621
     59  C        102.0170  -10.2060   58.4910 C.2   201  HIS201      0.2264
     60  O        102.5400   -9.8480   59.5510 O.2   201  HIS201     -0.2867
     61  CB       100.5900   -8.7370   57.1500 C.3   201  HIS201      0.0745
     62  CG        99.2480   -8.3860   56.5980 C.ar  201  HIS201      0.0817
     63  ND1       98.4500   -9.2970   55.9400 N.ar  201  HIS201     -0.2268
     64  CD2       98.5750   -7.2120   56.5780 C.ar  201  HIS201      0.1154
     65  CE1       97.3430   -8.6990   55.5390 C.ar  201  HIS201      0.1986
     66  NE2       97.3940   -7.4340   55.9130 N.ar  201  HIS201     -0.2212
     67  N        107.1130    2.3310   53.2290 N.3   212  TYR212     -0.1241
     68  CA       106.0450    1.6240   53.9130 C.3   212  TYR212      0.1605
     69  C        105.6920    2.4000   55.1790 C.2   212  TYR212      0.2264
     70  O        106.5730    2.7590   55.9510 O.2   212  TYR212     -0.2867
     71  CB       106.4960    0.2010   54.2890 C.3   212  TYR212      0.0534
     72  CG       105.4050   -0.8360   54.1250 C.ar  212  TYR212     -0.0201
     73  CD1      105.3840   -1.6720   53.0100 C.ar  212  TYR212     -0.0009
     74  CD2      104.3350   -0.9070   55.0180 C.ar  212  TYR212     -0.0009
     75  CE1      104.3270   -2.5410   52.7730 C.ar  212  TYR212      0.0417
     76  CE2      103.2690   -1.7740   54.7910 C.ar  212  TYR212      0.0417
     77  CZ       103.2720   -2.5820   53.6600 C.ar  212  TYR212      0.1957
     78  OH       102.2050   -3.4080   53.3830 O.3   212  TYR212     -0.2866
     79  N        103.2750   -7.2340   60.6800 N.3   229  MET229     -0.1245
     80  CA       102.2000   -6.2860   60.9600 C.3   229  MET229      0.1570
     81  C        101.1830   -6.8890   61.9280 C.2   229  MET229      0.2261
     82  O        100.3710   -7.7150   61.5480 O.2   229  MET229     -0.2867
     83  CB       101.4970   -5.8730   59.6620 C.3   229  MET229      0.0387
     84  CG       102.3340   -4.9740   58.7630 C.3   229  MET229      0.0595
     85  SD       101.6170   -4.6700   57.1250 S.3   229  MET229     -0.1393
     86  CE       102.6530   -5.6840   56.1370 C.3   229  MET229      0.0692
     87  N         98.4300    0.6460   58.1490 N.3   235  GLN235     -0.1245
     88  CA        99.4390    0.2980   57.1620 C.3   235  GLN235      0.1566
     89  C         99.2420    0.9660   55.8330 C.2   235  GLN235      0.2260
     90  O         98.1240    1.3030   55.4750 O.2   235  GLN235     -0.2867
     91  CB        99.4780   -1.2080   56.9660 C.3   235  GLN235      0.0367
     92  CG        98.1430   -1.8800   57.1500 C.3   235  GLN235      0.0905
     93  CD        98.2440   -3.3690   56.9990 C.2   235  GLN235      0.2608
     94  OE1       98.4130   -3.8760   55.9030 O.2   235  GLN235     -0.2717
     95  NE2       98.1550   -4.0780   58.1050 N.am  235  GLN235     -0.0878
     96  N        105.7620   -7.7360   46.5740 N.3   247  TYR247     -0.1241
     97  CA       105.9690   -8.3350   47.8730 C.3   247  TYR247      0.1605
     98  C        104.9900   -9.4630   48.1900 C.2   247  TYR247      0.2264
     99  O        103.8030   -9.3830   47.8900 O.2   247  TYR247     -0.2867
    100  CB       105.9610   -7.2570   48.9630 C.3   247  TYR247      0.0534
    101  CG       104.6960   -6.4420   49.1590 C.ar  247  TYR247     -0.0201
    102  CD1      103.5900   -6.9710   49.8230 C.ar  247  TYR247     -0.0009
    103  CD2      104.6570   -5.0970   48.7950 C.ar  247  TYR247     -0.0009
    104  CE1      102.4920   -6.1780   50.1330 C.ar  247  TYR247      0.0417
    105  CE2      103.5620   -4.2900   49.1010 C.ar  247  TYR247      0.0417
    106  CZ       102.4890   -4.8330   49.7750 C.ar  247  TYR247      0.1957
    107  OH       101.4480   -4.0140   50.1430 O.3   247  TYR247     -0.2866
    108  N        102.8780  -11.8870   50.7150 N.3   249  LEU249     -0.1245
    109  CA       102.2020  -11.5400   51.9500 C.3   249  LEU249      0.1561
    110  C        101.2450  -12.5390   52.5780 C.2   249  LEU249      0.2260
    111  O        100.2900  -12.9700   51.9500 O.2   249  LEU249     -0.2867
    112  CB       101.4480  -10.2340   51.7190 C.3   249  LEU249      0.0270
    113  CG       100.5250   -9.7760   52.8340 C.3   249  LEU249      0.0019
    114  CD1      101.3420   -9.0180   53.8490 C.3   249  LEU249      0.0001
    115  CD2       99.4100   -8.9090   52.2690 C.3   249  LEU249      0.0001
    116  N         98.3110  -13.6670   55.2550 N.3   251  LYS251     -0.1245
    117  CA        97.0990  -13.0000   55.7140 C.3   251  LYS251      0.1561
    118  C         96.1270  -14.0460   56.2300 C.2   251  LYS251      0.2260
    119  O         95.8340  -15.0200   55.5490 O.2   251  LYS251     -0.2867
    120  CB        96.4560  -12.2080   54.5750 C.3   251  LYS251      0.0271
    121  CG        95.3120  -11.3200   55.0220 C.3   251  LYS251      0.0035
    122  CD        94.6650  -10.6050   53.8540 C.3   251  LYS251      0.0206
    123  CE        93.5310   -9.7340   54.3490 C.3   251  LYS251      0.1093
    124  NZ        92.7930   -9.1160   53.2310 N.3   251  LYS251     -0.1314
@<TRIPOS>BOND
     1     4     3    2
     2     3     2    1
     3     2     1    1
     4     2     5    1
     5     5     6    1
     6    24    25    2
     7    24    23    1
     8     7     6   ar
     9     7     9   ar
    10     6     8   ar
    11    23    22    1
    12    23    26    1
    13     9    11   ar
    14     8    10   ar
    15    26    27    1
    16    96    97    1
    17    11    10   ar
    18    27    28    1
    19    14    15    2
    20    14    13    1
    21    97    98    1
    22    97   100    1
    23    99    98    2
    24    30    31    1
    25    13    16    1
    26    13    12    1
    27    29    28    1
    28    31    32    1
    29    31    34    1
    30    32    33    2
    31   103   105   ar
    32   103   101   ar
    33    16    17    1
    34   100   101    1
    35   105   106   ar
    36   101   102   ar
    37    37    35    1
    38    17    19   ar
    39    17    18   ar
    40    19    21   ar
    41   106   104   ar
    42   106   107    1
    43   102   104   ar
    44    34    35    1
    45    18    20   ar
    46    35    36    1
    47    21    20   ar
    48   108   109    1
    49   112   109    1
    50   112   113    1
    51   109   110    1
    52   111   110    2
    53   115   113    1
    54    46    44   ar
    55    75    73   ar
    56    75    77   ar
    57   113   114    1
    58    73    72   ar
    59    67    68    1
    60   124   123    1
    61    78    77    1
    62    77    76   ar
    63    44    43    1
    64    44    45   ar
    65   122   123    1
    66   122   121    1
    67    68    71    1
    68    68    69    1
    69    72    71    1
    70    72    74   ar
    71    43    42    1
    72   120   121    1
    73   120   117    1
    74    76    74   ar
    75    69    70    2
    76   116   117    1
    77    38    39    1
    78    90    89    2
    79    65    66   ar
    80    65    63   ar
    81   119   118    2
    82    42    39    1
    83   117   118    1
    84    89    88    1
    85    94    93    2
    86    66    64   ar
    87    63    62   ar
    88    86    85    1
    89    39    40    1
    90    64    62   ar
    91    62    61    1
    92    56    54   ar
    93    56    55   ar
    94    54    52   ar
    95    91    92    1
    96    91    88    1
    97    93    92    1
    98    93    95   am
    99    85    84    1
   100    61    58    1
   101    88    87    1
   102    40    41    2
   103    55    53   ar
   104    52    51    1
   105    52    53   ar
   106    58    59    1
   107    58    57    1
   108    59    60    2
   109    51    48    1
   110    84    83    1
   111    83    80    1
   112    47    48    1
   113    48    49    1
   114    79    80    1
   115    80    81    1
   116    49    50    2
   117    82    81    2
