@<TRIPOS>MOLECULE
tmp/4e2xA01.pdb
 205 198 0 0 0
SMALL
GASTEIGER

@<TRIPOS>ATOM
      1  N        -15.5280   10.1420   -6.3040 N.3    24  ASP24      -0.1239
      2  CA       -16.8910    9.6430   -6.4400 C.3    24  ASP24       0.1674
      3  C        -16.9770    8.5870   -7.5260 C.2    24  ASP24       0.2266
      4  O        -18.0770    8.2130   -7.9830 O.2    24  ASP24      -0.2867
      5  CB       -17.9400   10.7440   -6.6430 C.3    24  ASP24       0.1410
      6  CG       -18.5240   11.2410   -5.3330 C.2    24  ASP24       0.3668
      7  OD1      -18.9440   10.3410   -4.6030 O.co2  24  ASP24      -0.2456
      8  OD2      -18.5710   12.4530   -5.0890 O.co2  24  ASP24      -0.2456
      9  N        -23.7220   10.8440   -5.9630 N.3    69  TYR69      -0.1227
     10  CA       -24.1060   11.3430   -4.6230 C.3    69  TYR69       0.1736
     11  C        -25.5890   11.6910   -4.6770 C.2    69  TYR69       0.2595
     12  O        -26.0000   12.4970   -5.5420 O.2    69  TYR69      -0.2718
     13  CB       -23.4360   12.6860   -4.3530 C.3    69  TYR69       0.0548
     14  CG       -23.7200   13.1840   -2.9400 C.ar   69  TYR69      -0.0200
     15  CD1      -23.3310   12.4340   -1.8330 C.ar   69  TYR69      -0.0009
     16  CD2      -24.4170   14.3770   -2.7000 C.ar   69  TYR69      -0.0009
     17  CE1      -23.5570   12.8490   -0.5040 C.ar   69  TYR69       0.0417
     18  CE2      -24.6470   14.8020   -1.3990 C.ar   69  TYR69       0.0417
     19  CZ       -24.2650   14.0300   -0.3610 C.ar   69  TYR69       0.1957
     20  OH       -24.5010   14.5670    0.8640 O.3    69  TYR69      -0.2866
     21  N        -26.3790   11.1230   -3.7740 N.am   70  HIS70      -0.1975
     22  CA       -27.8050   11.4700   -3.7630 C.3    70  HIS70       0.1656
     23  C        -28.0240   12.2680   -2.4750 C.2    70  HIS70       0.2291
     24  O        -27.9520   11.7250   -1.3460 O.2    70  HIS70      -0.2864
     25  CB       -28.6680   10.2000   -3.8420 C.3    70  HIS70       0.0771
     26  CG       -28.6970    9.6090   -5.2170 C.ar   70  HIS70       0.0820
     27  ND1      -27.5650    9.1860   -5.8810 N.ar   70  HIS70      -0.2267
     28  CD2      -29.7310    9.3190   -6.0390 C.ar   70  HIS70       0.1154
     29  CE1      -27.8950    8.6890   -7.0590 C.ar   70  HIS70       0.1986
     30  NE2      -29.2060    8.7670   -7.1810 N.ar   70  HIS70      -0.2212
     31  N        -30.4150   11.3080    0.5050 N.3    73  GLY73      -0.1210
     32  CA       -30.1600   10.2230    1.4320 C.3    73  GLY73       0.1956
     33  C        -30.0000   10.5850    2.8990 C.2    73  GLY73       0.2612
     34  O        -29.8450    9.6820    3.7240 O.2    73  GLY73      -0.2717
     35  N        -30.1000   11.8380    3.3130 N.am   74  SER74      -0.1952
     36  CA       -29.9290   12.1030    4.7330 C.3    74  SER74       0.1924
     37  C        -31.2060   12.8490    5.1260 C.2    74  SER74       0.2314
     38  O        -31.5480   13.8560    4.5040 O.2    74  SER74      -0.2863
     39  CB       -28.7900   13.1170    4.8540 C.3    74  SER74       0.2116
     40  OG       -28.8500   13.8130    6.1100 O.3    74  SER74      -0.2180
     41  N        -10.5400   17.0290   -1.2120 N.3   213  PHE213     -0.1241
     42  CA       -10.6010   16.0260   -2.2960 C.3   213  PHE213      0.1605
     43  C        -11.0120   16.7120   -3.5940 C.2   213  PHE213      0.2264
     44  O        -11.2260   17.9260   -3.5750 O.2   213  PHE213     -0.2867
     45  CB       -11.5210   14.8580   -1.9240 C.3   213  PHE213      0.0534
     46  CG       -12.9520   15.2250   -1.6020 C.ar  213  PHE213     -0.0203
     47  CD1      -13.9610   15.0930   -2.5430 C.ar  213  PHE213     -0.0042
     48  CD2      -13.3020   15.6590   -0.3380 C.ar  213  PHE213     -0.0042
     49  CE1      -15.2900   15.3810   -2.2500 C.ar  213  PHE213     -0.0003
     50  CE2      -14.6160   15.9250   -0.0410 C.ar  213  PHE213     -0.0003
     51  CZ       -15.6100   15.8530   -1.0010 C.ar  213  PHE213     -0.0000
     52  N        -13.7050   19.3670   -3.8770 N.3   216  HIS216     -0.1241
     53  CA       -13.6370   20.5910   -3.0790 C.3   216  HIS216      0.1621
     54  C        -12.4080   21.4070   -3.4490 C.2   216  HIS216      0.2264
     55  O        -11.3800   21.3350   -2.7970 O.2   216  HIS216     -0.2867
     56  CB       -13.5040   20.1950   -1.6300 C.3   216  HIS216      0.0745
     57  CG       -14.8180   19.7360   -1.0760 C.ar  216  HIS216      0.0817
     58  ND1      -14.9990   19.3530    0.2400 N.ar  216  HIS216     -0.2268
     59  CD2      -16.0250   19.5990   -1.6780 C.ar  216  HIS216      0.1154
     60  CE1      -16.2540   18.9810    0.4200 C.ar  216  HIS216      0.1986
     61  NE2      -16.8980   19.1300   -0.7270 N.ar  216  HIS216     -0.2212
     62  N        -22.4970   18.9890    7.3210 N.3   245  HIS245     -0.1241
     63  CA       -21.2760   18.6330    6.6380 C.3   245  HIS245      0.1621
     64  C        -19.9650   19.0010    7.2850 C.2   245  HIS245      0.2264
     65  O        -18.9590   19.3320    6.6340 O.2   245  HIS245     -0.2867
     66  CB       -21.3040   19.1470    5.2100 C.3   245  HIS245      0.0745
     67  CG       -22.3320   18.4580    4.3660 C.ar  245  HIS245      0.0817
     68  ND1      -22.2790   17.1080    4.0810 N.ar  245  HIS245     -0.2268
     69  CD2      -23.4330   18.9350    3.7390 C.ar  245  HIS245      0.1154
     70  CE1      -23.3310   16.7760    3.3540 C.ar  245  HIS245      0.1986
     71  NE2      -24.0250   17.8720    3.1010 N.ar  245  HIS245     -0.2212
     72  N        -18.1760    2.8080    7.8490 N.3   314  TYR314     -0.1227
     73  CA       -19.5940    3.1780    7.7540 C.3   314  TYR314      0.1736
     74  C        -19.6880    4.4990    6.9920 C.2   314  TYR314      0.2596
     75  O        -19.1920    5.5280    7.4150 O.2   314  TYR314     -0.2718
     76  CB       -20.2130    3.2590    9.1500 C.3   314  TYR314      0.0548
     77  CG       -21.7280    3.1140    9.0630 C.ar  314  TYR314     -0.0200
     78  CD1      -22.4860    4.0420    8.3280 C.ar  314  TYR314     -0.0009
     79  CD2      -22.3720    2.0170    9.6560 C.ar  314  TYR314     -0.0009
     80  CE1      -23.8800    3.8980    8.2110 C.ar  314  TYR314      0.0417
     81  CE2      -23.7620    1.8730    9.5520 C.ar  314  TYR314      0.0417
     82  CZ       -24.5010    2.8190    8.8520 C.ar  314  TYR314      0.1957
     83  OH       -25.8800    2.6720    8.7610 O.3   314  TYR314     -0.2866
     84  N        -20.2640    4.4110    5.7960 N.am  315  GLY315     -0.1957
     85  CA       -20.5110    5.5370    4.8950 C.3   315  GLY315      0.1869
     86  C        -19.4650    5.4770    3.7980 C.2   315  GLY315      0.2309
     87  O        -18.2760    5.6680    4.0680 O.2   315  GLY315     -0.2863
     88  N        -18.2300    7.5820    1.7480 N.3   317  THR317     -0.1203
     89  CA       -18.2240    9.0260    1.5210 C.3   317  THR317      0.1994
     90  C        -17.2060    9.2900    0.4120 C.2   317  THR317      0.2618
     91  O        -16.2230    8.5620    0.3250 O.2   317  THR317     -0.2717
     92  CB       -17.7980    9.7300    2.8270 C.3   317  THR317      0.1784
     93  OG1      -16.5170    9.1910    3.1740 O.3   317  THR317     -0.2211
     94  CG2      -18.8340    9.6080    4.0100 C.3   317  THR317      0.0376
     95  N        -17.4170   10.3170   -0.4070 N.am  318  ALA318     -0.1965
     96  CA       -16.4190   10.9400   -1.2640 C.3   318  ALA318      0.1728
     97  C        -15.1700   11.2970   -0.4440 C.2   318  ALA318      0.2616
     98  O        -14.0230   11.0490   -0.7880 O.2   318  ALA318     -0.2715
     99  CB       -16.9920   12.1610   -1.9150 C.3   318  ALA318      0.0334
    100  N        -15.4690   11.8450    0.7480 N.am  319  LYS319     -0.1977
    101  CA       -14.4810   12.2710    1.7540 C.3   319  LYS319      0.1596
    102  C        -13.4730   11.1610    2.0920 C.2   319  LYS319      0.2287
    103  O        -12.2570   11.3940    2.2480 O.2   319  LYS319     -0.2864
    104  CB       -15.0760   12.7620    3.0840 C.3   319  LYS319      0.0298
    105  CG       -15.8320   14.0990    2.9280 C.3   319  LYS319      0.0038
    106  CD       -16.1950   14.6960    4.3000 C.3   319  LYS319      0.0206
    107  CE       -17.1670   13.8310    5.0920 C.3   319  LYS319      0.1093
    108  NZ       -18.5290   13.7030    4.4810 N.3   319  LYS319     -0.1314
    109  N        -20.2130    0.0930    4.6670 N.3   338  TYR338     -0.1227
    110  CA       -21.6730    0.0200    4.5550 C.3   338  TYR338      0.1736
    111  C        -22.2340    1.3690    4.1290 C.2   338  TYR338      0.2595
    112  O        -21.7980    2.4300    4.5920 O.2   338  TYR338     -0.2718
    113  CB       -22.2030   -0.4620    5.9080 C.3   338  TYR338      0.0548
    114  CG       -21.7010   -1.8680    6.1140 C.ar  338  TYR338     -0.0200
    115  CD1      -22.2950   -2.9320    5.4410 C.ar  338  TYR338     -0.0009
    116  CD2      -20.5750   -2.1060    6.8980 C.ar  338  TYR338     -0.0009
    117  CE1      -21.7950   -4.2110    5.6000 C.ar  338  TYR338      0.0417
    118  CE2      -20.0710   -3.3840    7.0720 C.ar  338  TYR338      0.0417
    119  CZ       -20.7180   -4.4280    6.4410 C.ar  338  TYR338      0.1957
    120  OH       -20.1960   -5.6810    6.5830 O.3   338  TYR338     -0.2866
    121  N        -23.1400    1.3160    3.1480 N.am  339  ASP339     -0.1960
    122  CA       -23.6670    2.5830    2.6280 C.3   339  ASP339      0.1840
    123  C        -25.1100    2.4340    2.0760 C.2   339  ASP339      0.2623
    124  O        -25.4150    1.3700    1.5120 O.2   339  ASP339     -0.2715
    125  CB       -22.8120    2.9870    1.4340 C.3   339  ASP339      0.1450
    126  CG       -23.0360    4.4430    1.0610 C.2   339  ASP339      0.3671
    127  OD1      -22.3970    5.3580    1.6610 O.co2 339  ASP339     -0.2456
    128  OD2      -23.8890    4.6220    0.1560 O.co2 339  ASP339     -0.2456
    129  N        -25.9610    3.4540    2.1980 N.am  340  THR340     -0.1937
    130  CA       -27.3490    3.3360    1.7570 C.3   340  THR340      0.2028
    131  C        -27.5540    3.6770    0.2910 C.2   340  THR340      0.2642
    132  O        -28.6920    3.6580   -0.1690 O.2   340  THR340     -0.2714
    133  CB       -28.2170    4.3040    2.5420 C.3   340  THR340      0.1808
    134  OG1      -27.6070    5.5970    2.5990 O.3   340  THR340     -0.2208
    135  CG2      -28.3400    3.7800    3.9430 C.3   340  THR340      0.0379
    136  N        -26.5000    4.0320   -0.4370 N.am  341  THR341     -0.1950
    137  CA       -26.6300    4.4860   -1.8220 C.3   341  THR341      0.1897
    138  C        -26.5550    3.3070   -2.8000 C.2   341  THR341      0.2313
    139  O        -25.5020    2.6950   -2.9730 O.2   341  THR341     -0.2863
    140  CB       -25.5460    5.5560   -2.2150 C.3   341  THR341      0.1794
    141  OG1      -25.3310    6.5090   -1.1640 O.3   341  THR341     -0.2208
    142  CG2      -25.8780    6.3280   -3.5110 C.3   341  THR341      0.0378
    143  N        -23.5900    2.9170   -5.1700 N.3   344  LYS344     -0.1245
    144  CA       -22.2460    2.6630   -4.6240 C.3   344  LYS344      0.1561
    145  C        -22.1880    1.2220   -4.0790 C.2   344  LYS344      0.2260
    146  O        -21.0890    0.7210   -3.8430 O.2   344  LYS344     -0.2867
    147  CB       -21.9920    3.5860   -3.4080 C.3   344  LYS344      0.0271
    148  CG       -21.9620    5.0860   -3.7690 C.3   344  LYS344      0.0035
    149  CD       -21.6330    5.9020   -2.4930 C.3   344  LYS344      0.0206
    150  CE       -21.6220    7.3960   -2.8200 C.3   344  LYS344      0.1093
    151  NZ       -21.2630    8.2420   -1.6280 N.3   344  LYS344     -0.1314
    152  N        -26.2550   -0.8740    3.7390 N.3   359  ALA359     -0.1245
    153  CA       -26.2030   -0.6300    5.1660 C.3   359  ALA359      0.1562
    154  C        -27.0690   -1.6720    5.8440 C.2   359  ALA359      0.2260
    155  O        -26.8560   -1.9750    7.0180 O.2   359  ALA359     -0.2867
    156  CB       -26.7420    0.7480    5.4550 C.3   359  ALA359      0.0290
    157  N        -18.7330    8.6060    7.5530 N.3   374  ALA374     -0.1245
    158  CA       -19.8020    9.6010    7.5120 C.3   374  ALA374      0.1562
    159  C        -19.9260   10.2770    8.8810 C.2   374  ALA374      0.2260
    160  O        -21.0400   10.3210    9.4450 O.2   374  ALA374     -0.2867
    161  CB       -21.0910    8.9500    7.0160 C.3   374  ALA374      0.0290
    162  N        -19.8880   13.3600    9.7460 N.3   376  ASN376     -0.1225
    163  CA       -20.7900   14.5250    9.7280 C.3   376  ASN376      0.1785
    164  C        -22.2610   14.1340    9.9140 C.2   376  ASN376      0.2597
    165  O        -23.0870   15.0370   10.1090 O.2   376  ASN376     -0.2718
    166  CB       -20.5830   15.2870    8.4090 C.3   376  ASN376      0.1169
    167  CG       -20.6170   14.4000    7.1850 C.2   376  ASN376      0.2627
    168  OD1      -19.8270   13.4520    7.0070 O.2   376  ASN376     -0.2716
    169  ND2      -21.5490   14.7440    6.2960 N.am  376  ASN376     -0.0877
    170  N        -22.5760   12.8420    9.8000 N.am  377  HIS377     -0.1975
    171  CA       -23.9330   12.2920    9.9480 C.3   377  HIS377      0.1656
    172  C        -24.0130   11.4060   11.1820 C.2   377  HIS377      0.2291
    173  O        -24.8860   10.5410   11.2990 O.2   377  HIS377     -0.2864
    174  CB       -24.3020   11.4180    8.7670 C.3   377  HIS377      0.0771
    175  CG       -24.4130   12.1580    7.4640 C.ar  377  HIS377      0.0820
    176  ND1      -25.3850   13.1100    7.2440 N.ar  377  HIS377     -0.2267
    177  CD2      -23.6710   12.1020    6.3320 C.ar  377  HIS377      0.1154
    178  CE1      -25.2770   13.5810    6.0140 C.ar  377  HIS377      0.1986
    179  NE2      -24.2370   12.9930    5.4540 N.ar  377  HIS377     -0.2212
    180  N        -27.4370   11.0730   12.9990 N.3   380  GLU380     -0.1231
    181  CA       -28.4950   10.4070   12.2470 C.3   380  GLU380      0.1699
    182  C        -28.1820    8.9170   12.1040 C.2   380  GLU380      0.2592
    183  O        -29.0740    8.0630   12.1960 O.2   380  GLU380     -0.2718
    184  CB       -28.5830   11.0820   10.8770 C.3   380  GLU380      0.0402
    185  CG       -29.5060   10.3880    9.9000 C.3   380  GLU380      0.1161
    186  CD       -29.7300   11.1650    8.6060 C.2   380  GLU380      0.3649
    187  OE1      -30.3130   10.5550    7.6910 O.co2 380  GLU380     -0.2457
    188  OE2      -29.3330   12.3450    8.4760 O.co2 380  GLU380     -0.2457
    189  N        -26.9040    8.6080   11.8870 N.am  381  ILE381     -0.1980
    190  CA       -26.5030    7.2240   11.6560 C.3   381  ILE381      0.1595
    191  C        -26.6230    6.4650   12.9760 C.2   381  ILE381      0.2287
    192  O        -27.2060    5.3710   13.0000 O.2   381  ILE381     -0.2864
    193  CB       -25.0870    7.0970   11.0620 C.3   381  ILE381      0.0276
    194  CG1      -25.1960    7.4070    9.5700 C.3   381  ILE381      0.0022
    195  CG2      -24.6490    5.6330   11.1750 C.3   381  ILE381      0.0022
    196  CD1      -23.8030    7.6420    8.9380 C.3   381  ILE381      0.0001
    197  N        -29.9410    5.2430   14.1020 N.3   384  LYS384     -0.1245
    198  CA       -30.4500    4.0890   13.3620 C.3   384  LYS384      0.1561
    199  C        -29.6920    2.8120   13.7030 C.2   384  LYS384      0.2260
    200  O        -30.1040    1.7080   13.3250 O.2   384  LYS384     -0.2867
    201  CB       -30.3120    4.3160   11.8570 C.3   384  LYS384      0.0271
    202  CG       -31.2400    5.4120   11.3700 C.3   384  LYS384      0.0035
    203  CD       -31.3200    5.3630    9.8660 C.3   384  LYS384      0.0206
    204  CE       -30.1670    6.1230    9.2590 C.3   384  LYS384      0.1093
    205  NZ       -30.3540    5.9830    7.7820 N.3   384  LYS384     -0.1314
@<TRIPOS>BOND
     1     4     3    2
     2     3     2    1
     3    30    29   ar
     4    30    28   ar
     5    29    27   ar
     6     5     2    1
     7     5     6    1
     8     2     1    1
     9    28    26   ar
    10     9    10    1
    11    27    26   ar
    12    12    11    2
    13     6     8   ar
    14     6     7   ar
    15    26    25    1
    16   143   144    1
    17    11    10    1
    18    11    21   am
    19   144   145    1
    20   144   147    1
    21    10    13    1
    22    13    14    1
    23   145   146    2
    24    52    53    1
    25    25    22    1
    26    21    22    1
    27   148   147    1
    28   148   149    1
    29    22    23    1
    30    43    44    2
    31    43    42    1
    32   142   140    1
    33    54    53    1
    34    54    55    2
    35    53    56    1
    36   139   138    2
    37    14    16   ar
    38    14    15   ar
    39   150   149    1
    40   150   151    1
    41   138   137    1
    42    16    18   ar
    43    47    49   ar
    44    47    46   ar
    45    23    24    2
    46    42    45    1
    47    42    41    1
    48    49    51   ar
    49   140   137    1
    50   140   141    1
    51    45    46    1
    52    99    96    1
    53    15    17   ar
    54   137   136    1
    55    59    57   ar
    56    59    61   ar
    57    56    57    1
    58    46    48   ar
    59    18    19   ar
    60    96    97    1
    61    96    95    1
    62    57    58   ar
    63    51    50   ar
    64    98    97    2
    65    61    60   ar
    66    17    19   ar
    67    97   100   am
    68   136   131   am
    69    95    90   am
    70    19    20    1
    71    48    50   ar
    72   132   131    2
    73   128   126   ar
    74    58    60   ar
    75   131   130    1
    76    91    90    2
    77    90    89    1
    78    31    32    1
    79   100   101    1
    80   126   125    1
    81   126   127   ar
    82    32    33    1
    83   125   122    1
    84   124   123    2
    85    89    88    1
    86    89    92    1
    87   101   102    1
    88   101   104    1
    89   130   129    1
    90   130   133    1
    91   123   129   am
    92   123   122    1
    93   102   103    2
    94   133   134    1
    95   133   135    1
    96   122   121    1
    97    92    93    1
    98    92    94    1
    99    33    35   am
   100    33    34    2
   101   105   104    1
   102   105   106    1
   103    71    70   ar
   104    71    69   ar
   105   121   111   am
   106    35    36    1
   107    70    68   ar
   108   152   153    1
   109    69    67   ar
   110    86    87    2
   111    86    85    1
   112    68    67   ar
   113   111   110    1
   114   111   112    2
   115   106   107    1
   116    67    66    1
   117   108   107    1
   118    38    37    2
   119   110   109    1
   120   110   113    1
   121    36    39    1
   122    36    37    1
   123    39    40    1
   124    85    84    1
   125   153   156    1
   126   153   154    1
   127    66    63    1
   128   115   117   ar
   129   115   114   ar
   130   179   178   ar
   131   179   177   ar
   132   117   119   ar
   133    84    74   am
   134   154   155    2
   135   113   114    1
   136   178   176   ar
   137   114   116   ar
   138   169   167   am
   139   177   175   ar
   140   119   120    1
   141   119   118   ar
   142    65    64    2
   143    63    64    1
   144    63    62    1
   145   116   118   ar
   146    74    75    2
   147    74    73    1
   148   168   167    2
   149   161   158    1
   150   167   166    1
   151   176   175   ar
   152   175   174    1
   153   158   157    1
   154   158   159    1
   155   187   186   ar
   156    73    72    1
   157    73    76    1
   158   205   204    1
   159    80    78   ar
   160    80    82   ar
   161    78    77   ar
   162   166   163    1
   163   188   186   ar
   164   186   185    1
   165    83    82    1
   166   174   171    1
   167    82    81   ar
   168   159   160    2
   169   196   194    1
   170    77    76    1
   171    77    79   ar
   172   204   203    1
   173    81    79   ar
   174   194   193    1
   175   163   162    1
   176   163   164    1
   177   170   164   am
   178   170   171    1
   179   203   202    1
   180   185   184    1
   181   164   165    2
   182   171   172    1
   183   184   181    1
   184   193   195    1
   185   193   190    1
   186   172   173    2
   187   202   201    1
   188   190   189    1
   189   190   191    1
   190   201   198    1
   191   189   182   am
   192   182   183    2
   193   182   181    1
   194   181   180    1
   195   191   192    2
   196   200   199    2
   197   198   199    1
   198   198   197    1
