@<TRIPOS>MOLECULE
tmp/4e35B01.pdb
 148 141 0 0 0
SMALL
GASTEIGER

@<TRIPOS>ATOM
      1  N         20.6460   24.9970   -1.0120 N.3    15  GLY15      -0.1210
      2  CA        21.5370   24.7020    0.0950 C.3    15  GLY15       0.1956
      3  C         21.5220   25.8570    1.0850 C.2    15  GLY15       0.2612
      4  O         20.7460   26.7990    0.9330 O.2    15  GLY15      -0.2717
      5  N         22.3840   25.7950    2.0930 N.am   16  LEU16      -0.1965
      6  CA        22.4610   26.8480    3.1040 C.3    16  LEU16       0.1728
      7  C         23.2050   28.0830    2.6050 C.2    16  LEU16       0.2617
      8  O         22.8940   29.2070    3.0080 O.2    16  LEU16      -0.2715
      9  CB        23.1290   26.3200    4.3780 C.3    16  LEU16       0.0311
     10  CG        22.3830   25.2440    5.1770 C.3    16  LEU16       0.0022
     11  CD1       23.2280   24.6770    6.3130 C.3    16  LEU16       0.0001
     12  CD2       21.0610   25.7880    5.7190 C.3    16  LEU16       0.0001
     13  N         24.1870   27.8720    1.7330 N.am   17  GLY17      -0.1940
     14  CA        25.0130   28.9540    1.2260 C.3    17  GLY17       0.2014
     15  C         26.1340   29.3470    2.1780 C.2    17  GLY17       0.2639
     16  O         26.4580   30.5270    2.3210 O.2    17  GLY17      -0.2714
     17  N         26.7340   28.3620    2.8330 N.am   18  ILE18      -0.1963
     18  CA        27.8520   28.6210    3.7350 C.3    18  ILE18       0.1727
     19  C         28.9800   27.6250    3.5150 C.2    18  ILE18       0.2617
     20  O         28.7420   26.4800    3.1200 O.2    18  ILE18      -0.2715
     21  CB        27.4340   28.5650    5.2200 C.3    18  ILE18       0.0290
     22  CG1       27.0120   27.1490    5.6140 C.3    18  ILE18       0.0022
     23  CG2       26.3180   29.5640    5.5010 C.3    18  ILE18       0.0023
     24  CD1       26.5950   27.0260    7.0710 C.3    18  ILE18       0.0001
     25  N         30.2080   28.0800    3.7340 N.am   19  SER19      -0.1936
     26  CA        31.3380   27.1750    3.8640 C.3    19  SER19       0.2055
     27  C         31.6720   27.0900    5.3390 C.2    19  SER19       0.2643
     28  O         31.6370   28.0960    6.0550 O.2    19  SER19      -0.2714
     29  CB        32.5490   27.7130    3.1190 C.3    19  SER19       0.2130
     30  OG        32.3260   27.7290    1.7250 O.3    19  SER19      -0.2179
     31  N         31.9730   25.8910    5.8150 N.am   20  ILE20      -0.1963
     32  CA        32.4010   25.7600    7.2020 C.3    20  ILE20       0.1727
     33  C         33.7200   25.0200    7.3610 C.2    20  ILE20       0.2617
     34  O         34.1210   24.2130    6.5170 O.2    20  ILE20      -0.2715
     35  CB        31.3350   25.1460    8.1520 C.3    20  ILE20       0.0290
     36  CG1       31.0230   23.7080    7.7700 C.3    20  ILE20       0.0022
     37  CG2       30.0590   25.9980    8.2150 C.3    20  ILE20       0.0023
     38  CD1       30.1770   23.0070    8.8090 C.3    20  ILE20       0.0001
     39  N         34.3940   25.3280    8.4570 N.am   21  THR21      -0.1937
     40  CA        35.6560   24.6960    8.7790 C.3    21  THR21       0.2028
     41  C         35.6960   24.4750   10.2880 C.2    21  THR21       0.2642
     42  O         34.7310   24.7930   10.9930 O.2    21  THR21      -0.2714
     43  CB        36.8350   25.5570    8.2630 C.3    21  THR21       0.1808
     44  OG1       38.0480   24.7910    8.2910 O.3    21  THR21      -0.2208
     45  CG2       36.9840   26.8370    9.0660 C.3    21  THR21       0.0379
     46  N         36.7820   23.9010   10.7860 N.am   22  GLY22      -0.1954
     47  CA        36.9040   23.6690   12.2130 C.3    22  GLY22       0.1869
     48  C         36.1750   22.4260   12.6840 C.2    22  GLY22       0.2309
     49  O         35.8260   21.5530   11.8830 O.2    22  GLY22      -0.2863
     50  N         37.9020   17.8830   16.2160 N.3    25  GLU25      -0.1231
     51  CA        39.1990   17.2640   15.9680 C.3    25  GLU25       0.1699
     52  C         40.3270   18.2840   15.8050 C.2    25  GLU25       0.2592
     53  O         41.5050   17.9280   15.8110 O.2    25  GLU25      -0.2718
     54  CB        39.1370   16.3430   14.7500 C.3    25  GLU25       0.0402
     55  CG        38.9270   17.0530   13.4340 C.3    25  GLU25       0.1161
     56  CD        37.4770   17.0450   12.9960 C.2    25  GLU25       0.3649
     57  OE1       36.6090   17.5490   13.7400 O.co2  25  GLU25      -0.2457
     58  OE2       37.2040   16.5330   11.8940 O.co2  25  GLU25      -0.2457
     59  N         39.9640   19.5530   15.6680 N.am   26  HIS26      -0.1976
     60  CA        40.9640   20.6110   15.5980 C.3    26  HIS26       0.1656
     61  C         40.9280   21.5280   16.8100 C.2    26  HIS26       0.2291
     62  O         41.6150   22.5480   16.8440 O.2    26  HIS26      -0.2864
     63  CB        40.8220   21.4010   14.2980 C.3    26  HIS26       0.0771
     64  CG        40.9780   20.5550   13.0730 C.ar   26  HIS26       0.0820
     65  ND1       42.1750   19.9700   12.7220 N.ar   26  HIS26      -0.2267
     66  CD2       40.0810   20.1700   12.1350 C.ar   26  HIS26       0.1154
     67  CE1       42.0140   19.2710   11.6130 C.ar   26  HIS26       0.1986
     68  NE2       40.7520   19.3770   11.2350 N.ar   26  HIS26      -0.2212
     69  N         38.6260   23.4860   17.9090 N.3    28  VAL28      -0.1245
     70  CA        37.9650   24.7680   17.6820 C.3    28  VAL28       0.1561
     71  C         36.5080   24.5430   17.3220 C.2    28  VAL28       0.2260
     72  O         36.1130   23.4330   16.9810 O.2    28  VAL28      -0.2867
     73  CB        38.6500   25.5710   16.5540 C.3    28  VAL28       0.0252
     74  CG1       40.0920   25.9020   16.9320 C.3    28  VAL28       0.0019
     75  CG2       38.6000   24.8060   15.2350 C.3    28  VAL28       0.0019
     76  N         33.0730   26.6470   12.4130 N.3    31  LEU31      -0.1245
     77  CA        33.2290   28.0510   12.0490 C.3    31  LEU31       0.1561
     78  C         32.7430   28.3240   10.6440 C.2    31  LEU31       0.2260
     79  O         33.0130   27.5520    9.7330 O.2    31  LEU31      -0.2867
     80  CB        34.6980   28.4670   12.1550 C.3    31  LEU31       0.0270
     81  CG        35.2590   28.4700   13.5750 C.3    31  LEU31       0.0019
     82  CD1       36.7780   28.3520   13.5560 C.3    31  LEU31       0.0001
     83  CD2       34.8140   29.7350   14.2950 C.3    31  LEU31       0.0001
     84  N         33.3330   29.9600    7.3290 N.3    33  SER33      -0.1202
     85  CA        34.4850   30.5320    6.6310 C.3    33  SER33       0.2020
     86  C         34.1080   31.3160    5.3750 C.2    33  SER33       0.2618
     87  O         34.9110   32.1010    4.8730 O.2    33  SER33      -0.2717
     88  CB        35.4920   29.4430    6.2740 C.3    33  SER33       0.2103
     89  OG        34.8650   28.4350    5.5110 O.3    33  SER33      -0.2182
     90  N         32.9010   31.0980    4.8650 N.am   34  GLU34      -0.1979
     91  CA        32.4090   31.8430    3.7040 C.3    34  GLU34       0.1602
     92  C         30.8960   31.9620    3.7440 C.2    34  GLU34       0.2287
     93  O         30.2020   31.0290    4.1670 O.2    34  GLU34      -0.2864
     94  CB        32.7690   31.1460    2.3910 C.3    34  GLU34       0.0415
     95  CG        34.2110   30.7280    2.2100 C.3    34  GLU34       0.1163
     96  CD        34.4630   30.2080    0.8010 C.2    34  GLU34       0.3649
     97  OE1       34.6980   28.9880    0.6340 O.co2  34  GLU34      -0.2457
     98  OE2       34.4060   31.0290   -0.1380 O.co2  34  GLU34      -0.2457
     99  N         28.0290   32.6660    0.9350 N.3    36  HIS36      -0.1241
    100  CA        27.8630   32.7290   -0.5180 C.3    36  HIS36       0.1621
    101  C         26.7460   33.6760   -0.9810 C.2    36  HIS36       0.2264
    102  O         25.6030   33.5680   -0.5470 O.2    36  HIS36      -0.2867
    103  CB        27.6910   31.3160   -1.0740 C.3    36  HIS36       0.0745
    104  CG        28.7960   30.3940   -0.6640 C.ar   36  HIS36       0.0817
    105  ND1       29.9930   30.3250   -1.3440 N.ar   36  HIS36      -0.2268
    106  CD2       28.9090   29.5470    0.3840 C.ar   36  HIS36       0.1154
    107  CE1       30.7840   29.4510   -0.7480 C.ar   36  HIS36       0.1986
    108  NE2       30.1510   28.9670    0.3050 N.ar   36  HIS36      -0.2212
    109  N         22.5180   33.3720   -1.6020 N.3    39  GLN39      -0.1245
    110  CA        21.9700   32.1370   -1.0590 C.3    39  GLN39       0.1566
    111  C         21.3930   32.3940    0.3300 C.2    39  GLN39       0.2260
    112  O         21.5320   33.4970    0.8510 O.2    39  GLN39      -0.2867
    113  CB        23.0290   31.0370   -1.0870 C.3    39  GLN39       0.0367
    114  CG        23.4800   30.7080   -2.5060 C.3    39  GLN39       0.0905
    115  CD        24.2830   29.4260   -2.5970 C.2    39  GLN39       0.2608
    116  OE1       23.9310   28.4100   -1.9930 O.2    39  GLN39      -0.2717
    117  NE2       25.3750   29.4670   -3.3530 N.am   39  GLN39      -0.0878
    118  N         33.9300   17.7990   12.6580 N.3    66  HIS66      -0.1241
    119  CA        33.5360   18.4360   11.4050 C.3    66  HIS66       0.1621
    120  C         32.4720   17.6750   10.6060 C.2    66  HIS66       0.2264
    121  O         31.4230   18.2350   10.2650 O.2    66  HIS66      -0.2867
    122  CB        34.7820   18.6410   10.5350 C.3    66  HIS66       0.0745
    123  CG        34.5310   19.4160    9.2830 C.ar   66  HIS66       0.0817
    124  ND1       34.7340   20.7750    9.1990 N.ar   66  HIS66      -0.2268
    125  CD2       34.0890   19.0250    8.0660 C.ar   66  HIS66       0.1154
    126  CE1       34.4400   21.1870    7.9790 C.ar   66  HIS66       0.1986
    127  NE2       34.0510   20.1430    7.2690 N.ar   66  HIS66      -0.2212
    128  N         28.5720   18.7610    9.8150 N.3    70  VAL70      -0.1245
    129  CA        28.1360   19.0470    8.4550 C.3    70  VAL70       0.1561
    130  C         26.9180   18.1960    8.0740 C.2    70  VAL70       0.2260
    131  O         25.9530   18.6910    7.4870 O.2    70  VAL70      -0.2867
    132  CB        29.2910   18.8690    7.4580 C.3    70  VAL70       0.0252
    133  CG1       28.7840   18.9150    6.0110 C.3    70  VAL70       0.0019
    134  CG2       30.3300   19.9430    7.6800 C.3    70  VAL70       0.0019
    135  N         23.8570   19.6280    9.8530 N.3    73  LEU73      -0.1231
    136  CA        23.4680   20.8770    9.2050 C.3    73  LEU73       0.1693
    137  C         22.7610   20.6040    7.8790 C.2    73  LEU73       0.2592
    138  O         21.7630   21.2450    7.5670 O.2    73  LEU73      -0.2718
    139  CB        24.6930   21.7760    8.9830 C.3    73  LEU73       0.0284
    140  CG        25.2210   22.4780   10.2330 C.3    73  LEU73       0.0019
    141  CD1       26.6850   22.8940   10.0740 C.3    73  LEU73       0.0001
    142  CD2       24.3590   23.6920   10.5650 C.3    73  LEU73       0.0001
    143  N         23.2780   19.6400    7.1190 N.am   74  SER74      -0.1952
    144  CA        22.7520   19.3130    5.7930 C.3    74  SER74       0.1924
    145  C         21.3440   18.7180    5.8320 C.2    74  SER74       0.2314
    146  O         20.6310   18.7250    4.8250 O.2    74  SER74      -0.2863
    147  CB        23.6890   18.3300    5.0770 C.3    74  SER74       0.2116
    148  OG        23.4760   16.9920    5.5180 O.3    74  SER74      -0.2180
@<TRIPOS>BOND
     1   117   115   am
     2   115   114    1
     3   115   116    2
     4   114   113    1
     5   109   110    1
     6   105   107   ar
     7   105   104   ar
     8   113   110    1
     9   103   104    1
    10   103   100    1
    11   110   111    1
    12     1     2    1
    13   101   102    2
    14   101   100    1
    15   107   108   ar
    16   104   106   ar
    17   100    99    1
    18    98    96   ar
    19     2     3    1
    20   108   106   ar
    21   111   112    2
    22    97    96   ar
    23    96    95    1
    24     4     3    2
    25     3     5   am
    26    14    13    1
    27    14    15    1
    28    30    29    1
    29    13     7   am
    30     5     6    1
    31    15    16    2
    32    15    17   am
    33    95    94    1
    34    94    91    1
    35     7     8    2
    36     7     6    1
    37    17    18    1
    38     6     9    1
    39    29    26    1
    40    20    19    2
    41    19    25   am
    42    19    18    1
    43    91    92    1
    44    91    90    1
    45    25    26    1
    46    18    21    1
    47    92    93    2
    48    26    27    1
    49     9    10    1
    50   146   145    2
    51    90    86   am
    52    87    86    2
    53   147   148    1
    54   147   144    1
    55    10    12    1
    56    10    11    1
    57    21    23    1
    58    21    22    1
    59    27    31   am
    60    27    28    2
    61    86    85    1
    62    89    88    1
    63    22    24    1
    64   144   145    1
    65   144   143    1
    66    31    32    1
    67   133   132    1
    68    88    85    1
    69    34    33    2
    70    85    84    1
    71   143   137   am
    72    32    33    1
    73    32    35    1
    74   127   126   ar
    75   127   125   ar
    76    33    39   am
    77   132   134    1
    78   132   129    1
    79   131   130    2
    80   138   137    2
    81    36    35    1
    82    36    38    1
    83   137   136    1
    84   126   124   ar
    85   125   123   ar
    86   130   129    1
    87    35    37    1
    88    43    44    1
    89    43    40    1
    90    43    45    1
    91   129   128    1
    92    39    40    1
    93    40    41    1
    94   139   136    1
    95   139   140    1
    96   124   123   ar
    97   136   135    1
    98   123   122    1
    99    79    78    2
   100   141   140    1
   101   140   142    1
   102   121   120    2
   103    41    46   am
   104    41    42    2
   105   122   119    1
   106   120   119    1
   107    78    77    1
   108    46    47    1
   109    68    67   ar
   110    68    66   ar
   111   119   118    1
   112    67    65   ar
   113    49    48    2
   114    58    56   ar
   115    77    80    1
   116    77    76    1
   117    66    64   ar
   118    80    81    1
   119    47    48    1
   120    65    64   ar
   121    56    55    1
   122    56    57   ar
   123    64    63    1
   124    55    54    1
   125    82    81    1
   126    81    83    1
   127    63    60    1
   128    54    51    1
   129    75    73    1
   130    60    59    1
   131    60    61    1
   132    59    52   am
   133    52    53    2
   134    52    51    1
   135    51    50    1
   136    73    74    1
   137    73    70    1
   138    61    62    2
   139    72    71    2
   140    71    70    1
   141    70    69    1
