@<TRIPOS>MOLECULE
tmp/4e3dA02.pdb
 88 87 0 0 0
SMALL
GASTEIGER

@<TRIPOS>ATOM
      1  N         29.2740   -0.2630   10.1350 N.3     2  TRP2       -0.1227
      2  CA        28.6640   -1.2530   11.0210 C.3     2  TRP2        0.1737
      3  C         27.6380   -2.1740   10.3070 C.2     2  TRP2        0.2596
      4  O         26.9960   -1.8260    9.2540 O.2     2  TRP2       -0.2718
      5  CB        28.0210   -0.5340   12.2010 C.3     2  TRP2        0.0564
      6  CG        26.8050    0.2170   11.8480 C.ar    2  TRP2        0.0003
      7  CD1       26.7080    1.5690   11.5190 C.ar    2  TRP2        0.0946
      8  CD2       25.4320   -0.2500   11.9350 C.ar    2  TRP2        0.0152
      9  NE1       25.3900    1.9070   11.2840 N.ar    2  TRP2       -0.2442
     10  CE2       24.5960    0.8180   11.5260 C.ar    2  TRP2        0.0810
     11  CE3       24.8510   -1.4990   12.1870 C.ar    2  TRP2        0.0012
     12  CZ2       23.2000    0.6910   11.4370 C.ar    2  TRP2        0.0191
     13  CZ3       23.4480   -1.6170   12.1030 C.ar    2  TRP2        0.0001
     14  CH2       22.6480   -0.5250   11.7400 C.ar    2  TRP2        0.0015
     15  N         27.4080   -3.3320   10.9010 N.am    3  GLY3       -0.1942
     16  CA        26.3930   -4.2390   10.3540 C.3     3  GLY3        0.2014
     17  C         26.1090   -5.3340   11.3440 C.2     3  GLY3        0.2639
     18  O         26.1260   -5.0930   12.5490 O.2     3  GLY3       -0.2714
     19  N         25.7900   -6.5260   10.8220 N.am    4  TYR4       -0.1959
     20  CA        25.4340   -7.6700   11.6570 C.3     4  TYR4        0.1771
     21  C         26.3020   -8.8840   11.4550 C.2     4  TYR4        0.2620
     22  O         26.0000   -9.9880   11.9670 O.2     4  TYR4       -0.2715
     23  CB        23.9600   -8.0580   11.5090 C.3     4  TYR4        0.0574
     24  CG        23.0050   -6.9420   11.9380 C.ar    4  TYR4       -0.0198
     25  CD1       22.5910   -6.8590   13.2990 C.ar    4  TYR4       -0.0009
     26  CD2       22.5300   -5.9900   11.0530 C.ar    4  TYR4       -0.0009
     27  CE1       21.7750   -5.8480   13.7370 C.ar    4  TYR4        0.0417
     28  CE2       21.7070   -4.9650   11.4600 C.ar    4  TYR4        0.0417
     29  CZ        21.3210   -4.9060   12.8210 C.ar    4  TYR4        0.1957
     30  OH        20.4870   -3.9090   13.1410 O.3     4  TYR4       -0.2866
     31  N         27.3610   -8.6860   10.6900 N.am    5  GLY5       -0.1940
     32  CA        28.3390   -9.7960   10.4480 C.3     5  GLY5        0.2014
     33  C         29.3420  -10.0300   11.5670 C.2     5  GLY5        0.2638
     34  O         29.4350   -9.2810   12.5380 O.2     5  GLY5       -0.2714
     35  N         30.1630  -11.0710   11.3950 N.am    6  LYS6       -0.1977
     36  CA        31.2190  -11.3930   12.3650 C.3     6  LYS6        0.1596
     37  C         32.1680  -10.1920   12.6030 C.2     6  LYS6        0.2287
     38  O         32.5970   -9.9650   13.7380 O.2     6  LYS6       -0.2864
     39  CB        32.0530  -12.5750   11.8170 C.3     6  LYS6        0.0298
     40  CG        33.1900  -13.0290   12.6450 C.3     6  LYS6        0.0038
     41  CD        33.4920  -14.4320   12.1110 C.3     6  LYS6        0.0206
     42  CE        32.1650  -15.0820   11.5810 C.3     6  LYS6        0.1093
     43  NZ        32.3860  -16.2920   10.7280 N.3     6  LYS6       -0.1314
     44  N         31.6900   -6.8620   11.8320 N.3     8  ASN8       -0.1240
     45  CA        31.1690   -5.4960   11.9880 C.3     8  ASN8        0.1653
     46  C         29.8710   -5.5050   12.8220 C.2     8  ASN8        0.2266
     47  O         29.1590   -4.4680   12.9080 O.2     8  ASN8       -0.2867
     48  CB        30.9400   -4.8370   10.5850 C.3     8  ASN8        0.1155
     49  CG        29.8130   -5.5580    9.7580 C.2     8  ASN8        0.2627
     50  OD1       29.1590   -6.5020   10.2230 O.2     8  ASN8       -0.2716
     51  ND2       29.5600   -5.0700    8.5470 N.am    8  ASN8       -0.0877
     52  N         20.3950   -2.1520    6.2130 N.3    61  HIS61      -0.1241
     53  CA        20.2680   -2.6920    7.5760 C.3    61  HIS61       0.1621
     54  C         18.8950   -3.2690    7.7910 C.2    61  HIS61       0.2264
     55  O         18.8030   -4.3800    8.3320 O.2    61  HIS61      -0.2867
     56  CB        20.5910   -1.6400    8.6530 C.3    61  HIS61       0.0745
     57  CG        21.9410   -0.9960    8.4300 C.ar   61  HIS61       0.0817
     58  ND1       22.1030    0.3240    8.0850 N.ar   61  HIS61      -0.2268
     59  CD2       23.1890   -1.5210    8.5380 C.ar   61  HIS61       0.1154
     60  CE1       23.4060    0.5900    7.9650 C.ar   61  HIS61       0.1986
     61  NE2       24.0770   -0.5140    8.2340 N.ar   61  HIS61      -0.2212
     62  N         21.5070   -7.0740    2.1680 N.3   227  PHE227     -0.1241
     63  CA        22.2850   -5.9650    2.8220 C.3   227  PHE227      0.1605
     64  C         23.1530   -5.2180    1.8050 C.2   227  PHE227      0.2264
     65  O         23.4330   -4.0320    2.0150 O.2   227  PHE227     -0.2867
     66  CB        23.2460   -6.5080    3.8480 C.3   227  PHE227      0.0534
     67  CG        22.6380   -7.0870    5.1050 C.ar  227  PHE227     -0.0203
     68  CD1       21.9220   -6.2930    5.9480 C.ar  227  PHE227     -0.0042
     69  CD2       22.9260   -8.4190    5.5250 C.ar  227  PHE227     -0.0042
     70  CE1       21.4360   -6.7740    7.1720 C.ar  227  PHE227     -0.0003
     71  CE2       22.4510   -8.9150    6.7880 C.ar  227  PHE227     -0.0003
     72  CZ        21.6760   -8.0830    7.5810 C.ar  227  PHE227     -0.0000
     73  N         24.4760  -10.7350   -0.0780 N.3   235  GLU235     -0.1245
     74  CA        24.5170  -11.0780    1.3490 C.3   235  GLU235      0.1567
     75  C         23.1140  -10.9070    1.8330 C.2   235  GLU235      0.2260
     76  O         22.6020   -9.7350    1.9170 O.2   235  GLU235     -0.2867
     77  CB        25.4920  -10.1600    2.0660 C.3   235  GLU235      0.0388
     78  CG        25.6870  -10.5310    3.5350 C.3   235  GLU235      0.1160
     79  CD        26.4010  -11.8950    3.7440 C.2   235  GLU235      0.3649
     80  OE1       27.6030  -12.0190    3.4210 O.co2 235  GLU235     -0.2457
     81  OE2       25.6950  -12.8630    4.1500 O.co2 235  GLU235     -0.2457
     82  N         19.3030  -10.9870    6.6070 N.3   238  VAL238     -0.1245
     83  CA        18.7240  -11.8360    7.6810 C.3   238  VAL238      0.1561
     84  C         19.5540  -11.5880    8.9800 C.2   238  VAL238      0.2260
     85  O         20.7160  -11.1920    8.9480 O.2   238  VAL238     -0.2867
     86  CB        18.8030  -13.3530    7.3250 C.3   238  VAL238      0.0252
     87  CG1       17.8640  -13.6040    6.0310 C.3   238  VAL238      0.0019
     88  CG2       20.2570  -13.7990    7.1200 C.3   238  VAL238      0.0019
@<TRIPOS>BOND
     1    73    74    1
     2    74    75    1
     3    74    77    1
     4    64    65    2
     5    64    63    1
     6    75    76    2
     7    77    78    1
     8    62    63    1
     9    63    66    1
    10    80    79   ar
    11    78    79    1
    12    79    81   ar
    13    66    67    1
    14    67    69   ar
    15    67    68   ar
    16    69    71   ar
    17    68    70   ar
    18    87    86    1
    19    52    53    1
    20    82    83    1
    21    71    72   ar
    22    88    86    1
    23    70    72   ar
    24    86    83    1
    25    53    54    1
    26    53    56    1
    27    83    84    1
    28    54    55    2
    29    60    58   ar
    30    60    61   ar
    31    58    57   ar
    32    61    59   ar
    33    57    59   ar
    34    57    56    1
    35    51    49   am
    36    85    84    2
    37     4     3    2
    38    49    50    2
    39    49    48    1
    40     1     2    1
    41     3    15   am
    42     3     2    1
    43    16    15    1
    44    16    17    1
    45    32    31    1
    46    32    33    1
    47    48    45    1
    48    31    21   am
    49    43    42    1
    50    19    17   am
    51    19    20    1
    52     2     5    1
    53    26    28   ar
    54    26    24   ar
    55     9     7   ar
    56     9    10   ar
    57    17    18    2
    58    35    33   am
    59    35    36    1
    60    12    10   ar
    61    12    14   ar
    62    21    20    1
    63    21    22    2
    64    28    29   ar
    65    23    20    1
    66    23    24    1
    67     7     6   ar
    68    10     8   ar
    69    33    34    2
    70    42    41    1
    71    14    13   ar
    72    39    36    1
    73    39    40    1
    74    44    45    1
    75     6     8   ar
    76     6     5    1
    77     8    11   ar
    78    24    25   ar
    79    45    46    1
    80    13    11   ar
    81    41    40    1
    82    36    37    1
    83    37    38    2
    84    29    30    1
    85    29    27   ar
    86    46    47    2
    87    25    27   ar
