@<TRIPOS>MOLECULE
tmp/4e3fA02.pdb
 96 95 0 0 0
SMALL
GASTEIGER

@<TRIPOS>ATOM
      1  N         29.2220   -0.4960    9.8560 N.3     2  TRP2       -0.1227
      2  CA        28.7750   -1.4890   10.8420 C.3     2  TRP2        0.1737
      3  C         27.6590   -2.3430   10.1880 C.2     2  TRP2        0.2596
      4  O         26.9510   -1.9030    9.2550 O.2     2  TRP2       -0.2718
      5  CB        28.2520   -0.8860   12.2090 C.3     2  TRP2        0.0564
      6  CG        27.0200   -0.0050   11.9860 C.ar    2  TRP2        0.0003
      7  CD1       27.0250    1.3930   11.7670 C.ar    2  TRP2        0.0946
      8  CD2       25.6280   -0.3890   11.9250 C.ar    2  TRP2        0.0152
      9  NE1       25.7740    1.8160   11.5290 N.ar    2  TRP2       -0.2442
     10  CE2       24.8850    0.7760   11.6260 C.ar    2  TRP2        0.0810
     11  CE3       24.9500   -1.6080   12.0980 C.ar    2  TRP2        0.0012
     12  CZ2       23.4770    0.7400   11.5280 C.ar    2  TRP2        0.0191
     13  CZ3       23.5630   -1.6450   11.9300 C.ar    2  TRP2        0.0001
     14  CH2       22.8760   -0.4520   11.6570 C.ar    2  TRP2        0.0015
     15  N         27.4170   -3.4810   10.7990 N.am    3  GLY3       -0.1942
     16  CA        26.3530   -4.4060   10.3000 C.3     3  GLY3        0.2014
     17  C         26.0700   -5.5170   11.3160 C.2     3  GLY3        0.2639
     18  O         26.0840   -5.2650   12.5100 O.2     3  GLY3       -0.2714
     19  N         25.7940   -6.6950   10.7910 N.am    4  TYR4       -0.1959
     20  CA        25.4640   -7.8690   11.6220 C.3     4  TYR4        0.1771
     21  C         26.3680   -9.0590   11.3660 C.2     4  TYR4        0.2620
     22  O         26.0840  -10.1580   11.7770 O.2     4  TYR4       -0.2715
     23  CB        23.9640   -8.2550   11.4010 C.3     4  TYR4        0.0574
     24  CG        23.0220   -7.1370   11.9110 C.ar    4  TYR4       -0.0198
     25  CD1       22.6670   -7.0820   13.2600 C.ar    4  TYR4       -0.0009
     26  CD2       22.5180   -6.1610   11.0520 C.ar    4  TYR4       -0.0009
     27  CE1       21.7980   -6.0690   13.7470 C.ar    4  TYR4        0.0417
     28  CE2       21.7200   -5.1530   11.4960 C.ar    4  TYR4        0.0417
     29  CZ        21.3090   -5.1210   12.8630 C.ar    4  TYR4        0.1957
     30  OH        20.5090   -4.1510   13.1600 O.3     4  TYR4       -0.2866
     31  N         27.4370   -8.8450   10.6070 N.am    5  GLY5       -0.1940
     32  CA        28.3770   -9.9430   10.3280 C.3     5  GLY5        0.2014
     33  C         29.3230  -10.2130   11.4870 C.2     5  GLY5        0.2638
     34  O         29.3750   -9.4490   12.4430 O.2     5  GLY5       -0.2714
     35  N         30.1540  -11.2510   11.3590 N.am    6  LYS6       -0.1977
     36  CA        31.1720  -11.5560   12.3770 C.3     6  LYS6        0.1596
     37  C         32.1160  -10.3830   12.5840 C.2     6  LYS6        0.2287
     38  O         32.5870  -10.1560   13.7040 O.2     6  LYS6       -0.2864
     39  CB        31.9820  -12.8000   11.9210 C.3     6  LYS6        0.0298
     40  CG        33.1850  -13.1360   12.7750 C.3     6  LYS6        0.0038
     41  CD        33.8080  -14.4670   12.2510 C.3     6  LYS6        0.0206
     42  CE        33.3450  -15.7100   13.0420 C.3     6  LYS6        0.1093
     43  NZ        33.6680  -17.0040   12.3010 N.3     6  LYS6       -0.1314
     44  N         31.6350   -7.0500   11.7020 N.3     8  ASN8       -0.1240
     45  CA        31.2130   -5.6760   11.8820 C.3     8  ASN8        0.1653
     46  C         29.8950   -5.6420   12.7570 C.2     8  ASN8        0.2266
     47  O         29.1700   -4.6100   12.8190 O.2     8  ASN8       -0.2867
     48  CB        30.9710   -4.9870   10.5340 C.3     8  ASN8        0.1155
     49  CG        29.8270   -5.6450    9.7250 C.2     8  ASN8        0.2627
     50  OD1       29.2180   -6.6620   10.1420 O.2     8  ASN8       -0.2716
     51  ND2       29.4510   -5.0010    8.5890 N.am    8  ASN8       -0.0877
     52  N         20.3490   -2.4300    6.2450 N.3    61  HIS61      -0.1241
     53  CA        20.2830   -3.0240    7.6200 C.3    61  HIS61       0.1621
     54  C         18.9260   -3.6380    7.8190 C.2    61  HIS61       0.2264
     55  O         18.8180   -4.7460    8.3650 O.2    61  HIS61      -0.2867
     56  CB        20.5280   -1.9600    8.7020 C.3    61  HIS61       0.0745
     57  CG        21.8530   -1.2890    8.5160 C.ar   61  HIS61       0.0817
     58  ND1       22.0270    0.0650    8.3090 N.ar   61  HIS61      -0.2268
     59  CD2       23.0990   -1.8290    8.5930 C.ar   61  HIS61       0.1154
     60  CE1       23.3310    0.3140    8.1820 C.ar   61  HIS61       0.1986
     61  NE2       24.0040   -0.8110    8.3920 N.ar   61  HIS61      -0.2212
     62  N         21.4840   -7.3470    2.1680 N.3   227  PHE227     -0.1241
     63  CA        22.2620   -6.2440    2.8280 C.3   227  PHE227      0.1605
     64  C         23.0970   -5.4650    1.8170 C.2   227  PHE227      0.2264
     65  O         23.3600   -4.2770    2.0230 O.2   227  PHE227     -0.2867
     66  CB        23.2550   -6.8280    3.8420 C.3   227  PHE227      0.0534
     67  CG        22.6480   -7.3870    5.0830 C.ar  227  PHE227     -0.0203
     68  CD1       21.8890   -6.6040    5.9630 C.ar  227  PHE227     -0.0042
     69  CD2       22.9730   -8.6900    5.4830 C.ar  227  PHE227     -0.0042
     70  CE1       21.3990   -7.0950    7.1710 C.ar  227  PHE227     -0.0003
     71  CE2       22.4970   -9.2150    6.7150 C.ar  227  PHE227     -0.0003
     72  CZ        21.6930   -8.4560    7.5700 C.ar  227  PHE227     -0.0000
     73  N         24.4990  -10.9970   -0.0530 N.3   235  GLU235     -0.1231
     74  CA        24.5630  -11.3480    1.3510 C.3   235  GLU235      0.1699
     75  C         23.1580  -11.1690    1.8630 C.2   235  GLU235      0.2592
     76  O         22.6550  -10.0030    1.9640 O.2   235  GLU235     -0.2718
     77  CB        25.5530  -10.4230    2.0830 C.3   235  GLU235      0.0402
     78  CG        25.8260  -10.8320    3.5790 C.3   235  GLU235      0.1161
     79  CD        26.4850  -12.2030    3.7210 C.2   235  GLU235      0.3649
     80  OE1       27.6980  -12.2850    3.3620 O.co2 235  GLU235     -0.2457
     81  OE2       25.7920  -13.1600    4.1660 O.co2 235  GLU235     -0.2457
     82  N         22.4300  -12.2590    2.0760 N.am  236  LEU236     -0.1980
     83  CA        20.9980  -12.1410    2.3670 C.3   236  LEU236      0.1596
     84  C         20.7830  -11.3350    3.6780 C.2   236  LEU236      0.2287
     85  O         21.5500  -11.4790    4.6640 O.2   236  LEU236     -0.2864
     86  CB        20.4070  -13.5790    2.5560 C.3   236  LEU236      0.0297
     87  CG        20.3630  -14.3990    1.2790 C.3   236  LEU236      0.0022
     88  CD1       19.9260  -15.8020    1.6550 C.3   236  LEU236      0.0001
     89  CD2       19.3950  -13.7510    0.2640 C.3   236  LEU236      0.0001
     90  N         19.3430  -11.2370    6.6580 N.3   238  VAL238     -0.1245
     91  CA        18.7750  -12.1110    7.6890 C.3   238  VAL238      0.1561
     92  C         19.6180  -11.9070    8.9770 C.2   238  VAL238      0.2260
     93  O         20.7930  -11.4650    8.9400 O.2   238  VAL238     -0.2867
     94  CB        18.8500  -13.6080    7.3460 C.3   238  VAL238      0.0252
     95  CG1       17.9970  -13.9110    6.0720 C.3   238  VAL238      0.0019
     96  CG2       20.2920  -14.1400    7.1250 C.3   238  VAL238      0.0019
@<TRIPOS>BOND
     1    73    74    1
     2    89    87    1
     3    87    88    1
     4    87    86    1
     5    74    75    1
     6    74    77    1
     7    64    65    2
     8    64    63    1
     9    75    76    2
    10    75    82   am
    11    82    83    1
    12    77    78    1
    13    62    63    1
    14    83    86    1
    15    83    84    1
    16    63    66    1
    17    80    79   ar
    18    78    79    1
    19    84    85    2
    20    79    81   ar
    21    66    67    1
    22    67    69   ar
    23    67    68   ar
    24    69    71   ar
    25    68    70   ar
    26    95    94    1
    27    52    53    1
    28    90    91    1
    29    71    72   ar
    30    96    94    1
    31    70    72   ar
    32    94    91    1
    33    53    54    1
    34    53    56    1
    35    91    92    1
    36    54    55    2
    37    60    58   ar
    38    60    61   ar
    39    58    57   ar
    40    61    59   ar
    41    57    59   ar
    42    57    56    1
    43    51    49   am
    44    93    92    2
    45     4     3    2
    46    49    50    2
    47    49    48    1
    48     1     2    1
    49     3    15   am
    50     3     2    1
    51    16    15    1
    52    16    17    1
    53    32    31    1
    54    32    33    1
    55    48    45    1
    56    31    21   am
    57    19    17   am
    58    19    20    1
    59     2     5    1
    60    26    28   ar
    61    26    24   ar
    62    17    18    2
    63    35    33   am
    64    35    36    1
    65    21    20    1
    66    21    22    2
    67    23    20    1
    68    23    24    1
    69    33    34    2
    70    28    29   ar
    71    12    10   ar
    72    12    14   ar
    73     9    10   ar
    74     9     7   ar
    75    10     8   ar
    76    14    13   ar
    77    44    45    1
    78     7     6   ar
    79    45    46    1
    80    24    25   ar
    81    39    36    1
    82    39    40    1
    83     8     6   ar
    84     8    11   ar
    85    13    11   ar
    86     6     5    1
    87    41    40    1
    88    41    42    1
    89    43    42    1
    90    36    37    1
    91    37    38    2
    92    46    47    2
    93    29    30    1
    94    29    27   ar
    95    25    27   ar
