@<TRIPOS>MOLECULE
tmp/4e3gA01.pdb
 104 103 0 0 0
SMALL
GASTEIGER

@<TRIPOS>ATOM
      1  N          8.5970    6.1600   11.2450 N.3    89  GLN89      -0.1245
      2  CA         8.9390    5.0500   10.3800 C.3    89  GLN89       0.1566
      3  C          8.6980    3.7810   11.1010 C.2    89  GLN89       0.2260
      4  O          8.6240    3.7790   12.3520 O.2    89  GLN89      -0.2867
      5  CB        10.4120    5.0470    9.9430 C.3    89  GLN89       0.0367
      6  CG        11.4530    5.1790   11.0310 C.3    89  GLN89       0.0905
      7  CD        12.2370    3.9100   11.1770 C.2    89  GLN89       0.2608
      8  OE1       11.6850    2.8290   11.2860 O.2    89  GLN89      -0.2717
      9  NE2       13.5620    4.0100   11.1690 N.am   89  GLN89      -0.0878
     10  N         10.0620   -0.5600   10.8900 N.3    91  HIS91      -0.1241
     11  CA        10.9430   -1.5460   10.3280 C.3    91  HIS91       0.1621
     12  C         10.8970   -2.7730   11.1860 C.2    91  HIS91       0.2264
     13  O         10.3060   -2.7700   12.2490 O.2    91  HIS91      -0.2867
     14  CB        12.4090   -1.0220   10.2630 C.3    91  HIS91       0.0745
     15  CG        12.9810   -0.7340   11.6140 C.ar   91  HIS91       0.0817
     16  ND1       12.7950    0.4810   12.2540 N.ar   91  HIS91      -0.2268
     17  CD2       13.6180   -1.5620   12.4750 C.ar   91  HIS91       0.1154
     18  CE1       13.4020    0.3990   13.4550 C.ar   91  HIS91       0.1986
     19  NE2       13.8780   -0.8500   13.6110 N.ar   91  HIS91      -0.2212
     20  N          9.2770   -2.6710   14.9170 N.3   116  HIS116     -0.1241
     21  CA         9.5350   -1.4470   15.6620 C.3   116  HIS116      0.1621
     22  C          8.8600   -0.3030   14.9520 C.2   116  HIS116      0.2264
     23  O          9.2510    0.0510   13.7950 O.2   116  HIS116     -0.2867
     24  CB        11.0580   -1.1660   15.6540 C.3   116  HIS116      0.0745
     25  CG        11.7740   -2.1430   16.5450 C.ar  116  HIS116      0.0817
     26  ND1       13.1510   -2.3430   16.5620 N.ar  116  HIS116     -0.2268
     27  CD2       11.2420   -2.9510   17.4870 C.ar  116  HIS116      0.1154
     28  CE1       13.4210   -3.2470   17.4820 C.ar  116  HIS116      0.1986
     29  NE2       12.3000   -3.6450   18.0510 N.ar  116  HIS116     -0.2212
     30  N          8.6320    3.5240   15.2090 N.3   118  VAL118     -0.1245
     31  CA         9.4370    4.5880   15.8340 C.3   118  VAL118      0.1561
     32  C          8.7180    5.8920   15.8370 C.2   118  VAL118      0.2260
     33  O          8.2540    6.3410   14.7620 O.2   118  VAL118     -0.2867
     34  CB        10.7680    4.6920   15.0830 C.3   118  VAL118      0.0252
     35  CG1       11.7010    5.7600   15.7850 C.3   118  VAL118      0.0019
     36  CG2       11.4800    3.3300   15.0260 C.3   118  VAL118      0.0019
     37  N         12.6580   15.0150   14.8700 N.3   127  PHE127     -0.1241
     38  CA        13.3810   13.7830   15.2890 C.3   127  PHE127      0.1605
     39  C         14.7740   14.1020   15.6960 C.2   127  PHE127      0.2264
     40  O         15.2480   13.5490   16.6830 O.2   127  PHE127     -0.2867
     41  CB        13.4170   12.7790   14.1130 C.3   127  PHE127      0.0534
     42  CG        14.1300   11.4940   14.4260 C.ar  127  PHE127     -0.0203
     43  CD1       13.3920   10.4600   14.9370 C.ar  127  PHE127     -0.0042
     44  CD2       15.4720   11.3360   14.1670 C.ar  127  PHE127     -0.0042
     45  CE1       14.0150    9.2220   15.2440 C.ar  127  PHE127     -0.0003
     46  CE2       16.1180   10.0870   14.4830 C.ar  127  PHE127     -0.0003
     47  CZ        15.3840    9.0620   15.0250 C.ar  127  PHE127     -0.0000
     48  N          9.3090    3.7320   21.0790 N.3   139  VAL139     -0.1245
     49  CA         9.2270    2.6590   20.0980 C.3   139  VAL139      0.1561
     50  C          8.2060    1.6070   20.5770 C.2   139  VAL139      0.2260
     51  O          8.2710    1.1340   21.7120 O.2   139  VAL139     -0.2867
     52  CB        10.5670    2.0000   19.8140 C.3   139  VAL139      0.0252
     53  CG1       10.3580    0.9340   18.6880 C.3   139  VAL139      0.0019
     54  CG2       11.5640    3.0880   19.3290 C.3   139  VAL139      0.0019
     55  N         17.8490    3.0420   21.0900 N.3   194  LEU194     -0.1231
     56  CA        17.7570    2.5450   19.7010 C.3   194  LEU194      0.1693
     57  C         18.6100    1.2800   19.6920 C.2   194  LEU194      0.2593
     58  O         19.6550    1.1800   20.4110 O.2   194  LEU194     -0.2718
     59  CB        18.3330    3.5610   18.7570 C.3   194  LEU194      0.0284
     60  CG        17.4460    4.8350   18.6630 C.3   194  LEU194      0.0019
     61  CD1       18.1980    5.9250   17.8650 C.3   194  LEU194      0.0001
     62  CD2       16.0190    4.5130   18.1320 C.3   194  LEU194      0.0001
     63  N         18.2350    0.3220   18.8340 N.am  195  THR195     -0.1939
     64  CA        18.9540   -0.9590   18.8400 C.3   195  THR195      0.2028
     65  C         19.9190   -1.1230   17.6630 C.2   195  THR195      0.2643
     66  O         20.5810   -2.1560   17.5640 O.2   195  THR195     -0.2714
     67  CB        17.9930   -2.1760   18.9110 C.3   195  THR195      0.1808
     68  OG1       17.3610   -2.2910   17.6410 O.3   195  THR195     -0.2208
     69  CG2       17.0180   -2.0930   19.9960 C.3   195  THR195      0.0379
     70  N         20.0780   -0.0310   16.8920 N.am  196  THR196     -0.1937
     71  CA        21.0980    0.0540   15.8650 C.3   196  THR196      0.2013
     72  C         21.9140    1.3080   16.1730 C.2   196  THR196      0.2484
     73  O         21.4060    2.3050   16.7100 O.2   196  THR196     -0.2729
     74  CB        20.5030    0.0910   14.4090 C.3   196  THR196      0.1807
     75  OG1       19.7080    1.2700   14.2710 O.3   196  THR196     -0.2208
     76  CG2       19.7020   -1.1210   14.0670 C.3   196  THR196      0.0379
     77  N         23.2200    1.2890   15.7400 N.am  197  PRO197     -0.2715
     78  CA        23.9630    2.5560   15.7730 C.3   197  PRO197      0.1521
     79  C         23.1570    3.7230   15.1680 C.2   197  PRO197      0.2440
     80  O         22.4790    3.6000   14.0990 O.2   197  PRO197     -0.2731
     81  CB        25.1910    2.2290   14.9510 C.3   197  PRO197      0.0310
     82  CG        25.3890    0.7150   15.1940 C.3   197  PRO197      0.0237
     83  CD        23.9610    0.1620   15.1700 C.3   197  PRO197      0.0939
     84  N         23.1260    4.8450   15.8990 N.am  198  PRO198     -0.2727
     85  CA        23.9980    5.2430   16.9960 C.3   198  PRO198      0.1402
     86  C         23.6170    4.8260   18.4130 C.2   198  PRO198      0.2269
     87  O         24.2400    5.2670   19.3670 O.2   198  PRO198     -0.2865
     88  CB        23.9670    6.8020   16.8740 C.3   198  PRO198      0.0296
     89  CG        22.6210    7.0740   16.3510 C.3   198  PRO198      0.0237
     90  CD        22.3040    5.9820   15.4020 C.3   198  PRO198      0.0939
     91  N         10.5430    2.3200   25.6230 N.3   205  TRP205     -0.1241
     92  CA        10.0180    1.1360   24.9380 C.3   205  TRP205      0.1605
     93  C          8.6510    0.7130   25.4500 C.2   205  TRP205      0.2264
     94  O          8.4000    0.6310   26.6460 O.2   205  TRP205     -0.2867
     95  CB        11.0010   -0.0740   25.1830 C.3   205  TRP205      0.0550
     96  CG        12.1620    0.0470   24.2440 C.ar  205  TRP205      0.0003
     97  CD1       13.4270    0.6160   24.4550 C.ar  205  TRP205      0.0946
     98  CD2       12.1610   -0.4000   22.8830 C.ar  205  TRP205      0.0152
     99  NE1       14.1480    0.5750   23.2850 N.ar  205  TRP205     -0.2442
    100  CE2       13.4310   -0.0860   22.3200 C.ar  205  TRP205      0.0810
    101  CE3       11.2040   -1.0840   22.0700 C.ar  205  TRP205      0.0012
    102  CZ2       13.7190   -0.3200   21.0010 C.ar  205  TRP205      0.0191
    103  CZ3       11.5350   -1.3760   20.8100 C.ar  205  TRP205      0.0001
    104  CH2       12.7850   -1.0780   20.2820 C.ar  205  TRP205      0.0015
@<TRIPOS>BOND
     1     5     2    1
     2     5     6    1
     3    14    11    1
     4    14    15    1
     5    11    10    1
     6    11    12    1
     7     2     3    1
     8     2     1    1
     9     6     7    1
    10     3     4    2
    11     9     7   am
    12     7     8    2
    13    12    13    2
    14    15    16   ar
    15    15    17   ar
    16    16    18   ar
    17    17    19   ar
    18    18    19   ar
    19    23    22    2
    20    76    74    1
    21    80    79    2
    22    41    42    1
    23    41    38    1
    24    44    42   ar
    25    44    46   ar
    26    75    74    1
    27    74    71    1
    28    42    43   ar
    29    46    47   ar
    30    33    32    2
    31    37    38    1
    32    20    21    1
    33    43    45   ar
    34    81    82    1
    35    81    78    1
    36    22    21    1
    37    47    45   ar
    38    36    34    1
    39    34    35    1
    40    34    31    1
    41    79    78    1
    42    79    84   am
    43    83    82    1
    44    83    77    1
    45    30    31    1
    46    38    39    1
    47    90    84    1
    48    90    89    1
    49    24    21    1
    50    24    25    1
    51    39    40    2
    52    77    78    1
    53    77    72   am
    54    31    32    1
    55    71    72    1
    56    71    70    1
    57    84    85    1
    58    72    73    2
    59    89    88    1
    60    25    26   ar
    61    25    27   ar
    62    26    28   ar
    63    88    85    1
    64    70    65   am
    65    85    86    1
    66    28    29   ar
    67    27    29   ar
    68    66    65    2
    69    68    67    1
    70    65    64    1
    71    61    60    1
    72    62    60    1
    73    86    87    2
    74    60    59    1
    75    53    52    1
    76    59    56    1
    77    63    64    1
    78    63    57   am
    79    64    67    1
    80    67    69    1
    81    54    52    1
    82    57    56    1
    83    57    58    2
    84    56    55    1
    85    52    49    1
    86    49    50    1
    87    49    48    1
    88   104   103   ar
    89   104   102   ar
    90    50    51    2
    91   103   101   ar
    92   102   100   ar
    93   101    98   ar
    94   100    98   ar
    95   100    99   ar
    96    98    96   ar
    97    99    97   ar
    98    96    97   ar
    99    96    95    1
   100    92    95    1
   101    92    93    1
   102    92    91    1
   103    93    94    2
