@<TRIPOS>MOLECULE
tmp/4e3hA01.pdb
 105 100 0 0 0
SMALL
GASTEIGER

@<TRIPOS>ATOM
      1  N          8.6160    6.1220   11.3040 N.3    89  GLN89      -0.1245
      2  CA         8.9490    5.0110   10.4470 C.3    89  GLN89       0.1566
      3  C          8.6870    3.7090   11.1560 C.2    89  GLN89       0.2260
      4  O          8.6310    3.7270   12.3790 O.2    89  GLN89      -0.2867
      5  CB        10.4280    5.0030    9.9040 C.3    89  GLN89       0.0367
      6  CG        11.5210    5.1550   10.9900 C.3    89  GLN89       0.0905
      7  CD        12.2130    3.8540   11.2900 C.2    89  GLN89       0.2608
      8  OE1       11.6490    2.7390   11.1480 O.2    89  GLN89      -0.2717
      9  NE2       13.4390    3.9580   11.8460 N.am   89  GLN89      -0.0878
     10  N         10.0200   -0.5590   10.9480 N.3    91  HIS91      -0.1241
     11  CA        10.8950   -1.5720   10.3360 C.3    91  HIS91       0.1621
     12  C         10.8300   -2.8280   11.1600 C.2    91  HIS91       0.2264
     13  O         10.2680   -2.8420   12.2410 O.2    91  HIS91      -0.2867
     14  CB        12.3580   -1.0400   10.2360 C.3    91  HIS91       0.0745
     15  CG        12.9500   -0.7490   11.5700 C.ar   91  HIS91       0.0817
     16  ND1       12.7610    0.4630   12.2170 N.ar   91  HIS91      -0.2268
     17  CD2       13.5200   -1.5910   12.4700 C.ar   91  HIS91       0.1154
     18  CE1       13.3360    0.3800   13.4250 C.ar   91  HIS91       0.1986
     19  NE2       13.8030   -0.8730   13.6020 N.ar   91  HIS91      -0.2212
     20  N          9.2090   -2.7310   14.8630 N.3   116  HIS116     -0.1241
     21  CA         9.4450   -1.5050   15.6240 C.3   116  HIS116      0.1621
     22  C          8.8070   -0.3390   14.9060 C.2   116  HIS116      0.2264
     23  O          9.1870    0.0300   13.7770 O.2   116  HIS116     -0.2867
     24  CB        10.9360   -1.2470   15.6390 C.3   116  HIS116      0.0745
     25  CG        11.6270   -2.1790   16.5940 C.ar  116  HIS116      0.0817
     26  ND1       12.9880   -2.3760   16.5590 N.ar  116  HIS116     -0.2268
     27  CD2       11.1280   -3.0060   17.5330 C.ar  116  HIS116      0.1154
     28  CE1       13.3390   -3.2670   17.4610 C.ar  116  HIS116      0.1986
     29  NE2       12.2350   -3.6960   18.0900 N.ar  116  HIS116     -0.2212
     30  N          8.5670    3.4780   15.2250 N.3   118  VAL118     -0.1245
     31  CA         9.3710    4.5480   15.8650 C.3   118  VAL118      0.1561
     32  C          8.6400    5.8690   15.8570 C.2   118  VAL118      0.2260
     33  O          8.1190    6.2670   14.8050 O.2   118  VAL118     -0.2867
     34  CB        10.6850    4.6640   15.1140 C.3   118  VAL118      0.0252
     35  CG1       11.5590    5.7620   15.7630 C.3   118  VAL118      0.0019
     36  CG2       11.4500    3.2950   15.0450 C.3   118  VAL118      0.0019
     37  N         12.6460   15.0310   14.7430 N.3   127  PHE127     -0.1241
     38  CA        13.3080   13.8300   15.2080 C.3   127  PHE127      0.1605
     39  C         14.7510   14.1040   15.6070 C.2   127  PHE127      0.2264
     40  O         15.2380   13.5350   16.5640 O.2   127  PHE127     -0.2867
     41  CB        13.2690   12.8160   14.0500 C.3   127  PHE127      0.0534
     42  CG        13.9840   11.5060   14.3390 C.ar  127  PHE127     -0.0203
     43  CD1       13.3130   10.4310   14.9350 C.ar  127  PHE127     -0.0042
     44  CD2       15.3370   11.3880   14.0560 C.ar  127  PHE127     -0.0042
     45  CE1       13.9880    9.2720   15.1960 C.ar  127  PHE127     -0.0003
     46  CE2       16.0190   10.2120   14.3240 C.ar  127  PHE127     -0.0003
     47  CZ        15.3150    9.1470   14.8950 C.ar  127  PHE127     -0.0000
     48  N         12.1900    9.6200   22.2380 N.3   137  LEU137     -0.1245
     49  CA        11.5790    8.6670   21.3030 C.3   137  LEU137      0.1561
     50  C         10.6760    7.6630   22.0800 C.2   137  LEU137      0.2260
     51  O         10.8990    7.4020   23.2770 O.2   137  LEU137     -0.2867
     52  CB        12.6330    7.8450   20.5930 C.3   137  LEU137      0.0270
     53  CG        13.5630    8.6800   19.7430 C.3   137  LEU137      0.0019
     54  CD1       14.6010    7.7380   19.0950 C.3   137  LEU137      0.0001
     55  CD2       12.9100    9.4680   18.5780 C.3   137  LEU137      0.0001
     56  N          9.2490    3.7070   21.1070 N.3   139  VAL139     -0.1245
     57  CA         9.1640    2.6690   20.1050 C.3   139  VAL139      0.1561
     58  C          8.1720    1.6100   20.5920 C.2   139  VAL139      0.2260
     59  O          8.2770    1.1460   21.7300 O.2   139  VAL139     -0.2867
     60  CB        10.5260    2.0250   19.8230 C.3   139  VAL139      0.0252
     61  CG1       10.3130    0.8960   18.6960 C.3   139  VAL139      0.0019
     62  CG2       11.5210    3.0880   19.2930 C.3   139  VAL139      0.0019
     63  N         18.0860    3.0990   21.0840 N.3   194  LEU194     -0.1231
     64  CA        18.0720    2.5500   19.7290 C.3   194  LEU194      0.1693
     65  C         18.7950    1.2580   19.7670 C.2   194  LEU194      0.2593
     66  O         19.8020    1.0750   20.5190 O.2   194  LEU194     -0.2718
     67  CB        18.8700    3.4690   18.7640 C.3   194  LEU194      0.0284
     68  CG        18.2060    4.7470   18.2820 C.3   194  LEU194      0.0019
     69  CD1       17.6510    5.6470   19.2080 C.3   194  LEU194      0.0001
     70  CD2       19.1870    5.5470   17.3900 C.3   194  LEU194      0.0001
     71  N         18.3860    0.2980   18.9730 N.am  195  THR195     -0.1939
     72  CA        19.1020   -0.9660   18.9580 C.3   195  THR195      0.2028
     73  C         20.1130   -1.0940   17.8000 C.2   195  THR195      0.2642
     74  O         20.7130   -2.1620   17.6350 O.2   195  THR195     -0.2714
     75  CB        18.1190   -2.1480   18.8350 C.3   195  THR195      0.1808
     76  OG1       17.4980   -2.2080   17.5550 O.3   195  THR195     -0.2208
     77  CG2       17.0450   -2.1120   19.9080 C.3   195  THR195      0.0379
     78  N         20.2420   -0.0280   17.0030 N.am  196  THR196     -0.1950
     79  CA        21.2940    0.0620   15.9690 C.3   196  THR196      0.1897
     80  C         22.0930    1.3130   16.2880 C.2   196  THR196      0.2313
     81  O         21.6110    2.2990   16.8700 O.2   196  THR196     -0.2863
     82  CB        20.6940    0.1550   14.5740 C.3   196  THR196      0.1794
     83  OG1       19.6670    1.1660   14.6140 O.3   196  THR196     -0.2208
     84  CG2       20.0800   -1.1730   14.1640 C.3   196  THR196      0.0378
     85  N         14.9650    6.2500   24.3370 N.3   203  VAL203     -0.1245
     86  CA        13.7620    5.5780   23.9120 C.3   203  VAL203      0.1561
     87  C         12.9500    5.0670   25.1270 C.2   203  VAL203      0.2260
     88  O         13.5180    4.3930   26.0310 O.2   203  VAL203     -0.2867
     89  CB        14.0930    4.2680   23.1630 C.3   203  VAL203      0.0252
     90  CG1       12.7530    3.6000   22.7120 C.3   203  VAL203      0.0019
     91  CG2       14.8810    4.6400   21.8360 C.3   203  VAL203      0.0019
     92  N         10.5850    2.2950   25.6310 N.3   205  TRP205     -0.1241
     93  CA        10.1120    1.1040   24.9060 C.3   205  TRP205      0.1605
     94  C          8.7800    0.6330   25.4070 C.2   205  TRP205      0.2264
     95  O          8.5820    0.5720   26.6350 O.2   205  TRP205     -0.2867
     96  CB        11.1260   -0.0570   25.1620 C.3   205  TRP205      0.0550
     97  CG        12.2800    0.0550   24.1540 C.ar  205  TRP205      0.0003
     98  CD1       13.5330    0.6500   24.3640 C.ar  205  TRP205      0.0946
     99  CD2       12.2710   -0.3660   22.8050 C.ar  205  TRP205      0.0152
    100  NE1       14.2470    0.6420   23.1860 N.ar  205  TRP205     -0.2442
    101  CE2       13.5310   -0.0360   22.2230 C.ar  205  TRP205      0.0810
    102  CE3       11.3070   -1.0370   22.0160 C.ar  205  TRP205      0.0012
    103  CZ2       13.8030   -0.2900   20.9030 C.ar  205  TRP205      0.0191
    104  CZ3       11.6180   -1.3350   20.7080 C.ar  205  TRP205      0.0001
    105  CH2       12.8440   -1.0230   20.1700 C.ar  205  TRP205      0.0015
@<TRIPOS>BOND
     1     5     2    1
     2     5     6    1
     3    14    11    1
     4    14    15    1
     5    11    10    1
     6    11    12    1
     7     2     3    1
     8     2     1    1
     9     6     7    1
    10     8     7    2
    11     3     4    2
    12    12    13    2
    13     7     9   am
    14    15    16   ar
    15    15    17   ar
    16    16    18   ar
    17    17    19   ar
    18    18    19   ar
    19    23    22    2
    20    41    42    1
    21    41    38    1
    22    44    46   ar
    23    44    42   ar
    24    84    82    1
    25    46    47   ar
    26    42    43   ar
    27    82    83    1
    28    82    79    1
    29    37    38    1
    30    33    32    2
    31    20    21    1
    32    47    45   ar
    33    22    21    1
    34    43    45   ar
    35    36    34    1
    36    34    35    1
    37    34    31    1
    38    38    39    1
    39    30    31    1
    40    39    40    2
    41    21    24    1
    42    24    25    1
    43    32    31    1
    44    79    80    1
    45    79    78    1
    46    80    81    2
    47    26    25   ar
    48    26    28   ar
    49    25    27   ar
    50    78    73   am
    51    70    68    1
    52    28    29   ar
    53    27    29   ar
    54    76    75    1
    55    74    73    2
    56    73    72    1
    57    68    67    1
    58    68    69    1
    59    55    53    1
    60    61    60    1
    61    67    64    1
    62    75    72    1
    63    75    77    1
    64    72    71    1
    65    71    65   am
    66    54    53    1
    67    62    60    1
    68    64    65    1
    69    64    63    1
    70    53    52    1
    71    65    66    2
    72    60    57    1
    73    57    58    1
    74    57    56    1
    75   105   104   ar
    76   105   103   ar
    77    58    59    2
    78    52    49    1
    79   104   102   ar
    80   103   101   ar
    81    49    50    1
    82    49    48    1
    83    91    89    1
    84   102    99   ar
    85    50    51    2
    86   101    99   ar
    87   101   100   ar
    88    90    89    1
    89    99    97   ar
    90    89    86    1
    91   100    98   ar
    92    86    85    1
    93    86    87    1
    94    97    98   ar
    95    97    96    1
    96    93    96    1
    97    93    94    1
    98    93    92    1
    99    87    88    2
   100    94    95    2
