@<TRIPOS>MOLECULE
tmp/4e3iB00.pdb
 118 112 0 0 0
SMALL
GASTEIGER

@<TRIPOS>ATOM
      1  N         76.2140    1.4360   29.3330 N.3    60  SER60      -0.1217
      2  CA        74.8770    1.8850   28.9340 C.3    60  SER60       0.1889
      3  C         73.9720    0.8700   28.2680 C.2    60  SER60       0.2288
      4  O         72.8040    1.1640   28.0230 O.2    60  SER60      -0.2866
      5  CB        74.9650    3.1230   28.0630 C.3    60  SER60       0.2089
      6  OG        75.4880    4.1650   28.8650 O.3    60  SER60      -0.2183
      7  N         70.8650    0.5530   30.0620 N.3    63  LYS63      -0.1245
      8  CA        69.6960    1.3710   29.8210 C.3    63  LYS63       0.1561
      9  C         68.5900    0.5560   29.1600 C.2    63  LYS63       0.2260
     10  O         67.4230    0.9060   29.2560 O.2    63  LYS63      -0.2867
     11  CB        70.0460    2.5890   28.9640 C.3    63  LYS63       0.0271
     12  CG        70.9840    3.5400   29.6980 C.3    63  LYS63       0.0035
     13  CD        71.3740    4.6970   28.7720 C.3    63  LYS63       0.0206
     14  CE        72.1260    5.8180   29.4990 C.3    63  LYS63       0.1093
     15  NZ        73.4380    5.4680   30.1250 N.3    63  LYS63      -0.1314
     16  N         74.7240   14.9770   30.4330 N.3   115  LEU115     -0.1231
     17  CA        75.2720   13.6510   30.2130 C.3   115  LEU115      0.1693
     18  C         75.5760   12.9260   31.5200 C.2   115  LEU115      0.2591
     19  O         75.1540   11.7840   31.7100 O.2   115  LEU115     -0.2718
     20  CB        76.5370   13.7360   29.3600 C.3   115  LEU115      0.0284
     21  CG        77.2130   12.3880   29.0530 C.3   115  LEU115      0.0019
     22  CD1       76.2550   11.3870   28.3700 C.3   115  LEU115      0.0001
     23  CD2       78.4450   12.6050   28.1870 C.3   115  LEU115      0.0001
     24  N         76.2940   13.5920   32.4250 N.am  116  GLN116     -0.1979
     25  CA        76.6190   12.9930   33.7090 C.3   116  GLN116      0.1601
     26  C         75.9110   13.7360   34.8340 C.2   116  GLN116      0.2287
     27  O         75.7580   14.9630   34.7890 O.2   116  GLN116     -0.2864
     28  CB        78.1330   13.0630   33.9870 C.3   116  GLN116      0.0394
     29  CG        79.0360   12.4160   32.9370 C.3   116  GLN116      0.0908
     30  CD        78.8650   10.9130   32.8540 C.2   116  GLN116      0.2608
     31  OE1       78.2530   10.2960   33.7170 O.2   116  GLN116     -0.2717
     32  NE2       79.4060   10.3150   31.7920 N.am  116  GLN116     -0.0878
     33  N         79.8060   14.6190   39.7490 N.3   119  ASP119     -0.1239
     34  CA        80.4590   13.5730   40.5540 C.3   119  ASP119      0.1674
     35  C         80.2240   13.7010   42.0580 C.2   119  ASP119      0.2266
     36  O         80.2460   12.7050   42.7830 O.2   119  ASP119     -0.2867
     37  CB        81.9700   13.5430   40.2900 C.3   119  ASP119      0.1410
     38  CG        82.3960   12.7500   39.1040 C.2   119  ASP119      0.3668
     39  OD1       81.5930   12.0980   38.4700 O.co2 119  ASP119     -0.2456
     40  OD2       83.6690   12.7720   38.8580 O.co2 119  ASP119     -0.2456
     41  N         71.4200   12.7970   24.7530 N.3   146  TYR146     -0.1241
     42  CA        71.6990   11.5570   25.4770 C.3   146  TYR146      0.1605
     43  C         72.2880   11.8880   26.8430 C.2   146  TYR146      0.2264
     44  O         73.2260   12.7130   26.9530 O.2   146  TYR146     -0.2867
     45  CB        72.6640   10.7250   24.6520 C.3   146  TYR146      0.0534
     46  CG        73.0400    9.3990   25.2510 C.ar  146  TYR146     -0.0201
     47  CD1       74.2000    9.2660   25.9780 C.ar  146  TYR146     -0.0009
     48  CD2       72.2250    8.2620   25.0700 C.ar  146  TYR146     -0.0009
     49  CE1       74.5630    8.0370   26.5090 C.ar  146  TYR146      0.0417
     50  CE2       72.5810    7.0380   25.5890 C.ar  146  TYR146      0.0417
     51  CZ        73.7420    6.9350   26.3070 C.ar  146  TYR146      0.1957
     52  OH        74.1260    5.7250   26.8150 O.3   146  TYR146     -0.2866
     53  N         72.8470   10.2820   31.0710 N.3   148  ASN148     -0.1240
     54  CA        72.6390    9.3990   32.2210 C.3   148  ASN148      0.1653
     55  C         71.6770   10.0000   33.2370 C.2   148  ASN148      0.2266
     56  O         70.9170    9.2660   33.8780 O.2   148  ASN148     -0.2867
     57  CB        73.9490    9.1370   32.9510 C.3   148  ASN148      0.1155
     58  CG        74.9070    8.2640   32.1680 C.2   148  ASN148      0.2627
     59  OD1       74.4950    7.3980   31.4000 O.2   148  ASN148     -0.2716
     60  ND2       76.2050    8.4850   32.3690 N.am  148  ASN148     -0.0877
     61  N         90.5740   -1.8150   36.1680 N.3   205  VAL205     -0.1231
     62  CA        89.5770   -0.9840   36.8340 C.3   205  VAL205      0.1692
     63  C         88.1670   -1.5670   36.8000 C.2   205  VAL205      0.2592
     64  O         87.8180   -2.3520   35.9130 O.2   205  VAL205     -0.2718
     65  CB        89.5040    0.4460   36.2280 C.3   205  VAL205      0.0266
     66  CG1       90.8460    1.1340   36.3030 C.3   205  VAL205      0.0020
     67  CG2       89.0110    0.4080   34.7760 C.3   205  VAL205      0.0020
     68  N         87.3740   -1.1650   37.7860 N.am  206  HIS206     -0.1962
     69  CA        85.9250   -1.3840   37.7840 C.3   206  HIS206      0.1787
     70  C         85.2010   -0.0440   37.8730 C.2   206  HIS206      0.2620
     71  O         85.7790    0.9710   38.2950 O.2   206  HIS206     -0.2715
     72  CB        85.5050   -2.2950   38.9470 C.3   206  HIS206      0.0785
     73  CG        85.8030   -3.7440   38.7200 C.ar  206  HIS206      0.0821
     74  ND1       86.0710   -4.6200   39.7510 N.ar  206  HIS206     -0.2267
     75  CD2       85.8600   -4.4760   37.5790 C.ar  206  HIS206      0.1154
     76  CE1       86.2900   -5.8260   39.2540 C.ar  206  HIS206      0.1986
     77  NE2       86.1650   -5.7660   37.9380 N.ar  206  HIS206     -0.2212
     78  N         83.9330   -0.0440   37.4690 N.am  207  VAL207     -0.1963
     79  CA        83.1120    1.1600   37.4670 C.3   207  VAL207      0.1727
     80  C         83.0380    1.7820   38.8670 C.2   207  VAL207      0.2616
     81  O         82.8980    1.0700   39.8640 O.2   207  VAL207     -0.2715
     82  CB        81.7000    0.8370   36.9250 C.3   207  VAL207      0.0290
     83  CG1       81.0110   -0.1860   37.8330 C.3   207  VAL207      0.0023
     84  CG2       80.8650    2.1000   36.7590 C.3   207  VAL207      0.0023
     85  N         83.1670    3.1040   38.9390 N.am  208  SER208     -0.1950
     86  CA        83.0800    3.8090   40.2230 C.3   208  SER208      0.1924
     87  C         81.6290    3.9780   40.6650 C.2   208  SER208      0.2314
     88  O         80.7270    4.1510   39.8360 O.2   208  SER208     -0.2863
     89  CB        83.7350    5.1880   40.1230 C.3   208  SER208      0.2116
     90  OG        85.1090    5.0840   39.8160 O.3   208  SER208     -0.2180
     91  N         73.8170    2.7990   34.1440 N.3   217  TYR217     -0.1241
     92  CA        74.9850    2.0820   33.5810 C.3   217  TYR217      0.1605
     93  C         75.5520    0.9760   34.4740 C.2   217  TYR217      0.2264
     94  O         76.7160    0.5900   34.3340 O.2   217  TYR217     -0.2867
     95  CB        76.1260    3.0720   33.2170 C.3   217  TYR217      0.0534
     96  CG        76.5550    3.9940   34.3480 C.ar  217  TYR217     -0.0201
     97  CD1       77.4420    3.5620   35.3210 C.ar  217  TYR217     -0.0009
     98  CD2       76.0760    5.2920   34.4350 C.ar  217  TYR217     -0.0009
     99  CE1       77.8360    4.4030   36.3600 C.ar  217  TYR217      0.0417
    100  CE2       76.4690    6.1380   35.4710 C.ar  217  TYR217      0.0417
    101  CZ        77.3430    5.6820   36.4280 C.ar  217  TYR217      0.1957
    102  OH        77.7400    6.5060   37.4640 O.3   217  TYR217     -0.2866
    103  N         79.4990    1.6980   27.5690 N.3   314  ALA314     -0.1231
    104  CA        80.8780    1.7960   28.0060 C.3   314  ALA314      0.1694
    105  C         80.9560    2.1340   29.4650 C.2   314  ALA314      0.2593
    106  O         80.0730    2.7890   30.0250 O.2   314  ALA314     -0.2718
    107  CB        81.6580    2.8210   27.1990 C.3   314  ALA314      0.0304
    108  N         82.0210    1.6510   30.0790 N.am  315  THR315     -0.1939
    109  CA        82.4670    2.2100   31.3490 C.3   315  THR315      0.2028
    110  C         83.9410    2.5440   31.1800 C.2   315  THR315      0.2642
    111  O         84.5080    2.3920   30.0830 O.2   315  THR315     -0.2714
    112  CB        82.2830    1.2310   32.5230 C.3   315  THR315      0.1808
    113  OG1       83.0240    0.0320   32.2610 O.3   315  THR315     -0.2208
    114  CG2       80.7920    0.8870   32.7430 C.3   315  THR315      0.0379
    115  N         84.5820    2.9920   32.2540 N.am  316  GLY316     -0.1954
    116  CA        85.9660    3.3920   32.1560 C.3   316  GLY316      0.1869
    117  C         86.8040    2.3110   31.5070 C.2   316  GLY316      0.2309
    118  O         87.6710    2.6010   30.6760 O.2   316  GLY316     -0.2863
@<TRIPOS>BOND
     1    45    46    1
     2    45    42    1
     3    41    42    1
     4    48    46   ar
     5    48    50   ar
     6    46    47   ar
     7    42    43    1
     8    50    51   ar
     9    47    49   ar
    10    51    49   ar
    11    51    52    1
    12    43    44    2
    13   107   104    1
    14   103   104    1
    15   104   105    1
    16     4     3    2
    17     5     6    1
    18     5     2    1
    19    23    21    1
    20     3     2    1
    21    22    21    1
    22    13    14    1
    23    13    12    1
    24     2     1    1
    25    11    12    1
    26    11     8    1
    27    21    20    1
    28     9    10    2
    29     9     8    1
    30    20    17    1
    31   105   106    2
    32   105   108   am
    33    14    15    1
    34     8     7    1
    35   108   109    1
    36   111   110    2
    37    17    16    1
    38    17    18    1
    39   118   117    2
    40    53    54    1
    41   110   109    1
    42   110   115   am
    43   109   112    1
    44    59    58    2
    45   117   116    1
    46    18    19    2
    47    18    24   am
    48    32    30   am
    49   116   115    1
    50    58    60   am
    51    58    57    1
    52    54    57    1
    53    54    55    1
    54   113   112    1
    55    24    25    1
    56   112   114    1
    57    30    29    1
    58    30    31    2
    59    29    28    1
    60    95    92    1
    61    95    96    1
    62    55    56    2
    63    92    91    1
    64    92    93    1
    65    25    28    1
    66    25    26    1
    67    94    93    2
    68    96    98   ar
    69    96    97   ar
    70    98   100   ar
    71    67    65    1
    72    27    26    2
    73    97    99   ar
    74   100   101   ar
    75    64    63    2
    76    61    62    1
    77    65    66    1
    78    65    62    1
    79    99   101   ar
    80   101   102    1
    81    84    82    1
    82    63    62    1
    83    63    68   am
    84    82    79    1
    85    82    83    1
    86    79    78    1
    87    79    80    1
    88    78    70   am
    89    75    77   ar
    90    75    73   ar
    91    69    68    1
    92    69    70    1
    93    69    72    1
    94    70    71    2
    95    77    76   ar
    96    39    38   ar
    97    73    72    1
    98    73    74   ar
    99    40    38   ar
   100    80    85   am
   101    80    81    2
   102    85    86    1
   103    38    37    1
   104    76    74   ar
   105    33    34    1
   106    90    89    1
   107    88    87    2
   108    89    86    1
   109    86    87    1
   110    37    34    1
   111    34    35    1
   112    35    36    2
