@<TRIPOS>MOLECULE
tmp/4e3kA00.pdb
 115 109 0 0 0
SMALL
GASTEIGER

@<TRIPOS>ATOM
      1  N         26.8740    1.2820   16.0820 N.3    61  SER61      -0.1217
      2  CA        28.2380    1.7010   16.3670 C.3    61  SER61       0.1889
      3  C         29.0750    0.7910   17.2470 C.2    61  SER61       0.2288
      4  O         30.2640    1.0410   17.4190 O.2    61  SER61      -0.2866
      5  CB        28.2690    3.0990   16.9260 C.3    61  SER61       0.2089
      6  OG        27.7870    4.0060   15.9680 O.3    61  SER61      -0.2183
      7  N         32.1670   -0.1570   15.5720 N.3    64  LYS64      -0.1245
      8  CA        33.4200    0.5960   15.6350 C.3    64  LYS64       0.1561
      9  C         34.4670   -0.1430   16.4420 C.2    64  LYS64       0.2260
     10  O         35.6630    0.1210   16.2650 O.2    64  LYS64      -0.2867
     11  CB        33.1670    1.9800   16.2540 C.3    64  LYS64       0.0271
     12  CG        32.3280    2.9000   15.3710 C.3    64  LYS64       0.0035
     13  CD        32.0100    4.2210   16.0940 C.3    64  LYS64       0.0206
     14  CE        31.3670    5.2450   15.1820 C.3    64  LYS64       0.1093
     15  NZ        30.0210    4.8490   14.6740 N.3    64  LYS64      -0.1314
     16  N         29.3650   13.8250   12.5360 N.3   116  LEU116     -0.1231
     17  CA        28.8480   12.5340   12.9340 C.3   116  LEU116      0.1693
     18  C         28.5060   11.6900   11.7170 C.2   116  LEU116      0.2591
     19  O         28.8900   10.5280   11.6230 O.2   116  LEU116     -0.2718
     20  CB        27.6070   12.6890   13.8180 C.3   116  LEU116      0.0284
     21  CG        26.9660   11.3530   14.2060 C.3   116  LEU116      0.0019
     22  CD1       27.9090   10.4860   15.0610 C.3   116  LEU116      0.0001
     23  CD2       25.6380   11.5940   14.9100 C.3   116  LEU116      0.0001
     24  N         27.7510   12.2760   10.7910 N.am  117  GLN117     -0.1979
     25  CA        27.2850   11.5070    9.6620 C.3   117  GLN117      0.1601
     26  C         27.8610   12.0060    8.3540 C.2   117  GLN117      0.2287
     27  O         28.0430   13.2140    8.1310 O.2   117  GLN117     -0.2864
     28  CB        25.7480   11.4620    9.6100 C.3   117  GLN117      0.0394
     29  CG        25.1310   10.6300   10.7320 C.3   117  GLN117      0.0908
     30  CD        23.6220   10.5010   10.6220 C.2   117  GLN117      0.2608
     31  OE1       22.8660   11.2880   11.2050 O.2   117  GLN117     -0.2717
     32  NE2       23.1740    9.4930    9.8960 N.am  117  GLN117     -0.0878
     33  N         32.6010   12.8220   18.3640 N.3   147  TYR147     -0.1241
     34  CA        32.2860   11.4690   17.9270 C.3   147  TYR147      0.1605
     35  C         31.7360   11.5050   16.5110 C.2   147  TYR147      0.2264
     36  O         30.8270   12.2850   16.2330 O.2   147  TYR147     -0.2867
     37  CB        31.2570   10.8830   18.8950 C.3   147  TYR147      0.0534
     38  CG        30.7910    9.4920   18.6000 C.ar  147  TYR147     -0.0201
     39  CD1       29.5620    9.2850   18.0160 C.ar  147  TYR147     -0.0009
     40  CD2       31.5640    8.3940   18.9310 C.ar  147  TYR147     -0.0009
     41  CE1       29.1000    8.0220   17.7440 C.ar  147  TYR147      0.0417
     42  CE2       31.1140    7.1020   18.6530 C.ar  147  TYR147      0.0417
     43  CZ        29.8760    6.9310   18.0710 C.ar  147  TYR147      0.1957
     44  OH        29.3790    5.6700   17.8390 O.3   147  TYR147     -0.2866
     45  N         31.1160    9.1540   12.6200 N.3   149  ASN149     -0.1240
     46  CA        31.2610    8.0660   11.6610 C.3   149  ASN149      0.1653
     47  C         32.2190    8.4660   10.5480 C.2   149  ASN149      0.2266
     48  O         32.9410    7.6220   10.0040 O.2   149  ASN149     -0.2867
     49  CB        29.9290    7.7330   10.9960 C.3   149  ASN149      0.1155
     50  CG        28.8980    7.3090   11.9540 C.2   149  ASN149      0.2627
     51  OD1       29.1910    6.7420   13.0050 O.2   149  ASN149     -0.2716
     52  ND2       27.6490    7.5610   11.5950 N.am  149  ASN149     -0.0877
     53  N         15.2410   -2.1440    8.5810 N.3   207  HIS207     -0.1226
     54  CA        16.6590   -2.5210    8.6220 C.3   207  HIS207      0.1752
     55  C         17.5080   -1.3290    8.2500 C.2   207  HIS207      0.2596
     56  O         17.0280   -0.3760    7.6170 O.2   207  HIS207     -0.2718
     57  CB        16.9160   -3.6650    7.6310 C.3   207  HIS207      0.0759
     58  CG        16.4830   -4.9930    8.1570 C.ar  207  HIS207      0.0818
     59  ND1       16.0170   -6.0030    7.3420 N.ar  207  HIS207     -0.2268
     60  CD2       16.5140   -5.5040    9.4100 C.ar  207  HIS207      0.1154
     61  CE1       15.7420   -7.0670    8.0770 C.ar  207  HIS207      0.1986
     62  NE2       16.0210   -6.7870    9.3380 N.ar  207  HIS207     -0.2212
     63  N         18.7840   -1.4090    8.6080 N.am  208  VAL208     -0.1966
     64  CA        19.7270   -0.3300    8.3070 C.3   208  VAL208      0.1727
     65  C         19.7720   -0.0530    6.8050 C.2   208  VAL208      0.2616
     66  O         19.6600   -0.9690    5.9660 O.2   208  VAL208     -0.2715
     67  CB        21.1480   -0.6670    8.8700 C.3   208  VAL208      0.0290
     68  CG1       21.7160   -1.8910    8.1670 C.3   208  VAL208      0.0023
     69  CG2       22.1060    0.5280    8.8130 C.3   208  VAL208      0.0023
     70  N         19.8980    1.2190    6.4500 N.am  209  SER209     -0.1950
     71  CA        19.9890    1.6320    5.0490 C.3   209  SER209      0.1924
     72  C         21.4490    1.7230    4.6240 C.2   209  SER209      0.2314
     73  O         22.2850    2.0860    5.4280 O.2   209  SER209     -0.2863
     74  CB        19.3400    3.0090    4.8560 C.3   209  SER209      0.2116
     75  OG        17.9510    2.9910    5.1440 O.3   209  SER209     -0.2180
     76  N         29.1460    1.4430   11.2650 N.3   218  TYR218     -0.1241
     77  CA        27.9140    1.0090   11.9600 C.3   218  TYR218      0.1605
     78  C         27.2300   -0.1960   11.3480 C.2   218  TYR218      0.2264
     79  O         26.0490   -0.4660   11.6580 O.2   218  TYR218     -0.2867
     80  CB        26.9010    2.1530   12.0940 C.3   218  TYR218      0.0534
     81  CG        26.4960    2.8090   10.7820 C.ar  218  TYR218     -0.0201
     82  CD1       25.5510    2.2210    9.9380 C.ar  218  TYR218     -0.0009
     83  CD2       27.0450    4.0240   10.4010 C.ar  218  TYR218     -0.0009
     84  CE1       25.1490    2.8260    8.7570 C.ar  218  TYR218      0.0417
     85  CE2       26.6770    4.6220    9.2090 C.ar  218  TYR218      0.0417
     86  CZ        25.7250    4.0030    8.3920 C.ar  218  TYR218      0.1957
     87  OH        25.3240    4.5710    7.2070 O.3   218  TYR218     -0.2866
     88  N         27.8380   12.7440   22.2750 N.3   290  LEU290     -0.1245
     89  CA        27.9640   13.2690   20.9360 C.3   290  LEU290      0.1561
     90  C         28.4460   14.7220   20.9320 C.2   290  LEU290      0.2260
     91  O         28.5620   15.3210   19.8650 O.2   290  LEU290     -0.2867
     92  CB        26.6120   13.1730   20.2060 C.3   290  LEU290      0.0270
     93  CG        25.9890   11.7850   20.0620 C.3   290  LEU290      0.0019
     94  CD1       24.6750   11.8880   19.2740 C.3   290  LEU290      0.0001
     95  CD2       26.9760   10.8180   19.4090 C.3   290  LEU290      0.0001
     96  N         23.7370    2.1590   17.9610 N.3   315  ALA315     -0.1231
     97  CA        22.3490    2.2560   17.5280 C.3   315  ALA315      0.1694
     98  C         22.2460    2.3110   16.0190 C.2   315  ALA315      0.2593
     99  O         23.1240    2.8490   15.3360 O.2   315  ALA315     -0.2718
    100  CB        21.7140    3.5130   18.1160 C.3   315  ALA315      0.0304
    101  N         21.1690    1.7410   15.4970 N.am  316  THR316     -0.1939
    102  CA        20.6890    2.0990   14.1640 C.3   316  THR316      0.2028
    103  C         19.2400    2.5670   14.3370 C.2   316  THR316      0.2643
    104  O         18.7320    2.6060   15.4650 O.2   316  THR316     -0.2714
    105  CB        20.7430    0.8960   13.1970 C.3   316  THR316      0.1808
    106  OG1       19.8950   -0.1280   13.7100 O.3   316  THR316     -0.2208
    107  CG2       22.1470    0.3520   13.0730 C.3   316  THR316      0.0379
    108  N         18.5680    2.9050   13.2480 N.am  317  GLY317     -0.1939
    109  CA        17.2040    3.3850   13.3800 C.3   317  GLY317      0.2014
    110  C         16.3450    2.4430   14.1950 C.2   317  GLY317      0.2639
    111  O         15.4830    2.8900   14.9450 O.2   317  GLY317     -0.2714
    112  N         16.5690    1.1400   14.0300 N.am  318  GLY318     -0.1954
    113  CA        15.7100    0.1390   14.6220 C.3   318  GLY318      0.1869
    114  C         16.2810   -0.6890   15.7400 C.2   318  GLY318      0.2309
    115  O         15.5890   -1.5620   16.2320 O.2   318  GLY318     -0.2863
@<TRIPOS>BOND
     1    72    71    1
     2    72    73    2
     3    74    71    1
     4    74    75    1
     5    71    70    1
     6    66    65    2
     7    70    65   am
     8    65    64    1
     9    87    86    1
    10    59    61   ar
    11    59    58   ar
    12    56    55    2
    13    57    58    1
    14    57    54    1
    15    61    62   ar
    16    27    26    2
    17    58    60   ar
    18    68    67    1
    19    55    63   am
    20    55    54    1
    21    64    63    1
    22    64    67    1
    23    26    25    1
    24    86    84   ar
    25    86    85   ar
    26    53    54    1
    27    84    82   ar
    28    69    67    1
    29    85    83   ar
    30    62    60   ar
    31    28    25    1
    32    28    29    1
    33    25    24    1
    34    32    30   am
    35    82    81   ar
    36    48    47    2
    37    83    81   ar
    38    47    46    1
    39    30    29    1
    40    30    31    2
    41    81    80    1
    42    24    18   am
    43    49    46    1
    44    49    50    1
    45    76    77    1
    46    78    79    2
    47    78    77    1
    48    52    50   am
    49    19    18    2
    50    46    45    1
    51    18    17    1
    52    50    51    2
    53    77    80    1
    54    16    17    1
    55    17    20    1
    56   107   105    1
    57   105   106    1
    58   105   102    1
    59   108   109    1
    60   108   103   am
    61   109   110    1
    62    20    21    1
    63   112   110   am
    64   112   113    1
    65   102   103    1
    66   102   101    1
    67   110   111    2
    68    21    23    1
    69    21    22    1
    70   103   104    2
    71   113   114    1
    72    15    14    1
    73    14    13    1
    74    99    98    2
    75    12    13    1
    76    12    11    1
    77   101    98   am
    78     7     8    1
    79     8    11    1
    80     8     9    1
    81   114   115    2
    82     6     5    1
    83    98    97    1
    84     1     2    1
    85    36    35    2
    86    10     9    2
    87     2     5    1
    88     2     3    1
    89    35    34    1
    90     3     4    2
    91    97    96    1
    92    97   100    1
    93    41    39   ar
    94    41    43   ar
    95    44    43    1
    96    34    33    1
    97    34    37    1
    98    39    38   ar
    99    43    42   ar
   100    38    37    1
   101    38    40   ar
   102    42    40   ar
   103    94    93    1
   104    95    93    1
   105    91    90    2
   106    93    92    1
   107    92    89    1
   108    90    89    1
   109    89    88    1
