@<TRIPOS>MOLECULE
tmp/4e3lB00.pdb
 130 122 0 0 0
SMALL
GASTEIGER

@<TRIPOS>ATOM
      1  N         75.9690    1.0950   29.4900 N.3    61  SER61      -0.1217
      2  CA        74.6400    1.5660   29.0950 C.3    61  SER61       0.1889
      3  C         73.7440    0.5700   28.3990 C.2    61  SER61       0.2288
      4  O         72.5800    0.8910   28.1540 O.2    61  SER61      -0.2866
      5  CB        74.7150    2.8390   28.2670 C.3    61  SER61       0.2089
      6  OG        75.3220    3.8380   29.0460 O.3    61  SER61      -0.2183
      7  N         70.5990    0.2450   30.1340 N.3    64  LYS64      -0.1245
      8  CA        69.4060    1.0760   29.8730 C.3    64  LYS64       0.1561
      9  C         68.2760    0.2890   29.2260 C.2    64  LYS64       0.2260
     10  O         67.0910    0.6620   29.3510 O.2    64  LYS64      -0.2867
     11  CB        69.7640    2.2990   29.0180 C.3    64  LYS64       0.0271
     12  CG        70.6900    3.2790   29.7850 C.3    64  LYS64       0.0035
     13  CD        71.1030    4.4470   28.8810 C.3    64  LYS64       0.0206
     14  CE        71.8660    5.5360   29.6120 C.3    64  LYS64       0.1093
     15  NZ        73.2010    5.1300   30.1720 N.3    64  LYS64      -0.1314
     16  N         74.5460   14.4610   30.6420 N.3   116  LEU116     -0.1231
     17  CA        74.9970   13.1040   30.4690 C.3   116  LEU116      0.1693
     18  C         75.2260   12.3970   31.8110 C.2   116  LEU116      0.2591
     19  O         74.7590   11.2740   32.0210 O.2   116  LEU116     -0.2718
     20  CB        76.2900   13.0810   29.6120 C.3   116  LEU116      0.0284
     21  CG        76.9400   11.7110   29.4310 C.3   116  LEU116      0.0019
     22  CD1       76.0060   10.7680   28.6970 C.3   116  LEU116      0.0001
     23  CD2       78.2510   11.8350   28.6620 C.3   116  LEU116      0.0001
     24  N         75.9840   13.0280   32.7000 N.am  117  GLN117     -0.1979
     25  CA        76.2950   12.4640   33.9950 C.3   117  GLN117      0.1601
     26  C         75.6530   13.2800   35.0800 C.2   117  GLN117      0.2287
     27  O         75.5960   14.5100   34.9670 O.2   117  GLN117     -0.2864
     28  CB        77.7910   12.5800   34.2530 C.3   117  GLN117      0.0394
     29  CG        78.6550   12.1240   33.1130 C.3   117  GLN117      0.0908
     30  CD        78.4380   10.6690   32.8300 C.2   117  GLN117      0.2608
     31  OE1       77.8190    9.9660   33.6290 O.2   117  GLN117     -0.2717
     32  NE2       78.9210   10.2030   31.6920 N.am  117  GLN117     -0.0878
     33  N         71.1750   12.4360   24.9610 N.3   147  TYR147     -0.1241
     34  CA        71.4300   11.2050   25.6980 C.3   147  TYR147      0.1605
     35  C         71.9910   11.4990   27.0740 C.2   147  TYR147      0.2264
     36  O         72.9350   12.2630   27.2250 O.2   147  TYR147     -0.2867
     37  CB        72.3970   10.3620   24.8820 C.3   147  TYR147      0.0534
     38  CG        72.7580    9.0470   25.4540 C.ar  147  TYR147     -0.0201
     39  CD1       73.9480    8.8780   26.1340 C.ar  147  TYR147     -0.0009
     40  CD2       71.9270    7.9380   25.3020 C.ar  147  TYR147     -0.0009
     41  CE1       74.3100    7.6440   26.6320 C.ar  147  TYR147      0.0417
     42  CE2       72.2850    6.7130   25.7980 C.ar  147  TYR147      0.0417
     43  CZ        73.4900    6.5630   26.4490 C.ar  147  TYR147      0.1957
     44  OH        73.8750    5.3440   26.9080 O.3   147  TYR147     -0.2866
     45  N         72.3800    9.9380   31.3340 N.3   149  ASN149     -0.1240
     46  CA        72.1700    9.0830   32.4990 C.3   149  ASN149      0.1653
     47  C         71.2370    9.7400   33.5130 C.2   149  ASN149      0.2266
     48  O         70.4620    9.0460   34.1750 O.2   149  ASN149     -0.2867
     49  CB        73.5020    8.8010   33.2130 C.3   149  ASN149      0.1155
     50  CG        74.4400    7.9580   32.3900 C.2   149  ASN149      0.2627
     51  OD1       74.0160    7.2000   31.5180 O.2   149  ASN149     -0.2716
     52  ND2       75.7450    8.0690   32.6770 N.am  149  ASN149     -0.0877
     53  N         91.6880   -0.6910   31.4970 N.3   201  ARG201     -0.1245
     54  CA        91.7800    0.6830   31.0430 C.3   201  ARG201      0.1563
     55  C         93.2050    1.1490   31.2650 C.2   201  ARG201      0.2260
     56  O         93.6910    1.1600   32.3940 O.2   201  ARG201     -0.2867
     57  CB        90.8100    1.5690   31.8320 C.3   201  ARG201      0.0307
     58  CG        90.7790    3.0000   31.3520 C.3   201  ARG201      0.0489
     59  CD        89.9140    3.8510   32.2470 C.3   201  ARG201      0.2205
     60  NE        89.9080    5.2400   31.8090 N.pl3 201  ARG201     -0.0865
     61  CZ        90.8650    6.1170   32.1040 C.cat 201  ARG201      0.5346
     62  NH1       91.9100    5.7400   32.8320 N.pl3 201  ARG201      0.1354
     63  NH2       90.7830    7.3680   31.6640 N.pl3 201  ARG201      0.1354
     64  N         87.0530   -2.0040   37.8530 N.3   207  HIS207     -0.1226
     65  CA        85.6300   -2.2930   37.8720 C.3   207  HIS207      0.1752
     66  C         84.9240   -0.9520   37.9580 C.2   207  HIS207      0.2596
     67  O         85.5170    0.0440   38.3540 O.2   207  HIS207     -0.2718
     68  CB        85.2930   -3.1930   39.0600 C.3   207  HIS207      0.0759
     69  CG        85.4890   -4.6550   38.7910 C.ar  207  HIS207      0.0818
     70  ND1       85.7180   -5.5710   39.7960 N.ar  207  HIS207     -0.2268
     71  CD2       85.5020   -5.3570   37.6310 C.ar  207  HIS207      0.1154
     72  CE1       85.8500   -6.7760   39.2670 C.ar  207  HIS207      0.1986
     73  NE2       85.7090   -6.6750   37.9560 N.ar  207  HIS207     -0.2212
     74  N         83.6490   -0.9210   37.5970 N.am  208  VAL208     -0.1966
     75  CA        82.8690    0.3030   37.6330 C.3   208  VAL208      0.1727
     76  C         82.8080    0.8930   39.0520 C.2   208  VAL208      0.2616
     77  O         82.6990    0.1560   40.0440 O.2   208  VAL208     -0.2715
     78  CB        81.4360    0.0310   37.0930 C.3   208  VAL208      0.0290
     79  CG1       80.6730   -0.9100   38.0170 C.3   208  VAL208      0.0023
     80  CG2       80.6920    1.3260   36.8530 C.3   208  VAL208      0.0023
     81  N         82.8960    2.2200   39.1460 N.am  209  SER209     -0.1950
     82  CA        82.8400    2.9380   40.4210 C.3   209  SER209      0.1924
     83  C         81.3990    3.2770   40.8060 C.2   209  SER209      0.2314
     84  O         80.5520    3.4860   39.9310 O.2   209  SER209     -0.2863
     85  CB        83.6330    4.2460   40.3330 C.3   209  SER209      0.2116
     86  OG        84.9820    4.0440   39.9380 O.3   209  SER209     -0.2180
     87  N         73.5950    2.3960   34.1880 N.3   218  TYR218     -0.1241
     88  CA        74.7310    1.6610   33.6090 C.3   218  TYR218      0.1605
     89  C         75.2750    0.5280   34.4570 C.2   218  TYR218      0.2264
     90  O         76.4180    0.1170   34.2750 O.2   218  TYR218     -0.2867
     91  CB        75.8890    2.6230   33.2410 C.3   218  TYR218      0.0534
     92  CG        76.3690    3.5170   34.3690 C.ar  218  TYR218     -0.0201
     93  CD1       77.2720    3.0530   35.3170 C.ar  218  TYR218     -0.0009
     94  CD2       75.9500    4.8420   34.4520 C.ar  218  TYR218     -0.0009
     95  CE1       77.7200    3.8730   36.3520 C.ar  218  TYR218      0.0417
     96  CE2       76.3800    5.6750   35.4750 C.ar  218  TYR218      0.0417
     97  CZ        77.2730    5.1860   36.4260 C.ar  218  TYR218      0.1957
     98  OH        77.7110    5.9970   37.4410 O.3   218  TYR218     -0.2866
     99  N         76.1950   11.5140   21.5220 N.3   290  LEU290     -0.1245
    100  CA        76.0760   12.3330   22.7400 C.3   290  LEU290      0.1561
    101  C         75.6280   13.7600   22.4500 C.2   290  LEU290      0.2260
    102  O         75.4780   14.5590   23.3780 O.2   290  LEU290     -0.2867
    103  CB        77.4030   12.3550   23.5220 C.3   290  LEU290      0.0270
    104  CG        77.9080   10.9710   23.9110 C.3   290  LEU290      0.0019
    105  CD1       79.2210   11.0730   24.6880 C.3   290  LEU290      0.0001
    106  CD2       76.8570   10.2200   24.7170 C.3   290  LEU290      0.0001
    107  N         79.2210    1.2480   27.5910 N.3   315  ALA315     -0.1231
    108  CA        80.6170    1.2530   28.0390 C.3   315  ALA315      0.1694
    109  C         80.7080    1.5910   29.5090 C.2   315  ALA315      0.2593
    110  O         79.8810    2.3170   30.0540 O.2   315  ALA315     -0.2718
    111  CB        81.4250    2.2450   27.2360 C.3   315  ALA315      0.0304
    112  N         81.7210    1.0350   30.1510 N.am  316  THR316     -0.1939
    113  CA        82.1970    1.5610   31.4180 C.3   316  THR316      0.2028
    114  C         83.6720    1.8520   31.1950 C.2   316  THR316      0.2642
    115  O         84.1720    1.6810   30.0900 O.2   316  THR316     -0.2714
    116  CB        82.0270    0.5880   32.6040 C.3   316  THR316      0.1808
    117  OG1       82.7260   -0.6340   32.3310 O.3   316  THR316     -0.2208
    118  CG2       80.5310    0.2970   32.8570 C.3   316  THR316      0.0379
    119  N         84.3830    2.2760   32.2310 N.am  317  GLY317     -0.1954
    120  CA        85.7900    2.5640   32.0460 C.3   317  GLY317      0.1869
    121  C         86.5920    1.4140   31.4640 C.2   317  GLY317      0.2309
    122  O         87.5040    1.6350   30.6580 O.2   317  GLY317     -0.2863
    123  N         87.0160   -0.9320   26.8110 N.3   340  ASN340     -0.1240
    124  CA        86.1680    0.0580   26.1290 C.3   340  ASN340      0.1653
    125  C         86.7820    0.5560   24.8160 C.2   340  ASN340      0.2266
    126  O         87.5610    1.5210   24.7830 O.2   340  ASN340     -0.2867
    127  CB        85.9030    1.2300   27.0640 C.3   340  ASN340      0.1155
    128  CG        85.0700    2.3160   26.4280 C.2   340  ASN340      0.2627
    129  OD1       84.3710    2.0940   25.4490 O.2   340  ASN340     -0.2716
    130  ND2       85.1390    3.5100   26.9920 N.am  340  ASN340     -0.0877
@<TRIPOS>BOND
     1    99   100    1
     2   101   100    1
     3   101   102    2
     4   100   103    1
     5   103   104    1
     6   104   105    1
     7   104   106    1
     8   126   125    2
     9   125   124    1
    10    37    38    1
    11    37    34    1
    12    33    34    1
    13    40    38   ar
    14    40    42   ar
    15   129   128    2
    16    38    39   ar
    17    34    35    1
    18    42    43   ar
    19   124   123    1
    20   124   127    1
    21    39    41   ar
    22   128   130   am
    23   128   127    1
    24    43    41   ar
    25    43    44    1
    26    35    36    2
    27   111   108    1
    28   107   108    1
    29   108   109    1
    30     4     3    2
    31     5     6    1
    32     5     2    1
    33     3     2    1
    34    23    21    1
    35    22    21    1
    36    13    14    1
    37    13    12    1
    38    11    12    1
    39    11     8    1
    40     2     1    1
    41     9    10    2
    42     9     8    1
    43    21    20    1
    44   109   110    2
    45   109   112   am
    46    20    17    1
    47    14    15    1
    48     8     7    1
    49   115   114    2
    50   112   113    1
    51    17    16    1
    52    17    18    1
    53   122   121    2
    54    54    55    1
    55    54    53    1
    56    54    57    1
    57   114   113    1
    58   114   119   am
    59    55    56    2
    60    45    46    1
    61    58    57    1
    62    58    59    1
    63   113   116    1
    64   121   120    1
    65    51    50    2
    66    63    61    1
    67    32    30   am
    68    60    61    2
    69    60    59    1
    70    18    19    2
    71    18    24   am
    72   120   119    1
    73    61    62    1
    74   117   116    1
    75    50    52   am
    76    50    49    1
    77    46    49    1
    78    46    47    1
    79   116   118    1
    80    24    25    1
    81    30    29    1
    82    30    31    2
    83    29    28    1
    84    91    88    1
    85    91    92    1
    86    47    48    2
    87    88    87    1
    88    88    89    1
    89    25    28    1
    90    25    26    1
    91    90    89    2
    92    92    94   ar
    93    92    93   ar
    94    94    96   ar
    95    27    26    2
    96    93    95   ar
    97    96    97   ar
    98    95    97   ar
    99    97    98    1
   100    80    78    1
   101    78    75    1
   102    78    79    1
   103    74    75    1
   104    74    66   am
   105    71    73   ar
   106    71    69   ar
   107    75    76    1
   108    64    65    1
   109    65    66    1
   110    65    68    1
   111    73    72   ar
   112    66    67    2
   113    69    68    1
   114    69    70   ar
   115    76    81   am
   116    76    77    2
   117    81    82    1
   118    72    70   ar
   119    84    83    2
   120    86    85    1
   121    85    82    1
   122    82    83    1
