@<TRIPOS>MOLECULE
tmp/4e3mB01.pdb
 119 112 0 0 0
SMALL
GASTEIGER

@<TRIPOS>ATOM
      1  N         76.2990    1.1950   29.4480 N.3    61  SER61      -0.1217
      2  CA        74.9650    1.6910   29.0870 C.3    61  SER61       0.1889
      3  C         74.0430    0.6930   28.3710 C.2    61  SER61       0.2288
      4  O         72.8770    1.0100   28.1140 O.2    61  SER61      -0.2866
      5  CB        75.0620    2.9690   28.2640 C.3    61  SER61       0.2089
      6  OG        75.6700    3.9760   29.0510 O.3    61  SER61      -0.2183
      7  N         70.9090    0.3390   30.0880 N.3    64  LYS64      -0.1245
      8  CA        69.7310    1.1820   29.8240 C.3    64  LYS64       0.1561
      9  C         68.5910    0.3880   29.1920 C.2    64  LYS64       0.2260
     10  O         67.4190    0.7500   29.3310 O.2    64  LYS64      -0.2867
     11  CB        70.1000    2.4050   28.9560 C.3    64  LYS64       0.0271
     12  CG        70.9850    3.4090   29.7180 C.3    64  LYS64       0.0035
     13  CD        71.4170    4.5270   28.7600 C.3    64  LYS64       0.0206
     14  CE        72.1540    5.6380   29.4730 C.3    64  LYS64       0.1093
     15  NZ        73.4480    5.2450   30.1020 N.3    64  LYS64      -0.1314
     16  N         74.8800   14.4350   30.5820 N.3   116  LEU116     -0.1231
     17  CA        75.3230   13.0600   30.4300 C.3   116  LEU116      0.1693
     18  C         75.5390   12.3720   31.7750 C.2   116  LEU116      0.2591
     19  O         75.0060   11.2800   32.0040 O.2   116  LEU116     -0.2718
     20  CB        76.6060   13.0060   29.5820 C.3   116  LEU116      0.0284
     21  CG        77.2370   11.6310   29.4070 C.3   116  LEU116      0.0019
     22  CD1       76.2770   10.7190   28.6930 C.3   116  LEU116      0.0001
     23  CD2       78.5190   11.7560   28.5870 C.3   116  LEU116      0.0001
     24  N         76.3220   12.9950   32.6570 N.am  117  GLN117     -0.1979
     25  CA        76.5700   12.4260   33.9670 C.3   117  GLN117      0.1601
     26  C         76.0130   13.3470   35.0280 C.2   117  GLN117      0.2287
     27  O         76.0030   14.5700   34.8750 O.2   117  GLN117     -0.2864
     28  CB        78.0650   12.2100   34.2290 C.3   117  GLN117      0.0394
     29  CG        78.5990   10.8470   33.7410 C.3   117  GLN117      0.0908
     30  CD        78.1140    9.6980   34.6250 C.2   117  GLN117      0.2608
     31  OE1       76.9190    9.4040   34.6740 O.2   117  GLN117     -0.2717
     32  NE2       79.0370    9.0610   35.3370 N.am  117  GLN117     -0.0878
     33  N         71.4940   12.4870   24.9200 N.3   147  TYR147     -0.1241
     34  CA        71.7640   11.2480   25.6480 C.3   147  TYR147      0.1605
     35  C         72.3270   11.5280   27.0230 C.2   147  TYR147      0.2264
     36  O         73.2680   12.2750   27.1720 O.2   147  TYR147     -0.2867
     37  CB        72.7260   10.4110   24.8340 C.3   147  TYR147      0.0534
     38  CG        73.0960    9.0890   25.3980 C.ar  147  TYR147     -0.0201
     39  CD1       74.2790    8.9240   26.0940 C.ar  147  TYR147     -0.0009
     40  CD2       72.2720    7.9710   25.2160 C.ar  147  TYR147     -0.0009
     41  CE1       74.6590    7.6900   26.5660 C.ar  147  TYR147      0.0417
     42  CE2       72.6390    6.7430   25.6890 C.ar  147  TYR147      0.0417
     43  CZ        73.8330    6.6070   26.3650 C.ar  147  TYR147      0.1957
     44  OH        74.2110    5.3860   26.8210 O.3   147  TYR147     -0.2866
     45  N         72.6620   10.0190   31.2960 N.3   149  ASN149     -0.1240
     46  CA        72.4270    9.1900   32.4710 C.3   149  ASN149      0.1653
     47  C         71.5010    9.8450   33.4800 C.2   149  ASN149      0.2266
     48  O         70.7220    9.1530   34.1620 O.2   149  ASN149     -0.2867
     49  CB        73.7460    8.8540   33.1800 C.3   149  ASN149      0.1155
     50  CG        74.6980    8.0450   32.3090 C.2   149  ASN149      0.2627
     51  OD1       74.2760    7.3230   31.3940 O.2   149  ASN149     -0.2716
     52  ND2       75.9930    8.1610   32.5930 N.am  149  ASN149     -0.0877
     53  N         87.4540   -1.7570   37.6900 N.3   207  HIS207     -0.1226
     54  CA        86.0290   -2.0040   37.7000 C.3   207  HIS207      0.1752
     55  C         85.3280   -0.6550   37.8070 C.2   207  HIS207      0.2596
     56  O         85.9280    0.3360   38.2320 O.2   207  HIS207     -0.2718
     57  CB        85.6360   -2.9000   38.8790 C.3   207  HIS207      0.0759
     58  CG        85.8840   -4.3570   38.6440 C.ar  207  HIS207      0.0818
     59  ND1       86.1750   -5.2320   39.6680 N.ar  207  HIS207     -0.2268
     60  CD2       85.8770   -5.0930   37.5080 C.ar  207  HIS207      0.1154
     61  CE1       86.3440   -6.4450   39.1700 C.ar  207  HIS207      0.1986
     62  NE2       86.1580   -6.3880   37.8640 N.ar  207  HIS207     -0.2212
     63  N         84.0590   -0.6220   37.4200 N.am  208  VAL208     -0.1966
     64  CA        83.2420    0.5840   37.4710 C.3   208  VAL208      0.1727
     65  C         83.2120    1.1800   38.8800 C.2   208  VAL208      0.2616
     66  O         83.1740    0.4420   39.8780 O.2   208  VAL208     -0.2715
     67  CB        81.8050    0.2610   36.9820 C.3   208  VAL208      0.0290
     68  CG1       81.0810   -0.7000   37.9280 C.3   208  VAL208      0.0023
     69  CG2       81.0150    1.5030   36.7370 C.3   208  VAL208      0.0023
     70  N         83.2450    2.5090   38.9570 N.am  209  SER209     -0.1950
     71  CA        83.2260    3.2180   40.2370 C.3   209  SER209      0.1924
     72  C         81.7910    3.5170   40.6490 C.2   209  SER209      0.2314
     73  O         80.9150    3.6350   39.7990 O.2   209  SER209     -0.2863
     74  CB        84.0010    4.5360   40.1360 C.3   209  SER209      0.2116
     75  OG        85.3450    4.3240   39.7360 O.3   209  SER209     -0.2180
     76  N         73.9720    2.5160   34.0990 N.3   218  TYR218     -0.1241
     77  CA        75.1280    1.8060   33.5120 C.3   218  TYR218      0.1605
     78  C         75.6980    0.6970   34.3710 C.2   218  TYR218      0.2264
     79  O         76.8420    0.2820   34.1620 O.2   218  TYR218     -0.2867
     80  CB        76.2540    2.7890   33.1080 C.3   218  TYR218      0.0534
     81  CG        76.7500    3.6880   34.2150 C.ar  218  TYR218     -0.0201
     82  CD1       77.6890    3.2450   35.1300 C.ar  218  TYR218     -0.0009
     83  CD2       76.2840    4.9900   34.3290 C.ar  218  TYR218     -0.0009
     84  CE1       78.1520    4.0780   36.1360 C.ar  218  TYR218      0.0417
     85  CE2       76.7300    5.8410   35.3370 C.ar  218  TYR218      0.0417
     86  CZ        77.6620    5.3710   36.2410 C.ar  218  TYR218      0.1957
     87  OH        78.1170    6.2070   37.2320 O.3   218  TYR218     -0.2866
     88  N         76.5030   11.5330   21.4890 N.3   290  LEU290     -0.1245
     89  CA        76.3720   12.3310   22.7140 C.3   290  LEU290      0.1561
     90  C         75.9540   13.7730   22.4340 C.2   290  LEU290      0.2260
     91  O         75.8310   14.5880   23.3640 O.2   290  LEU290     -0.2867
     92  CB        77.6750   12.3260   23.5340 C.3   290  LEU290      0.0270
     93  CG        78.2090   10.9590   23.9430 C.3   290  LEU290      0.0019
     94  CD1       79.5070   11.0800   24.7510 C.3   290  LEU290      0.0001
     95  CD2       77.1270   10.2310   24.7300 C.3   290  LEU290      0.0001
     96  N         79.4840    1.3810   27.5500 N.3   315  ALA315     -0.1231
     97  CA        80.8760    1.5020   27.9830 C.3   315  ALA315      0.1694
     98  C         80.9650    1.7680   29.4760 C.2   315  ALA315      0.2593
     99  O         80.1410    2.4690   30.0550 O.2   315  ALA315     -0.2718
    100  CB        81.5920    2.6220   27.2370 C.3   315  ALA315      0.0304
    101  N         81.9930    1.2120   30.0870 N.am  316  THR316     -0.1939
    102  CA        82.5000    1.7450   31.3450 C.3   316  THR316      0.2028
    103  C         83.9810    2.0000   31.1080 C.2   316  THR316      0.2642
    104  O         84.4860    1.7480   30.0090 O.2   316  THR316     -0.2714
    105  CB        82.3480    0.7540   32.5020 C.3   316  THR316      0.1808
    106  OG1       83.0700   -0.4540   32.1800 O.3   316  THR316     -0.2208
    107  CG2       80.8470    0.4630   32.7860 C.3   316  THR316      0.0379
    108  N         84.7010    2.4740   32.1200 N.am  317  GLY317     -0.1954
    109  CA        86.1010    2.7730   31.9050 C.3   317  GLY317      0.1869
    110  C         86.8940    1.6110   31.3280 C.2   317  GLY317      0.2309
    111  O         87.7850    1.8060   30.4980 O.2   317  GLY317     -0.2863
    112  N         87.2650   -0.7350   26.7080 N.3   340  ASN340     -0.1240
    113  CA        86.3910    0.2370   26.0520 C.3   340  ASN340      0.1653
    114  C         86.9720    0.7450   24.7320 C.2   340  ASN340      0.2266
    115  O         87.6280    1.7900   24.6870 O.2   340  ASN340     -0.2867
    116  CB        86.1590    1.4170   26.9900 C.3   340  ASN340      0.1155
    117  CG        85.2440    2.4720   26.4080 C.2   340  ASN340      0.2627
    118  OD1       84.5570    2.2600   25.4070 O.2   340  ASN340     -0.2716
    119  ND2       85.2250    3.6290   27.0490 N.am  340  ASN340     -0.0877
@<TRIPOS>BOND
     1    88    89    1
     2    90    89    1
     3    90    91    2
     4    89    92    1
     5    92    93    1
     6    93    95    1
     7    93    94    1
     8   115   114    2
     9   114   113    1
    10    37    38    1
    11    37    34    1
    12    33    34    1
    13    40    38   ar
    14    40    42   ar
    15    38    39   ar
    16   118   117    2
    17    34    35    1
    18    42    43   ar
    19   113   112    1
    20   113   116    1
    21    39    41   ar
    22    43    41   ar
    23    43    44    1
    24   117   116    1
    25   117   119   am
    26    35    36    2
    27   100    97    1
    28    96    97    1
    29    97    98    1
    30     4     3    2
    31     5     6    1
    32     5     2    1
    33     3     2    1
    34    23    21    1
    35    22    21    1
    36    13    14    1
    37    13    12    1
    38    11    12    1
    39    11     8    1
    40     2     1    1
    41     9    10    2
    42     9     8    1
    43    21    20    1
    44    14    15    1
    45    98    99    2
    46    98   101   am
    47    20    17    1
    48     8     7    1
    49   104   103    2
    50   101   102    1
    51    17    16    1
    52    17    18    1
    53   111   110    2
    54   103   102    1
    55   103   108   am
    56    45    46    1
    57   110   109    1
    58   102   105    1
    59    51    50    2
    60    18    19    2
    61    18    24   am
    62   109   108    1
    63   106   105    1
    64    50    52   am
    65    50    49    1
    66    46    49    1
    67    46    47    1
    68   105   107    1
    69    24    25    1
    70    80    77    1
    71    80    81    1
    72    47    48    2
    73    77    76    1
    74    77    78    1
    75    29    28    1
    76    29    30    1
    77    25    28    1
    78    25    26    1
    79    79    78    2
    80    81    83   ar
    81    81    82   ar
    82    83    85   ar
    83    30    31    2
    84    30    32   am
    85    27    26    2
    86    82    84   ar
    87    85    86   ar
    88    84    86   ar
    89    86    87    1
    90    69    67    1
    91    67    64    1
    92    67    68    1
    93    63    64    1
    94    63    55   am
    95    64    65    1
    96    60    62   ar
    97    60    58   ar
    98    53    54    1
    99    54    55    1
   100    54    57    1
   101    55    56    2
   102    62    61   ar
   103    58    57    1
   104    58    59   ar
   105    65    70   am
   106    65    66    2
   107    70    71    1
   108    61    59   ar
   109    75    74    1
   110    73    72    2
   111    74    71    1
   112    71    72    1
