@<TRIPOS>MOLECULE
tmp/4e3nA00.pdb
 134 126 0 0 0
SMALL
GASTEIGER

@<TRIPOS>ATOM
      1  N         26.2410    1.4200   15.9900 N.3    61  SER61      -0.1217
      2  CA        27.6100    1.8650   16.2860 C.3    61  SER61       0.1889
      3  C         28.4540    0.9660   17.1690 C.2    61  SER61       0.2288
      4  O         29.6560    1.2250   17.3500 O.2    61  SER61      -0.2866
      5  CB        27.6260    3.2900   16.8620 C.3    61  SER61       0.2089
      6  OG        27.1660    4.1710   15.8590 O.3    61  SER61      -0.2183
      7  N         31.5520    0.0300   15.4990 N.3    64  LYS64      -0.1245
      8  CA        32.7980    0.8180   15.5830 C.3    64  LYS64       0.1561
      9  C         33.8640    0.0870   16.3880 C.2    64  LYS64       0.2260
     10  O         35.0590    0.3420   16.1830 O.2    64  LYS64      -0.2867
     11  CB        32.5580    2.2080   16.1960 C.3    64  LYS64       0.0271
     12  CG        31.7010    3.1220   15.3050 C.3    64  LYS64       0.0035
     13  CD        31.3860    4.4400   16.0120 C.3    64  LYS64       0.0206
     14  CE        30.7430    5.4370   15.0660 C.3    64  LYS64       0.1093
     15  NZ        29.3420    5.0160   14.6030 N.3    64  LYS64      -0.1314
     16  N         28.7090   14.1200   12.3190 N.3   116  LEU116     -0.1231
     17  CA        28.1890   12.8320   12.7570 C.3   116  LEU116      0.1693
     18  C         27.8910   11.9270   11.5730 C.2   116  LEU116      0.2591
     19  O         28.2930   10.7590   11.5550 O.2   116  LEU116     -0.2718
     20  CB        26.9190   13.0300   13.5960 C.3   116  LEU116      0.0284
     21  CG        26.2150   11.7500   14.0450 C.3   116  LEU116      0.0019
     22  CD1       27.1440   10.9200   14.8990 C.3   116  LEU116      0.0001
     23  CD2       24.9160   12.0950   14.7990 C.3   116  LEU116      0.0001
     24  N         27.1740   12.4480   10.5860 N.am  117  GLN117     -0.1979
     25  CA        26.8030   11.6590    9.4250 C.3   117  GLN117      0.1601
     26  C         27.4410   12.1680    8.1290 C.2   117  GLN117      0.2287
     27  O         27.6120   13.3800    7.9310 O.2   117  GLN117     -0.2864
     28  CB        25.2660   11.5970    9.3000 C.3   117  GLN117      0.0394
     29  CG        24.5880   10.9240   10.5250 C.3   117  GLN117      0.0908
     30  CD        23.0920   10.6500   10.3610 C.2   117  GLN117      0.2608
     31  OE1       22.2530   11.3480   10.9430 O.2   117  GLN117     -0.2717
     32  NE2       22.7540    9.6190    9.5930 N.am  117  GLN117     -0.0878
     33  N         31.9090   13.0500   18.1880 N.3   147  TYR147     -0.1241
     34  CA        31.5850   11.7130   17.7310 C.3   147  TYR147      0.1605
     35  C         31.0570   11.7560   16.3080 C.2   147  TYR147      0.2264
     36  O         30.1720   12.5610   15.9980 O.2   147  TYR147     -0.2867
     37  CB        30.4910   11.1900   18.6500 C.3   147  TYR147      0.0534
     38  CG        30.0510    9.7790   18.3830 C.ar  147  TYR147     -0.0201
     39  CD1       28.8100    9.5140   17.8040 C.ar  147  TYR147     -0.0009
     40  CD2       30.8380    8.7050   18.7790 C.ar  147  TYR147     -0.0009
     41  CE1       28.3690    8.2240   17.6010 C.ar  147  TYR147      0.0417
     42  CE2       30.4060    7.3770   18.5900 C.ar  147  TYR147      0.0417
     43  CZ        29.1530    7.1490   17.9850 C.ar  147  TYR147      0.1957
     44  OH        28.7050    5.8670   17.8160 O.3   147  TYR147     -0.2866
     45  N         30.4870    9.4200   12.4550 N.3   149  ASN149     -0.1240
     46  CA        30.6340    8.3150   11.5140 C.3   149  ASN149      0.1653
     47  C         31.5870    8.6760   10.3900 C.2   149  ASN149      0.2266
     48  O         32.2910    7.8250    9.8590 O.2   149  ASN149     -0.2867
     49  CB        29.3070    7.9780   10.8470 C.3   149  ASN149      0.1155
     50  CG        28.2880    7.4970   11.8200 C.2   149  ASN149      0.2627
     51  OD1       28.6390    6.9060   12.8240 O.2   149  ASN149     -0.2716
     52  ND2       27.0010    7.7710   11.5410 N.am  149  ASN149     -0.0877
     53  N         10.3820    0.9900   14.5470 N.3   201  ARG201     -0.1245
     54  CA        10.4590    2.4340   14.7310 C.3   201  ARG201      0.1563
     55  C          9.0660    2.9750   14.4940 C.2   201  ARG201      0.2260
     56  O          8.5110    2.7870   13.4130 O.2   201  ARG201     -0.2867
     57  CB        11.4390    3.0620   13.7390 C.3   201  ARG201      0.0307
     58  CG        11.5990    4.5710   13.8900 C.3   201  ARG201      0.0489
     59  CD        12.5800    5.1350   12.8830 C.3   201  ARG201      0.2205
     60  NE        12.0890    5.0120   11.5150 N.pl3 201  ARG201     -0.0865
     61  CZ        12.8370    5.1900   10.4250 C.cat 201  ARG201      0.5346
     62  NH1       14.1220    5.4930   10.5260 N.pl3 201  ARG201      0.1354
     63  NH2       12.2930    5.0810    9.2250 N.pl3 201  ARG201      0.1354
     64  N         14.6460   -2.0090    8.4910 N.3   207  HIS207     -0.1226
     65  CA        16.0530   -2.4040    8.5060 C.3   207  HIS207      0.1752
     66  C         16.9160   -1.2220    8.1290 C.2   207  HIS207      0.2596
     67  O         16.4520   -0.2670    7.5100 O.2   207  HIS207     -0.2718
     68  CB        16.3240   -3.5600    7.5280 C.3   207  HIS207      0.0759
     69  CG        15.9140   -4.8940    8.0600 C.ar  207  HIS207      0.0818
     70  ND1       15.4940   -5.9220    7.2440 N.ar  207  HIS207     -0.2268
     71  CD2       15.8960   -5.3850    9.3210 C.ar  207  HIS207      0.1154
     72  CE1       15.2190   -6.9850    7.9830 C.ar  207  HIS207      0.1986
     73  NE2       15.4620   -6.6860    9.2440 N.ar  207  HIS207     -0.2212
     74  N         18.1870   -1.2950    8.5000 N.am  208  VAL208     -0.1966
     75  CA        19.0980   -0.1960    8.2040 C.3   208  VAL208      0.1727
     76  C         19.1180    0.1030    6.7080 C.2   208  VAL208      0.2616
     77  O         19.0480   -0.8120    5.8650 O.2   208  VAL208     -0.2715
     78  CB        20.5300   -0.5430    8.7760 C.3   208  VAL208      0.0290
     79  CG1       21.1530   -1.7290    8.0280 C.3   208  VAL208      0.0023
     80  CG2       21.4530    0.6780    8.8210 C.3   208  VAL208      0.0023
     81  N         19.2390    1.3870    6.3580 N.am  209  SER209     -0.1950
     82  CA        19.3440    1.7990    4.9610 C.3   209  SER209      0.1924
     83  C         20.8060    1.8950    4.5280 C.2   209  SER209      0.2314
     84  O         21.6810    2.2390    5.3320 O.2   209  SER209     -0.2863
     85  CB        18.6970    3.1680    4.7800 C.3   209  SER209      0.2116
     86  OG        17.2890    3.0980    4.9850 O.3   209  SER209     -0.2180
     87  N         28.5390    1.6600   11.2000 N.3   218  TYR218     -0.1241
     88  CA        27.3430    1.1790   11.9300 C.3   218  TYR218      0.1605
     89  C         26.6870   -0.0340   11.2900 C.2   218  TYR218      0.2264
     90  O         25.5080   -0.2940   11.5400 O.2   218  TYR218     -0.2867
     91  CB        26.2830    2.3140   12.0660 C.3   218  TYR218      0.0534
     92  CG        25.8710    2.9940   10.7570 C.ar  218  TYR218     -0.0201
     93  CD1       24.8730    2.4540    9.9590 C.ar  218  TYR218     -0.0009
     94  CD2       26.4320    4.2070   10.3670 C.ar  218  TYR218     -0.0009
     95  CE1       24.4780    3.0660    8.7830 C.ar  218  TYR218      0.0417
     96  CE2       26.0420    4.8280    9.2070 C.ar  218  TYR218      0.0417
     97  CZ        25.0550    4.2550    8.4100 C.ar  218  TYR218      0.1957
     98  OH        24.6320    4.8920    7.2550 O.3   218  TYR218     -0.2866
     99  N         27.2450   13.0510   22.1420 N.3   290  LEU290     -0.1245
    100  CA        27.3250   13.5420   20.7650 C.3   290  LEU290      0.1561
    101  C         27.8130   15.0030   20.6850 C.2   290  LEU290      0.2260
    102  O         27.9840   15.5340   19.5840 O.2   290  LEU290     -0.2867
    103  CB        25.9550   13.4100   20.0650 C.3   290  LEU290      0.0270
    104  CG        25.3460   12.0100   19.9650 C.3   290  LEU290      0.0019
    105  CD1       24.0380   12.0410   19.1650 C.3   290  LEU290      0.0001
    106  CD2       26.3240   11.0060   19.3820 C.3   290  LEU290      0.0001
    107  N         23.1030    2.2870   17.8710 N.3   315  ALA315     -0.1231
    108  CA        21.7210    2.3790   17.4290 C.3   315  ALA315      0.1694
    109  C         21.6090    2.3940   15.9180 C.2   315  ALA315      0.2593
    110  O         22.4640    2.9600   15.2260 O.2   315  ALA315     -0.2718
    111  CB        21.0760    3.6410   17.9990 C.3   315  ALA315      0.0304
    112  N         20.4940    1.8570   15.4150 N.am  316  THR316     -0.1939
    113  CA        20.0390    2.1660   14.0620 C.3   316  THR316      0.2028
    114  C         18.5970    2.6060   14.2560 C.2   316  THR316      0.2643
    115  O         18.0990    2.6090   15.3950 O.2   316  THR316     -0.2714
    116  CB        20.1090    0.9690   13.1130 C.3   316  THR316      0.1808
    117  OG1       19.3100   -0.0910   13.6400 O.3   316  THR316     -0.2208
    118  CG2       21.5430    0.4560   12.9630 C.3   316  THR316      0.0379
    119  N         17.9140    2.9790   13.1820 N.am  317  GLY317     -0.1939
    120  CA        16.5520    3.4820   13.3400 C.3   317  GLY317      0.2014
    121  C         15.6700    2.5080   14.1060 C.2   317  GLY317      0.2639
    122  O         14.7990    2.9320   14.8610 O.2   317  GLY317     -0.2714
    123  N         15.8940    1.2150   13.9130 N.am  318  GLY318     -0.1954
    124  CA        15.0870    0.1930   14.5420 C.3   318  GLY318      0.1869
    125  C         15.6700   -0.6390   15.6730 C.2   318  GLY318      0.2309
    126  O         14.9830   -1.5150   16.1980 O.2   318  GLY318     -0.2863
    127  N         15.2010    1.1660   19.1730 N.3   340  ASN340     -0.1240
    128  CA        16.2300    2.1220   19.6020 C.3   340  ASN340      0.1653
    129  C         15.7340    2.9330   20.8130 C.2   340  ASN340      0.2266
    130  O         15.1420    4.0000   20.6600 O.2   340  ASN340     -0.2867
    131  CB        16.5930    3.0370   18.4320 C.3   340  ASN340      0.1155
    132  CG        17.5850    4.1280   18.8100 C.2   340  ASN340      0.2627
    133  OD1       18.2690    4.0670   19.8610 O.2   340  ASN340     -0.2716
    134  ND2       17.6790    5.1410   17.9350 N.am  340  ASN340     -0.0877
@<TRIPOS>BOND
     1    83    82    1
     2    83    84    2
     3    85    82    1
     4    85    86    1
     5    82    81    1
     6    77    76    2
     7    81    76   am
     8    76    75    1
     9    70    72   ar
    10    70    69   ar
    11    98    97    1
    12    67    66    2
    13    68    69    1
    14    68    65    1
    15    27    26    2
    16    72    73   ar
    17    79    78    1
    18    69    71   ar
    19    26    25    1
    20    66    74   am
    21    66    65    1
    22    75    74    1
    23    75    78    1
    24    97    95   ar
    25    97    96   ar
    26    64    65    1
    27    78    80    1
    28    95    93   ar
    29    96    94   ar
    30    63    61    1
    31    73    71   ar
    32    28    25    1
    33    28    29    1
    34    25    24    1
    35    32    30   am
    36    48    47    2
    37    93    92   ar
    38    30    29    1
    39    30    31    2
    40    94    92   ar
    41    47    46    1
    42    61    62    1
    43    61    60    2
    44    24    18   am
    45    92    91    1
    46    49    46    1
    47    49    50    1
    48    87    88    1
    49    89    90    2
    50    89    88    1
    51    46    45    1
    52    60    59    1
    53    52    50   am
    54    19    18    2
    55    18    17    1
    56    50    51    2
    57    88    91    1
    58    16    17    1
    59    17    20    1
    60    59    58    1
    61   118   116    1
    62   116   117    1
    63   116   113    1
    64   119   120    1
    65   119   114   am
    66   120   121    1
    67    56    55    2
    68    20    21    1
    69    57    58    1
    70    57    54    1
    71   123   121   am
    72   123   124    1
    73    21    23    1
    74    21    22    1
    75   113   114    1
    76   113   112    1
    77   121   122    2
    78   114   115    2
    79    55    54    1
    80   124   125    1
    81    53    54    1
    82    15    14    1
    83    14    13    1
    84   110   109    2
    85    12    13    1
    86    12    11    1
    87   112   109   am
    88     7     8    1
    89     8    11    1
    90     8     9    1
    91   125   126    2
    92     6     5    1
    93   109   108    1
    94     1     2    1
    95    36    35    2
    96    10     9    2
    97     2     5    1
    98     2     3    1
    99    35    34    1
   100     3     4    2
   101   108   107    1
   102   108   111    1
   103    41    39   ar
   104    41    43   ar
   105    34    33    1
   106    34    37    1
   107    39    38   ar
   108    44    43    1
   109   134   132   am
   110    43    42   ar
   111    38    37    1
   112    38    40   ar
   113   131   132    1
   114   131   128    1
   115    42    40   ar
   116   132   133    2
   117   105   104    1
   118   127   128    1
   119   106   104    1
   120   102   101    2
   121   128   129    1
   122   104   103    1
   123   103   100    1
   124   130   129    2
   125   101   100    1
   126   100    99    1
