@<TRIPOS>MOLECULE
tmp/4e3oB00.pdb
 87 81 0 0 0
SMALL
GASTEIGER

@<TRIPOS>ATOM
      1  N         76.4100    1.1510   29.4070 N.3    61  SER61      -0.1217
      2  CA        75.0820    1.6270   29.0180 C.3    61  SER61       0.1889
      3  C         74.1610    0.6340   28.3290 C.2    61  SER61       0.2288
      4  O         73.0150    0.9580   28.0740 O.2    61  SER61      -0.2866
      5  CB        75.1870    2.8590   28.1390 C.3    61  SER61       0.2089
      6  OG        75.7350    3.8860   28.9100 O.3    61  SER61      -0.2183
      7  N         71.0510    0.3040   30.0780 N.3    64  LYS64      -0.1245
      8  CA        69.8600    1.1070   29.7890 C.3    64  LYS64       0.1561
      9  C         68.7420    0.2990   29.1360 C.2    64  LYS64       0.2260
     10  O         67.5790    0.6530   29.2940 O.2    64  LYS64      -0.2867
     11  CB        70.2080    2.3380   28.9450 C.3    64  LYS64       0.0271
     12  CG        71.0940    3.3230   29.7160 C.3    64  LYS64       0.0035
     13  CD        71.5440    4.4340   28.7750 C.3    64  LYS64       0.0206
     14  CE        72.2240    5.5850   29.5450 C.3    64  LYS64       0.1093
     15  NZ        73.5540    5.1780   30.1060 N.3    64  LYS64      -0.1314
     16  N         74.8150   14.6970   30.4370 N.3   116  LEU116     -0.1231
     17  CA        75.3490   13.3590   30.2550 C.3   116  LEU116      0.1693
     18  C         75.6560   12.6450   31.5630 C.2   116  LEU116      0.2591
     19  O         75.2180   11.5070   31.7700 O.2   116  LEU116     -0.2718
     20  CB        76.5970   13.3960   29.3620 C.3   116  LEU116      0.0284
     21  CG        77.2960   12.0630   29.0950 C.3   116  LEU116      0.0019
     22  CD1       76.3820   11.0400   28.4080 C.3   116  LEU116      0.0001
     23  CD2       78.4920   12.3350   28.1950 C.3   116  LEU116      0.0001
     24  N         76.4040   13.3060   32.4600 N.am  117  GLN117     -0.1979
     25  CA        76.6980   12.7270   33.7580 C.3   117  GLN117      0.1601
     26  C         76.0150   13.4850   34.8810 C.2   117  GLN117      0.2287
     27  O         75.8720   14.7110   34.8130 O.2   117  GLN117     -0.2864
     28  CB        78.2110   12.7630   34.0290 C.3   117  GLN117      0.0394
     29  CG        79.0720   12.0890   32.9520 C.3   117  GLN117      0.0908
     30  CD        78.8640   10.5940   32.8670 C.2   117  GLN117      0.2608
     31  OE1       78.2000    9.9830   33.7120 O.2   117  GLN117     -0.2717
     32  NE2       79.4380    9.9840   31.8420 N.am  117  GLN117     -0.0878
     33  N         71.5150   12.4730   24.7810 N.3   147  TYR147     -0.1241
     34  CA        71.8260   11.2480   25.5250 C.3   147  TYR147      0.1605
     35  C         72.3980   11.5550   26.9080 C.2   147  TYR147      0.2264
     36  O         73.3050   12.3790   27.0590 O.2   147  TYR147     -0.2867
     37  CB        72.7730   10.3990   24.6850 C.3   147  TYR147      0.0534
     38  CG        73.1670    9.0870   25.2940 C.ar  147  TYR147     -0.0201
     39  CD1       74.3380    8.9660   26.0110 C.ar  147  TYR147     -0.0009
     40  CD2       72.3660    7.9450   25.1130 C.ar  147  TYR147     -0.0009
     41  CE1       74.7080    7.7480   26.5610 C.ar  147  TYR147      0.0417
     42  CE2       72.7180    6.7410   25.6540 C.ar  147  TYR147      0.0417
     43  CZ        73.8960    6.6450   26.3560 C.ar  147  TYR147      0.1957
     44  OH        74.2600    5.4490   26.8770 O.3   147  TYR147     -0.2866
     45  N         72.8790   10.0180   31.1700 N.3   149  ASN149     -0.1240
     46  CA        72.6960    9.1640   32.3340 C.3   149  ASN149      0.1653
     47  C         71.7430    9.7920   33.3410 C.2   149  ASN149      0.2266
     48  O         70.9810    9.0710   33.9820 O.2   149  ASN149     -0.2867
     49  CB        74.0370    8.9200   33.0380 C.3   149  ASN149      0.1155
     50  CG        74.9460    7.9740   32.2770 C.2   149  ASN149      0.2627
     51  OD1       74.4950    7.1420   31.4910 O.2   149  ASN149     -0.2716
     52  ND2       76.2560    8.0920   32.5210 N.am  149  ASN149     -0.0877
     53  N         84.2100   -0.5320   37.5010 N.3   208  VAL208     -0.1245
     54  CA        83.4370    0.6980   37.5500 C.3   208  VAL208      0.1561
     55  C         83.3060    1.2000   38.9960 C.2   208  VAL208      0.2260
     56  O         83.1270    0.3990   39.9080 O.2   208  VAL208     -0.2867
     57  CB        82.0200    0.4640   36.9240 C.3   208  VAL208      0.0252
     58  CG1       81.2230   -0.5630   37.7460 C.3   208  VAL208      0.0019
     59  CG2       81.2370    1.7680   36.7890 C.3   208  VAL208      0.0019
     60  N         74.0240    2.5000   34.1660 N.3   218  TYR218     -0.1241
     61  CA        75.1850    1.8020   33.5880 C.3   218  TYR218      0.1605
     62  C         75.7320    0.6820   34.4680 C.2   218  TYR218      0.2264
     63  O         76.8700    0.2390   34.2830 O.2   218  TYR218     -0.2867
     64  CB        76.3090    2.7850   33.2290 C.3   218  TYR218      0.0534
     65  CG        76.7600    3.6620   34.3800 C.ar  218  TYR218     -0.0201
     66  CD1       77.6340    3.1850   35.3300 C.ar  218  TYR218     -0.0009
     67  CD2       76.3060    4.9640   34.4990 C.ar  218  TYR218     -0.0009
     68  CE1       78.0450    4.0000   36.3910 C.ar  218  TYR218      0.0417
     69  CE2       76.6960    5.7800   35.5450 C.ar  218  TYR218      0.0417
     70  CZ        77.5690    5.2930   36.4890 C.ar  218  TYR218      0.1957
     71  OH        77.9690    6.0940   37.5420 O.3   218  TYR218     -0.2866
     72  N         79.6670    1.3910   27.5720 N.3   315  ALA315     -0.1231
     73  CA        81.0620    1.4570   28.0030 C.3   315  ALA315      0.1694
     74  C         81.1660    1.8200   29.4650 C.2   315  ALA315      0.2593
     75  O         80.3280    2.5380   29.9910 O.2   315  ALA315     -0.2718
     76  CB        81.8460    2.4530   27.1650 C.3   315  ALA315      0.0304
     77  N         82.1870    1.2800   30.1170 N.am  316  THR316     -0.1939
     78  CA        82.6760    1.8250   31.3770 C.3   316  THR316      0.2028
     79  C         84.1590    2.1300   31.1810 C.2   316  THR316      0.2642
     80  O         84.6880    2.0490   30.0660 O.2   316  THR316     -0.2714
     81  CB        82.5290    0.8300   32.5150 C.3   316  THR316      0.1808
     82  OG1       83.2670   -0.3590   32.1970 O.3   316  THR316     -0.2208
     83  CG2       81.0520    0.4820   32.7520 C.3   316  THR316      0.0379
     84  N         84.8510    2.4860   32.2560 N.am  317  GLY317     -0.1954
     85  CA        86.2670    2.7820   32.1170 C.3   317  GLY317      0.1869
     86  C         87.0500    1.6510   31.4850 C.2   317  GLY317      0.2309
     87  O         87.9230    1.8760   30.6450 O.2   317  GLY317     -0.2863
@<TRIPOS>BOND
     1    37    38    1
     2    37    34    1
     3    33    34    1
     4    40    38   ar
     5    40    42   ar
     6    38    39   ar
     7    34    35    1
     8    42    43   ar
     9    39    41   ar
    10    43    41   ar
    11    43    44    1
    12    35    36    2
    13    76    73    1
    14    72    73    1
    15    73    74    1
    16     4     3    2
    17     5     6    1
    18     5     2    1
    19    23    21    1
    20     3     2    1
    21    22    21    1
    22    13    14    1
    23    13    12    1
    24    11    12    1
    25    11     8    1
    26     2     1    1
    27    21    20    1
    28     9    10    2
    29     9     8    1
    30    20    17    1
    31    74    75    2
    32    74    77   am
    33    14    15    1
    34     8     7    1
    35    80    79    2
    36    77    78    1
    37    17    16    1
    38    17    18    1
    39    87    86    2
    40    45    46    1
    41    79    78    1
    42    79    84   am
    43    78    81    1
    44    86    85    1
    45    51    50    2
    46    18    19    2
    47    18    24   am
    48    32    30   am
    49    85    84    1
    50    82    81    1
    51    50    52   am
    52    50    49    1
    53    46    49    1
    54    46    47    1
    55    24    25    1
    56    81    83    1
    57    30    29    1
    58    30    31    2
    59    29    28    1
    60    64    61    1
    61    64    65    1
    62    47    48    2
    63    61    60    1
    64    61    62    1
    65    25    28    1
    66    25    26    1
    67    63    62    2
    68    65    67   ar
    69    65    66   ar
    70    67    69   ar
    71    27    26    2
    72    66    68   ar
    73    69    70   ar
    74    68    70   ar
    75    70    71    1
    76    59    57    1
    77    57    54    1
    78    57    58    1
    79    53    54    1
    80    54    55    1
    81    55    56    2
