@<TRIPOS>MOLECULE
tmp/4e3qB02.pdb
 131 126 0 0 0
SMALL
GASTEIGER

@<TRIPOS>ATOM
      1  N         -6.8700   34.1450   12.9470 N.3    52  LEU52      -0.1231
      2  CA        -6.5130   34.1710   14.3640 C.3    52  LEU52       0.1693
      3  C         -5.1130   34.7860   14.4990 C.2    52  LEU52       0.2592
      4  O         -4.1660   34.0850   14.8950 O.2    52  LEU52      -0.2718
      5  CB        -6.5400   32.7230   14.9200 C.3    52  LEU52       0.0284
      6  CG        -7.4670   32.3760   16.0640 C.3    52  LEU52       0.0019
      7  CD1       -8.8640   32.9280   15.8550 C.3    52  LEU52       0.0001
      8  CD2       -7.5520   30.8560   16.2220 C.3    52  LEU52       0.0001
      9  N         -4.9690   36.0960   14.1140 N.am   53  TRP53      -0.1976
     10  CA        -3.7040   36.8640   14.1450 C.3    53  TRP53       0.1640
     11  C         -2.6720   36.3530   13.1180 C.2    53  TRP53       0.2290
     12  O         -1.7130   37.0570   12.8170 O.2    53  TRP53      -0.2864
     13  CB        -2.9810   36.7650   15.5390 C.3    53  TRP53       0.0576
     14  CG        -3.8030   37.0490   16.7640 C.ar   53  TRP53       0.0006
     15  CD1       -4.5400   36.1520   17.4790 C.ar   53  TRP53       0.0946
     16  CD2       -3.8710   38.2880   17.4840 C.ar   53  TRP53       0.0152
     17  NE1       -5.1410   36.7770   18.5450 N.ar   53  TRP53      -0.2442
     18  CE2       -4.7340   38.0870   18.5830 C.ar   53  TRP53       0.0810
     19  CE3       -3.2690   39.5500   17.3160 C.ar   53  TRP53       0.0012
     20  CZ2       -4.9970   39.0920   19.5220 C.ar   53  TRP53       0.0191
     21  CZ3       -3.5760   40.5620   18.2160 C.ar   53  TRP53       0.0001
     22  CH2       -4.4340   40.3330   19.2990 C.ar   53  TRP53       0.0015
     23  N          2.0290   23.5520   18.0360 N.3   109  SER109     -0.1202
     24  CA         1.3200   24.7440   18.4910 C.3   109  SER109      0.2020
     25  C          2.1220   25.6170   19.4670 C.2   109  SER109      0.2619
     26  O          3.1660   25.1960   20.0070 O.2   109  SER109     -0.2717
     27  CB         0.0150   24.3320   19.1700 C.3   109  SER109      0.2103
     28  OG         0.3330   23.6790   20.3960 O.3   109  SER109     -0.2182
     29  N          1.5890   26.8180   19.7030 N.am  110  GLY110     -0.1942
     30  CA         2.1170   27.7370   20.7090 C.3   110  GLY110      0.2014
     31  C          1.9320   27.1780   22.1110 C.2   110  GLY110      0.2639
     32  O          2.8330   27.3240   22.9430 O.2   110  GLY110     -0.2714
     33  N          0.7960   26.4740   22.3710 N.am  111  SER111     -0.1949
     34  CA         0.5150   25.8110   23.6750 C.3   111  SER111      0.1924
     35  C          1.5690   24.7170   23.9820 C.2   111  SER111      0.2314
     36  O          2.1230   24.6880   25.0630 O.2   111  SER111     -0.2863
     37  CB        -0.8620   25.1470   23.6840 C.3   111  SER111      0.2116
     38  OG        -1.9120   26.0800   23.4940 O.3   111  SER111     -0.2180
     39  N          5.0090   26.3810   24.7430 N.3   114  ASN114     -0.1240
     40  CA         5.0570   26.8680   26.1380 C.3   114  ASN114      0.1653
     41  C          5.1540   25.7190   27.1250 C.2   114  ASN114      0.2266
     42  O          5.9940   25.7540   28.0240 O.2   114  ASN114     -0.2867
     43  CB         3.8640   27.8030   26.4680 C.3   114  ASN114      0.1155
     44  CG         4.0880   29.2050   25.9500 C.2   114  ASN114      0.2627
     45  OD1        3.1840   29.8560   25.4090 O.2   114  ASN114     -0.2716
     46  ND2        5.3170   29.6880   26.0450 N.am  114  ASN114     -0.0877
     47  N         -1.9170   35.2210   27.9980 N.3   141  TYR141     -0.1227
     48  CA        -2.4740   34.0420   27.3390 C.3   141  TYR141      0.1736
     49  C         -1.2920   33.3220   26.7430 C.2   141  TYR141      0.2595
     50  O         -0.5510   33.9010   25.9330 O.2   141  TYR141     -0.2718
     51  CB        -3.5050   34.4150   26.2740 C.3   141  TYR141      0.0548
     52  CG        -4.1730   33.2110   25.6500 C.ar  141  TYR141     -0.0200
     53  CD1       -5.3960   32.7520   26.1170 C.ar  141  TYR141     -0.0009
     54  CD2       -3.5900   32.5430   24.5730 C.ar  141  TYR141     -0.0009
     55  CE1       -6.0320   31.6540   25.5320 C.ar  141  TYR141      0.0417
     56  CE2       -4.2090   31.4310   23.9900 C.ar  141  TYR141      0.0417
     57  CZ        -5.4310   30.9950   24.4720 C.ar  141  TYR141      0.1957
     58  OH        -6.0590   29.9350   23.8650 O.3   141  TYR141     -0.2866
     59  N         -1.0880   32.0720   27.1810 N.am  142  HIS142     -0.1961
     60  CA         0.0400   31.2610   26.7510 C.3   142  HIS142      0.1787
     61  C         -0.3680   29.9090   26.1400 C.2   142  HIS142      0.2621
     62  O          0.4820   29.1320   25.6840 O.2   142  HIS142     -0.2715
     63  CB         1.0180   31.0910   27.9380 C.3   142  HIS142      0.0785
     64  CG         1.6540   32.3820   28.3760 C.ar  142  HIS142      0.0821
     65  ND1        2.5120   33.0880   27.5390 N.ar  142  HIS142     -0.2267
     66  CD2        1.5410   33.0480   29.5520 C.ar  142  HIS142      0.1154
     67  CE1        2.8850   34.1600   28.2260 C.ar  142  HIS142      0.1986
     68  NE2        2.3290   34.1800   29.4450 N.ar  142  HIS142     -0.2212
     69  N         -1.6650   29.6610   26.0940 N.am  143  GLY143     -0.1940
     70  CA        -2.1910   28.4350   25.5100 C.3   143  GLY143      0.2014
     71  C         -3.2180   27.7230   26.3600 C.2   143  GLY143      0.2638
     72  O         -3.7090   28.2640   27.3520 O.2   143  GLY143     -0.2714
     73  N         -3.5350   26.4860   25.9750 N.am  144  VAL144     -0.1977
     74  CA        -4.6250   25.7100   26.5780 C.3   144  VAL144      0.1596
     75  C         -4.2590   24.3310   27.0740 C.2   144  VAL144      0.2287
     76  O         -5.1560   23.6250   27.5420 O.2   144  VAL144     -0.2864
     77  CB        -5.8520   25.6190   25.6240 C.3   144  VAL144      0.0276
     78  CG1       -6.4580   27.0080   25.3000 C.3   144  VAL144      0.0022
     79  CG2       -5.4930   24.8510   24.3640 C.3   144  VAL144      0.0022
     80  N          4.5040   37.8610   27.1110 N.3   213  GLU213     -0.1245
     81  CA         4.1660   38.3210   25.7780 C.3   213  GLU213      0.1567
     82  C          4.6330   39.7840   25.7940 C.2   213  GLU213      0.2260
     83  O          4.2310   40.5130   26.7100 O.2   213  GLU213     -0.2867
     84  CB         2.6400   38.3790   25.5860 C.3   213  GLU213      0.0388
     85  CG         1.9310   37.0450   25.4380 C.3   213  GLU213      0.1160
     86  CD         0.4400   37.2310   25.6480 C.2   213  GLU213      0.3649
     87  OE1       -0.2900   37.4440   24.6500 O.co2 213  GLU213     -0.2457
     88  OE2        0.0090   37.1990   26.8210 O.co2 213  GLU213     -0.2457
     89  N         -4.5000   37.9390   23.4360 N.3   217  ALA217     -0.1245
     90  CA        -5.8550   37.5330   23.8800 C.3   217  ALA217      0.1562
     91  C         -6.3260   38.2700   25.1250 C.2   217  ALA217      0.2260
     92  O         -7.5250   38.2810   25.3980 O.2   217  ALA217     -0.2867
     93  CB        -5.9400   36.0160   24.0790 C.3   217  ALA217      0.0290
     94  N          7.2390   35.2840   24.9610 N.3   245  ASP245     -0.1239
     95  CA         6.2560   34.5290   24.1790 C.3   245  ASP245      0.1674
     96  C          5.9560   35.4150   22.9580 C.2   245  ASP245      0.2266
     97  O          5.1710   36.3550   23.0560 O.2   245  ASP245     -0.2867
     98  CB         4.9720   34.1890   24.9890 C.3   245  ASP245      0.1410
     99  CG         3.9460   33.3970   24.1830 C.2   245  ASP245      0.3668
    100  OD1        4.0120   33.4350   22.9410 O.co2 245  ASP245     -0.2456
    101  OD2        3.0360   32.8060   24.7990 O.co2 245  ASP245     -0.2456
    102  N          4.4720   34.3860   20.1390 N.3   247  VAL247     -0.1231
    103  CA         3.5000   33.6880   19.2940 C.3   247  VAL247      0.1692
    104  C          2.6930   34.6860   18.4380 C.2   247  VAL247      0.2591
    105  O          2.5340   34.4620   17.2290 O.2   247  VAL247     -0.2718
    106  CB         2.6550   32.6780   20.1020 C.3   247  VAL247      0.0266
    107  CG1        1.3830   32.2720   19.3580 C.3   247  VAL247      0.0020
    108  CG2        3.4940   31.4450   20.4630 C.3   247  VAL247      0.0020
    109  N          2.2490   35.8170   19.0380 N.am  248  ILE248     -0.1980
    110  CA         1.5680   36.8480   18.2400 C.3   248  ILE248      0.1595
    111  C          2.5880   37.9030   17.7330 C.2   248  ILE248      0.2287
    112  O          2.5040   38.3200   16.5790 O.2   248  ILE248     -0.2864
    113  CB         0.3980   37.5220   19.0270 C.3   248  ILE248      0.0276
    114  CG1       -0.8010   36.5680   19.1480 C.3   248  ILE248      0.0022
    115  CG2       -0.0440   38.8550   18.3710 C.3   248  ILE248      0.0022
    116  CD1       -1.8580   37.0760   20.1290 C.3   248  ILE248      0.0001
    117  N          5.1490   30.9880   16.7990 N.3   273  SER273     -0.1202
    118  CA         4.1140   30.2310   16.0900 C.3   273  SER273      0.2020
    119  C          3.3380   31.2080   15.2130 C.2   273  SER273      0.2618
    120  O          3.9080   32.2290   14.8080 O.2   273  SER273     -0.2717
    121  CB         3.2170   29.4560   17.0670 C.3   273  SER273      0.2103
    122  OG         2.4420   28.4890   16.3710 O.3   273  SER273     -0.2182
    123  N          2.0690   30.8920   14.8870 N.am  274  LYS274     -0.1979
    124  CA         1.1760   31.7630   14.1080 C.3   274  LYS274      0.1596
    125  C          1.7730   32.3000   12.7740 C.2   274  LYS274      0.2287
    126  O          1.7620   31.5630   11.7780 O.2   274  LYS274     -0.2864
    127  CB         0.5950   32.8870   15.0100 C.3   274  LYS274      0.0298
    128  CG        -0.3740   32.3900   16.0660 C.3   274  LYS274      0.0038
    129  CD        -1.0460   33.6040   16.7560 C.3   274  LYS274      0.0206
    130  CE        -2.0480   33.2490   17.8340 C.3   274  LYS274      0.1093
    131  NZ        -3.2620   32.5880   17.2840 N.3   274  LYS274     -0.1314
@<TRIPOS>BOND
     1   126   125    2
     2   125   124    1
     3    12    11    2
     4     1     2    1
     5    11    10    1
     6   124   123    1
     7   124   127    1
     8     9    10    1
     9     9     3   am
    10    10    13    1
    11     2     3    1
    12     2     5    1
    13     3     4    2
    14   120   119    2
    15   123   119   am
    16     5     6    1
    17   127   128    1
    18   119   118    1
    19    13    14    1
    20     7     6    1
    21     6     8    1
    22   128   129    1
    23   118   117    1
    24   118   121    1
    25   122   121    1
    26   112   111    2
    27   129   130    1
    28    14    15   ar
    29    14    16   ar
    30   105   104    2
    31   131   130    1
    32    19    16   ar
    33    19    21   ar
    34    15    17   ar
    35    16    18   ar
    36   111   110    1
    37    23    24    1
    38    21    22   ar
    39   110   113    1
    40   110   109    1
    41   115   113    1
    42   104   109   am
    43   104   103    1
    44    24    27    1
    45    24    25    1
    46    17    18   ar
    47    18    20   ar
    48   113   114    1
    49   114   116    1
    50    27    28    1
    51   103   106    1
    52   103   102    1
    53    22    20   ar
    54   107   106    1
    55    25    29   am
    56    25    26    2
    57    29    30    1
    58   106   108    1
    59    30    31    1
    60    31    33   am
    61    31    32    2
    62    33    34    1
    63   100    99   ar
    64    96    97    2
    65    96    95    1
    66    89    90    1
    67    38    37    1
    68    34    37    1
    69    34    35    1
    70    58    57    1
    71    90    93    1
    72    90    91    1
    73    35    36    2
    74    56    57   ar
    75    56    54   ar
    76    95    94    1
    77    95    98    1
    78    99   101   ar
    79    99    98    1
    80    79    77    1
    81    57    55   ar
    82    54    52   ar
    83    87    86   ar
    84    39    40    1
    85    91    92    2
    86    78    77    1
    87    45    44    2
    88    85    84    1
    89    85    86    1
    90    70    69    1
    91    70    71    1
    92    55    53   ar
    93    84    81    1
    94    77    74    1
    95    86    88   ar
    96    52    53   ar
    97    52    51    1
    98    62    61    2
    99    81    82    1
   100    81    80    1
   101    82    83    2
   102    50    49    2
   103    44    46   am
   104    44    43    1
   105    73    71   am
   106    73    74    1
   107    69    61   am
   108    40    43    1
   109    40    41    1
   110    61    60    1
   111    51    48    1
   112    71    72    2
   113    74    75    1
   114    49    59   am
   115    49    48    1
   116    60    59    1
   117    60    63    1
   118    75    76    2
   119    41    42    2
   120    48    47    1
   121    65    67   ar
   122    65    64   ar
   123    63    64    1
   124    67    68   ar
   125    64    66   ar
   126    68    66   ar
