@<TRIPOS>MOLECULE
tmp/4e3sA00.pdb
 134 127 0 0 0
SMALL
GASTEIGER

@<TRIPOS>ATOM
      1  N         -1.9810  -18.3870   36.1510 N.3   282  PHE282     -0.1241
      2  CA        -0.8560  -18.0420   37.0230 C.3   282  PHE282      0.1605
      3  C          0.3930  -18.9220   36.8270 C.2   282  PHE282      0.2264
      4  O          1.0070  -19.3880   37.7750 O.2   282  PHE282     -0.2867
      5  CB        -1.3170  -17.9450   38.4810 C.3   282  PHE282      0.0534
      6  CG        -2.1580  -16.7380   38.7280 C.ar  282  PHE282     -0.0203
      7  CD1       -1.5880  -15.5750   39.2260 C.ar  282  PHE282     -0.0042
      8  CD2       -3.5090  -16.7320   38.3740 C.ar  282  PHE282     -0.0042
      9  CE1       -2.3580  -14.4320   39.4080 C.ar  282  PHE282     -0.0003
     10  CE2       -4.2870  -15.5940   38.5560 C.ar  282  PHE282     -0.0003
     11  CZ        -3.7080  -14.4430   39.0780 C.ar  282  PHE282     -0.0000
     12  N          0.8640  -15.6360   57.5280 N.3   411  ASP411     -0.1225
     13  CA         0.4050  -14.8290   56.4200 C.3   411  ASP411      0.1805
     14  C         -0.9980  -14.2820   56.7160 C.2   411  ASP411      0.2598
     15  O         -1.8210  -14.9650   57.3270 O.2   411  ASP411     -0.2718
     16  CB         0.4070  -15.7180   55.1670 C.3   411  ASP411      0.1424
     17  CG        -0.1910  -15.0490   53.9900 C.2   411  ASP411      0.3668
     18  OD1       -1.3420  -15.3540   53.6620 O.co2 411  ASP411     -0.2456
     19  OD2        0.4600  -14.1640   53.4210 O.co2 411  ASP411     -0.2456
     20  N         -1.2710  -13.0550   56.2880 N.am  412  LEU412     -0.1966
     21  CA        -2.5960  -12.4480   56.4970 C.3   412  LEU412      0.1728
     22  C         -3.5510  -12.8590   55.3960 C.2   412  LEU412      0.2617
     23  O         -3.1900  -12.8400   54.2200 O.2   412  LEU412     -0.2715
     24  CB        -2.4940  -10.9190   56.5610 C.3   412  LEU412      0.0311
     25  CG        -1.8380  -10.3690   57.8420 C.3   412  LEU412      0.0022
     26  CD1       -1.0260   -9.1120   57.5810 C.3   412  LEU412      0.0001
     27  CD2       -2.8730  -10.1180   58.9320 C.3   412  LEU412      0.0001
     28  N         -4.7680  -13.2350   55.7770 N.am  413  THR413     -0.1937
     29  CA        -5.8160  -13.5960   54.8120 C.3   413  THR413      0.2028
     30  C         -6.1980  -12.3930   53.9530 C.2   413  THR413      0.2643
     31  O         -6.4810  -11.3130   54.4750 O.2   413  THR413     -0.2714
     32  CB        -7.0740  -14.1360   55.5250 C.3   413  THR413      0.1808
     33  OG1       -6.7240  -15.3190   56.2460 O.3   413  THR413     -0.2208
     34  CG2       -8.1940  -14.4760   54.5280 C.3   413  THR413      0.0379
     35  N         -6.1450  -12.5940   52.6370 N.am  414  SER414     -0.1935
     36  CA        -6.6560  -11.6440   51.6560 C.3   414  SER414      0.2055
     37  C         -6.3770  -10.1950   52.1100 C.2   414  SER414      0.2643
     38  O         -7.2980   -9.4600   52.4160 O.2   414  SER414     -0.2714
     39  CB        -8.1580  -11.9130   51.4930 C.3   414  SER414      0.2130
     40  OG        -8.7240  -11.1120   50.4830 O.3   414  SER414     -0.2179
     41  N         -5.1040   -9.8120   52.2030 N.am  415  LEU415     -0.1963
     42  CA        -4.7640   -8.6100   52.9560 C.3   415  LEU415      0.1728
     43  C         -5.4180   -7.3380   52.4390 C.2   415  LEU415      0.2616
     44  O         -6.1250   -6.6690   53.1940 O.2   415  LEU415     -0.2715
     45  CB        -3.2550   -8.4060   53.1060 C.3   415  LEU415      0.0311
     46  CG        -2.9860   -7.0980   53.8640 C.3   415  LEU415      0.0022
     47  CD1       -3.3310   -7.2510   55.3480 C.3   415  LEU415      0.0001
     48  CD2       -1.5620   -6.6090   53.6800 C.3   415  LEU415      0.0001
     49  N         -5.1930   -6.9920   51.1730 N.am  416  TYR416     -0.1974
     50  CA        -5.6810   -5.6930   50.6940 C.3   416  TYR416      0.1639
     51  C         -7.2180   -5.5330   50.7800 C.2   416  TYR416      0.2290
     52  O         -7.6890   -4.4810   51.2230 O.2   416  TYR416     -0.2864
     53  CB        -5.1270   -5.3400   49.3090 C.3   416  TYR416      0.0560
     54  CG        -3.6770   -4.8390   49.3380 C.ar  416  TYR416     -0.0198
     55  CD1       -2.8920   -4.9530   50.4970 C.ar  416  TYR416     -0.0009
     56  CD2       -3.1010   -4.2510   48.2130 C.ar  416  TYR416     -0.0009
     57  CE1       -1.5780   -4.4980   50.5270 C.ar  416  TYR416      0.0417
     58  CE2       -1.7870   -3.7810   48.2340 C.ar  416  TYR416      0.0417
     59  CZ        -1.0280   -3.9210   49.3850 C.ar  416  TYR416      0.1957
     60  OH         0.2770   -3.4750   49.4050 O.3   416  TYR416     -0.2866
     61  N        -14.6940  -16.4780   47.1340 N.3   482  ARG482     -0.1245
     62  CA       -13.2990  -16.9240   47.0590 C.3   482  ARG482      0.1563
     63  C        -12.9860  -17.8790   48.1950 C.2   482  ARG482      0.2260
     64  O        -12.4080  -18.9420   47.9680 O.2   482  ARG482     -0.2867
     65  CB       -12.3400  -15.7320   47.1020 C.3   482  ARG482      0.0307
     66  CG       -10.8730  -16.0730   46.8590 C.3   482  ARG482      0.0489
     67  CD       -10.0880  -16.2170   48.1500 C.3   482  ARG482      0.2205
     68  NE        -8.7540  -16.7300   47.8760 N.pl3 482  ARG482     -0.0865
     69  CZ        -7.6770  -16.4630   48.6070 C.cat 482  ARG482      0.5346
     70  NH1       -7.7630  -15.6780   49.6830 N.pl3 482  ARG482      0.1354
     71  NH2       -6.5070  -16.9690   48.2530 N.pl3 482  ARG482      0.1354
     72  N        -11.6140  -21.7250   47.9890 N.3   486  LYS486     -0.1245
     73  CA       -10.3020  -22.0410   48.5380 C.3   486  LYS486      0.1561
     74  C        -10.4260  -23.1820   49.5600 C.2   486  LYS486      0.2260
     75  O         -9.5420  -24.0180   49.6530 O.2   486  LYS486     -0.2867
     76  CB        -9.6200  -20.8100   49.1480 C.3   486  LYS486      0.0271
     77  CG        -8.3590  -21.1640   49.9360 C.3   486  LYS486      0.0035
     78  CD        -7.3020  -20.0760   49.9220 C.3   486  LYS486      0.0206
     79  CE        -6.0780  -20.5410   50.7000 C.3   486  LYS486      0.1093
     80  NZ        -5.3650  -19.4050   51.3520 N.3   486  LYS486     -0.1314
     81  N         -9.6740  -14.1890   44.0520 N.3   560  LYS560     -0.1231
     82  CA        -8.6210  -13.4250   44.7290 C.3   560  LYS560      0.1693
     83  C         -8.0530  -12.3310   43.7850 C.2   560  LYS560      0.2591
     84  O         -7.8880  -11.1680   44.1830 O.2   560  LYS560     -0.2718
     85  CB        -7.5120  -14.3550   45.2310 C.3   560  LYS560      0.0285
     86  CG        -6.2150  -13.6360   45.5300 C.3   560  LYS560      0.0035
     87  CD        -5.0810  -14.5920   45.8420 C.3   560  LYS560      0.0206
     88  CE        -3.7790  -13.8140   45.9550 C.3   560  LYS560      0.1093
     89  NZ        -2.6350  -14.6950   46.3230 N.3   560  LYS560     -0.1314
     90  N         -7.7920  -12.6950   42.5300 N.am  561  ALA561     -0.1980
     91  CA        -7.2160  -11.7450   41.5720 C.3   561  ALA561      0.1597
     92  C         -8.1620  -10.5730   41.3390 C.2   561  ALA561      0.2287
     93  O         -7.7150   -9.4400   41.2150 O.2   561  ALA561     -0.2864
     94  CB        -6.8880  -12.4320   40.2490 C.3   561  ALA561      0.0319
     95  N         -8.2610   -8.2970   44.6490 N.3   564  ASN564     -0.1225
     96  CA        -6.9990   -7.5730   44.6900 C.3   564  ASN564      0.1785
     97  C         -6.9420   -6.5440   43.5820 C.2   564  ASN564      0.2597
     98  O         -6.3500   -5.4850   43.7630 O.2   564  ASN564     -0.2718
     99  CB        -5.8010   -8.5270   44.6210 C.3   564  ASN564      0.1169
    100  CG        -5.6470   -9.3260   45.8890 C.2   564  ASN564      0.2627
    101  OD1       -6.3020   -9.0360   46.8860 O.2   564  ASN564     -0.2716
    102  ND2       -4.7970  -10.3380   45.8630 N.am  564  ASN564     -0.0877
    103  N         -7.5660   -6.8740   42.4450 N.am  565  GLY565     -0.1957
    104  CA        -7.6940   -5.9550   41.3110 C.3   565  GLY565      0.1869
    105  C         -8.4590   -4.6760   41.6370 C.2   565  GLY565      0.2309
    106  O         -8.2220   -3.6200   41.0270 O.2   565  GLY565     -0.2863
    107  N         -5.9370   -2.4140   43.4850 N.3   568  GLY568     -0.1225
    108  CA        -5.0640   -1.8310   42.4560 C.3   568  GLY568      0.1811
    109  C         -5.7700   -0.8240   41.5530 C.2   568  GLY568      0.2280
    110  O         -5.1670    0.1800   41.1380 O.2   568  GLY568     -0.2866
    111  N          5.2870   -7.7480   52.4920 N.3   622  THR622     -0.1203
    112  CA         3.9120   -7.2630   52.3080 C.3   622  THR622      0.1994
    113  C          2.9480   -7.6220   53.4460 C.2   622  THR622      0.2617
    114  O          2.4230   -6.7290   54.0890 O.2   622  THR622     -0.2717
    115  CB         3.3180   -7.6880   50.9520 C.3   622  THR622      0.1784
    116  OG1        4.2110   -7.2890   49.9050 O.3   622  THR622     -0.2211
    117  CG2        1.9670   -7.0440   50.7330 C.3   622  THR622      0.0376
    118  N          2.7330   -8.9130   53.6880 N.am  623  ASP623     -0.1973
    119  CA         1.7600   -9.3670   54.6910 C.3   623  ASP623      0.1709
    120  C          2.1320  -10.6960   55.3560 C.2   623  ASP623      0.2293
    121  O          1.2730  -11.3740   55.9330 O.2   623  ASP623     -0.2864
    122  CB         0.3990   -9.5670   54.0240 C.3   623  ASP623      0.1436
    123  CG         0.3900  -10.7550   53.0670 C.2   623  ASP623      0.3671
    124  OD1       -0.7030  -11.2900   52.8190 O.co2 623  ASP623     -0.2456
    125  OD2        1.4730  -11.1580   52.5680 O.co2 623  ASP623     -0.2456
    126  N          1.4630  -20.5100   57.9660 N.3   686  GLU686     -0.1245
    127  CA         1.5080  -20.9970   56.6110 C.3   686  GLU686      0.1567
    128  C          2.4320  -22.2090   56.5490 C.2   686  GLU686      0.2260
    129  O          1.9480  -23.3490   56.5460 O.2   686  GLU686     -0.2867
    130  CB         1.9100  -19.8650   55.6460 C.3   686  GLU686      0.0388
    131  CG         1.7130  -20.2030   54.1820 C.3   686  GLU686      0.1160
    132  CD         0.9500  -19.1260   53.4270 C.2   686  GLU686      0.3649
    133  OE1       -0.2460  -19.3370   53.1300 O.co2 686  GLU686     -0.2457
    134  OE2        1.5370  -18.0660   53.1350 O.co2 686  GLU686     -0.2457
@<TRIPOS>BOND
     1     1     2    1
     2     3     2    1
     3     3     4    2
     4     2     5    1
     5     8    10   ar
     6     8     6   ar
     7     5     6    1
     8    10    11   ar
     9     6     7   ar
    10    11     9   ar
    11     7     9   ar
    12    94    91    1
    13   106   105    2
    14   110   109    2
    15    93    92    2
    16   104   105    1
    17   104   103    1
    18    92    91    1
    19   109   108    1
    20    91    90    1
    21   103    97   am
    22   108   107    1
    23    90    83   am
    24    97    98    2
    25    97    96    1
    26    83    84    2
    27    83    82    1
    28    81    82    1
    29    99    96    1
    30    99   100    1
    31    95    96    1
    32    82    85    1
    33    85    86    1
    34    86    87    1
    35    87    88    1
    36   102   100   am
    37   100   101    2
    38    88    89    1
    39    66    65    1
    40    66    67    1
    41    62    65    1
    42    62    61    1
    43    62    63    1
    44    68    67    1
    45    68    69    2
    46    64    63    2
    47    72    73    1
    48    56    58   ar
    49    56    54   ar
    50    58    59   ar
    51    71    69    1
    52    73    76    1
    53    73    74    1
    54    69    70    1
    55    76    77    1
    56    53    54    1
    57    53    50    1
    58    54    55   ar
    59    59    60    1
    60    59    57   ar
    61    74    75    2
    62   116   115    1
    63    78    77    1
    64    78    79    1
    65    40    39    1
    66    55    57   ar
    67    50    51    1
    68    50    49    1
    69    79    80    1
    70   117   115    1
    71    51    52    2
    72   115   112    1
    73    49    43   am
    74    39    36    1
    75    36    37    1
    76    36    35    1
    77    37    41   am
    78    37    38    2
    79    41    42    1
    80   112   111    1
    81   112   113    1
    82    43    42    1
    83    43    44    2
    84   125   123   ar
    85    35    30   am
    86   124   123   ar
    87    42    45    1
    88   123   122    1
    89    45    46    1
    90   133   132   ar
    91   134   132   ar
    92    19    17   ar
    93   132   131    1
    94   113   118   am
    95   113   114    2
    96    18    17   ar
    97    48    46    1
    98   118   119    1
    99    46    47    1
   100    30    31    2
   101    30    29    1
   102    17    16    1
   103   122   119    1
   104   131   130    1
   105    23    22    2
   106    34    32    1
   107   119   120    1
   108    29    32    1
   109    29    28    1
   110    16    13    1
   111   120   121    2
   112    22    28   am
   113    22    21    1
   114    32    33    1
   115   130   127    1
   116    20    21    1
   117    20    14   am
   118    13    14    1
   119    13    12    1
   120    21    24    1
   121   129   128    2
   122   128   127    1
   123    24    25    1
   124   127   126    1
   125    14    15    2
   126    26    25    1
   127    25    27    1
