@<TRIPOS>MOLECULE
tmp/4e3tB00.pdb
 157 149 0 0 0
SMALL
GASTEIGER

@<TRIPOS>ATOM
      1  N         15.1200   25.5230   44.7410 N.3    20  HIS20      -0.1241
      2  CA        14.5980   25.8310   43.3930 C.3    20  HIS20       0.1621
      3  C         15.4160   26.9880   42.8150 C.2    20  HIS20       0.2264
      4  O         15.0710   28.1480   43.0330 O.2    20  HIS20      -0.2867
      5  CB        13.0640   26.1250   43.4420 C.3    20  HIS20       0.0745
      6  CG        12.4870   26.4440   42.0920 C.ar   20  HIS20       0.0817
      7  ND1       11.2610   25.9770   41.6650 N.ar   20  HIS20      -0.2268
      8  CD2       13.0220   27.1120   41.0360 C.ar   20  HIS20       0.1154
      9  CE1       11.0420   26.3950   40.4290 C.ar   20  HIS20       0.1986
     10  NE2       12.0860   27.1050   40.0400 N.ar   20  HIS20      -0.2212
     11  N         18.3220   28.0950   39.2490 N.3    22  HIS22      -0.1241
     12  CA        18.8120   27.6940   37.9220 C.3    22  HIS22       0.1621
     13  C         20.1450   28.3580   37.7200 C.2    22  HIS22       0.2264
     14  O         20.3390   29.4720   38.1590 O.2    22  HIS22      -0.2867
     15  CB        17.9350   28.2390   36.8100 C.3    22  HIS22       0.0745
     16  CG        16.4830   27.8870   36.9260 C.ar   22  HIS22       0.0817
     17  ND1       15.9080   26.8650   36.2130 N.ar   22  HIS22      -0.2268
     18  CD2       15.4890   28.4290   37.6700 C.ar   22  HIS22       0.1154
     19  CE1       14.6130   26.8080   36.4810 C.ar   22  HIS22       0.1986
     20  NE2       14.3380   27.7570   37.3500 N.ar   22  HIS22      -0.2212
     21  N         18.4780   29.9230   32.4870 N.3    25  GLY25      -0.1285
     22  CA        17.1750   29.5940   31.8970 C.3    25  GLY25       0.1447
     23  C         17.3220   29.6260   30.3850 C.3    25  GLY25       0.2025
     24  O         17.3520   30.7390   29.8980 O.3    25  GLY25      -0.2188
     25  N         14.4710   23.3190   29.3240 N.3    71  LEU71      -0.1245
     26  CA        14.9240   24.5990   29.8810 C.3    71  LEU71       0.1561
     27  C         16.3960   24.7960   29.5580 C.2    71  LEU71       0.2260
     28  O         17.0180   25.6830   30.1180 O.2    71  LEU71      -0.2867
     29  CB        14.6790   24.6910   31.4060 C.3    71  LEU71       0.0270
     30  CG        13.3110   25.2530   31.6720 C.3    71  LEU71       0.0019
     31  CD1       13.0920   25.1040   33.1920 C.3    71  LEU71       0.0001
     32  CD2       13.3220   26.7410   31.2080 C.3    71  LEU71       0.0001
     33  N          9.5590   20.6570   31.2980 N.3    96  TRP96      -0.1241
     34  CA         9.0630   22.0200   31.5760 C.3    96  TRP96       0.1605
     35  C          8.0450   22.3790   30.4670 C.2    96  TRP96       0.2264
     36  O          7.4160   21.4820   29.9410 O.2    96  TRP96      -0.2867
     37  CB        10.2030   23.0030   31.8060 C.3    96  TRP96       0.0550
     38  CG         9.7980   24.3750   32.1770 C.ar   96  TRP96       0.0003
     39  CD1        9.3460   24.8110   33.4220 C.ar   96  TRP96       0.0946
     40  CD2        9.9400   25.5460   31.3680 C.ar   96  TRP96       0.0152
     41  NE1        9.1490   26.1770   33.3790 N.ar   96  TRP96      -0.2442
     42  CE2        9.4730   26.6460   32.1270 C.ar   96  TRP96       0.0810
     43  CE3       10.3580   25.7630   30.0380 C.ar   96  TRP96       0.0012
     44  CZ2        9.4350   27.9590   31.6070 C.ar   96  TRP96       0.0191
     45  CZ3       10.3450   27.0850   29.5250 C.ar   96  TRP96       0.0001
     46  CH2        9.8620   28.1540   30.3000 C.ar   96  TRP96       0.0015
     47  N         11.5870   17.4930   37.5380 N.3   134  LYS134     -0.1245
     48  CA        10.8550   18.7830   37.4460 C.3   134  LYS134      0.1561
     49  C          9.7550   18.6720   36.4160 C.2   134  LYS134      0.2260
     50  O         10.0240   18.1920   35.3240 O.2   134  LYS134     -0.2867
     51  CB        11.7980   19.9130   37.0240 C.3   134  LYS134      0.0271
     52  CG        11.0780   21.2240   36.6970 C.3   134  LYS134      0.0035
     53  CD        10.2760   21.8190   37.8920 C.3   134  LYS134      0.0206
     54  CE         9.6490   23.1940   37.4870 C.3   134  LYS134      0.1093
     55  NZ         8.7140   23.9240   38.4930 N.3   134  LYS134     -0.1314
     56  N          5.4690   23.1370   39.0320 N.3   166  HIS166     -0.1241
     57  CA         4.7230   24.3890   39.2300 C.3   166  HIS166      0.1621
     58  C          3.5810   24.4800   38.2360 C.2   166  HIS166      0.2264
     59  O          3.5560   23.7060   37.3270 O.2   166  HIS166     -0.2867
     60  CB         5.6350   25.5990   39.1140 C.3   166  HIS166      0.0745
     61  CG         5.9140   26.0060   37.7070 C.ar  166  HIS166      0.0817
     62  ND1        6.2760   25.1080   36.7320 N.ar  166  HIS166     -0.2268
     63  CD2        5.8840   27.2210   37.1110 C.ar  166  HIS166      0.1154
     64  CE1        6.4610   25.7540   35.5950 C.ar  166  HIS166      0.1986
     65  NE2        6.2390   27.0390   35.8010 N.ar  166  HIS166     -0.2212
     66  N          2.0540   30.8740   35.5710 N.3   169  GLY169     -0.1225
     67  CA         1.4000   32.0020   36.2180 C.3   169  GLY169      0.1811
     68  C          1.0790   31.7730   37.6960 C.2   169  GLY169      0.2280
     69  O          1.7530   31.0040   38.3890 O.2   169  GLY169     -0.2866
     70  N          6.3550   27.2780   43.1870 N.3   195  HIS195     -0.1241
     71  CA         5.8290   28.6070   42.9030 C.3   195  HIS195      0.1621
     72  C          4.5700   28.8510   43.7400 C.2   195  HIS195      0.2264
     73  O          3.6740   29.5860   43.3150 O.2   195  HIS195     -0.2867
     74  CB         5.5490   28.7640   41.3890 C.3   195  HIS195      0.0745
     75  CG         6.7830   28.6500   40.5700 C.ar  195  HIS195      0.0817
     76  ND1        8.0260   28.7660   41.1480 N.ar  195  HIS195     -0.2268
     77  CD2        6.9840   28.4040   39.2570 C.ar  195  HIS195      0.1154
     78  CE1        8.9490   28.6270   40.2160 C.ar  195  HIS195      0.1986
     79  NE2        8.3480   28.3920   39.0620 N.ar  195  HIS195     -0.2212
     80  N          3.2600   32.4060   44.7030 N.3   198  GLU198     -0.1245
     81  CA         2.5800   33.2610   43.7030 C.3   198  GLU198      0.1567
     82  C          1.1490   33.6150   44.1180 C.2   198  GLU198      0.2260
     83  O          0.5310   34.5370   43.5770 O.2   198  GLU198     -0.2867
     84  CB         2.5380   32.5390   42.3530 C.3   198  GLU198      0.0388
     85  CG         3.9220   32.4780   41.7060 C.3   198  GLU198      0.1160
     86  CD         4.4650   33.8670   41.3640 C.2   198  GLU198      0.3649
     87  OE1        3.6490   34.7990   41.1880 O.co2 198  GLU198     -0.2457
     88  OE2        5.7060   34.0490   41.2540 O.co2 198  GLU198     -0.2457
     89  N         10.0250   31.7010   44.8880 N.3   219  ARG219     -0.1245
     90  CA        10.1690   32.9670   44.1410 C.3   219  ARG219      0.1563
     91  C         10.4800   34.2480   44.8910 C.2   219  ARG219      0.2260
     92  O         10.0640   35.3130   44.4010 O.2   219  ARG219     -0.2867
     93  CB         9.2280   33.1280   42.9250 C.3   219  ARG219      0.0307
     94  CG         9.1620   31.8920   42.0650 C.3   219  ARG219      0.0489
     95  CD         8.3050   32.1270   40.8230 C.3   219  ARG219      0.2205
     96  NE         9.1300   32.6310   39.7340 N.pl3 219  ARG219     -0.0865
     97  CZ         8.9230   33.7750   39.0940 C.cat 219  ARG219      0.5346
     98  NH1        7.8660   34.5310   39.3850 N.pl3 219  ARG219      0.1354
     99  NH2        9.7590   34.1310   38.1420 N.pl3 219  ARG219      0.1354
    100  N          4.9180   40.6780   34.0860 N.3   235  ALA235     -0.1231
    101  CA         4.4670   39.3350   33.7510 C.3   235  ALA235      0.1694
    102  C          5.3610   38.2650   34.3570 C.2   235  ALA235      0.2592
    103  O          4.8900   37.1960   34.7490 O.2   235  ALA235     -0.2718
    104  CB         4.3470   39.1520   32.2000 C.3   235  ALA235      0.0304
    105  N          6.6660   38.5160   34.3930 N.am  236  PHE236     -0.1976
    106  CA         7.5820   37.5030   34.9170 C.3   236  PHE236      0.1639
    107  C          7.6440   37.4720   36.4640 C.2   236  PHE236      0.2290
    108  O          7.6570   36.3980   37.0660 O.2   236  PHE236     -0.2864
    109  CB         8.9700   37.7440   34.3590 C.3   236  PHE236      0.0560
    110  CG         9.9430   36.5630   34.4770 C.ar  236  PHE236     -0.0200
    111  CD1       10.2470   35.7870   33.3350 C.ar  236  PHE236     -0.0042
    112  CD2       10.6080   36.2790   35.6840 C.ar  236  PHE236     -0.0042
    113  CE1       11.1970   34.7500   33.3770 C.ar  236  PHE236     -0.0003
    114  CE2       11.5740   35.2070   35.7670 C.ar  236  PHE236     -0.0003
    115  CZ        11.8720   34.4390   34.5790 C.ar  236  PHE236     -0.0000
    116  N         14.4140   31.0670   43.0100 N.3   266  ASP266     -0.1239
    117  CA        14.1940   30.8890   41.5730 C.3   266  ASP266      0.1674
    118  C         15.0290   31.8910   40.7660 C.2   266  ASP266      0.2266
    119  O         14.5210   32.5450   39.8500 O.2   266  ASP266     -0.2867
    120  CB        12.7060   31.0300   41.2360 C.3   266  ASP266      0.1410
    121  CG        12.4100   30.7010   39.7900 C.2   266  ASP266      0.3668
    122  OD1       13.2930   30.1080   39.1450 O.co2 266  ASP266     -0.2456
    123  OD2       11.3090   31.0410   39.3010 O.co2 266  ASP266     -0.2456
    124  N         18.7000   33.0280   38.4740 N.3   268  LEU268     -0.1245
    125  CA        19.5960   32.3900   37.5030 C.3   268  LEU268      0.1561
    126  C         20.6410   33.4090   37.1320 C.2   268  LEU268      0.2260
    127  O         20.5730   34.5810   37.5830 O.2   268  LEU268     -0.2867
    128  CB        18.8180   31.9900   36.2330 C.3   268  LEU268      0.0270
    129  CG        17.4920   32.6710   35.9040 C.3   268  LEU268      0.0019
    130  CD1       17.9690   34.0290   35.4070 C.3   268  LEU268      0.0001
    131  CD2       16.7470   31.8380   34.7590 C.3   268  LEU268      0.0001
    132  N         19.5650   34.1520   31.0590 N.3   271  ILE271     -0.1245
    133  CA        18.2190   33.6700   30.6040 C.3   271  ILE271      0.1561
    134  C         18.0460   34.0300   29.1530 C.2   271  ILE271      0.2260
    135  O         18.2910   35.1910   28.8010 O.2   271  ILE271     -0.2867
    136  CB        17.0850   34.2210   31.4810 C.3   271  ILE271      0.0252
    137  CG1       15.7090   33.9070   30.8710 C.3   271  ILE271      0.0019
    138  CG2       17.1780   35.7370   31.6570 C.3   271  ILE271      0.0019
    139  CD1       14.6450   34.1520   31.9430 C.3   271  ILE271      0.0001
    140  N         15.2970   32.3900   27.4280 N.3   273  SER273     -0.1202
    141  CA        13.9570   31.8800   27.0950 C.3   273  SER273      0.2020
    142  C         12.8600   32.9630   27.1810 C.2   273  SER273      0.2618
    143  O         11.6650   32.6990   26.9410 O.2   273  SER273     -0.2717
    144  CB        13.6170   30.6830   27.9980 C.3   273  SER273      0.2103
    145  OG        13.8300   31.0410   29.3510 O.3   273  SER273     -0.2182
    146  N         13.2790   34.1920   27.4770 N.am  274  TYR274     -0.1975
    147  CA        12.3310   35.2840   27.7020 C.3   274  TYR274      0.1639
    148  C         12.8850   36.4560   26.9170 C.2   274  TYR274      0.2290
    149  O         13.5710   36.2250   25.9190 O.2   274  TYR274     -0.2864
    150  CB        12.1450   35.6000   29.2020 C.3   274  TYR274      0.0560
    151  CG        10.9330   36.4250   29.5470 C.ar  274  TYR274     -0.0198
    152  CD1        9.6480   36.0820   29.0940 C.ar  274  TYR274     -0.0009
    153  CD2       11.0570   37.5450   30.4360 C.ar  274  TYR274     -0.0009
    154  CE1        8.5310   36.8430   29.4380 C.ar  274  TYR274      0.0417
    155  CE2        9.9200   38.3050   30.7910 C.ar  274  TYR274      0.0417
    156  CZ         8.6800   37.9560   30.2770 C.ar  274  TYR274      0.1957
    157  OH         7.5550   38.6740   30.6260 O.3   274  TYR274     -0.2866
@<TRIPOS>BOND
     1   149   148    2
     2   148   147    1
     3   143   142    2
     4   141   142    1
     5   141   140    1
     6   141   144    1
     7   142   146   am
     8   146   147    1
     9   147   150    1
    10   144   145    1
    11   135   134    2
    12   152   154   ar
    13   152   151   ar
    14   134   133    1
    15   150   151    1
    16    25    26    1
    17   154   156   ar
    18    45    43   ar
    19    45    46   ar
    20   151   153   ar
    21    27    26    1
    22    27    28    2
    23    26    29    1
    24    24    23    1
    25    36    35    2
    26    43    40   ar
    27   156   157    1
    28   156   155   ar
    29    46    44   ar
    30    23    22    1
    31   153   155   ar
    32    35    34    1
    33   133   132    1
    34   133   136    1
    35   137   136    1
    36   137   139    1
    37    32    30    1
    38    33    34    1
    39    40    42   ar
    40    40    38   ar
    41    29    30    1
    42   136   138    1
    43    34    37    1
    44    44    42   ar
    45    30    31    1
    46    37    38    1
    47    22    21    1
    48    42    41   ar
    49    38    39   ar
    50   104   101    1
    51   111   113   ar
    52   111   110   ar
    53   113   115   ar
    54    41    39   ar
    55   101   100    1
    56   101   102    1
    57   102   105   am
    58   102   103    2
    59   109   110    1
    60   109   106    1
    61   105   106    1
    62   110   112   ar
    63   115   114   ar
    64   131   129    1
    65   106   107    1
    66    50    49    2
    67   130   129    1
    68    66    67    1
    69    64    65   ar
    70    64    62   ar
    71   112   114   ar
    72    65    63   ar
    73   129   128    1
    74    17    19   ar
    75    17    16   ar
    76    67    68    1
    77   128   125    1
    78    49    48    1
    79   107   108    2
    80    19    20   ar
    81    52    51    1
    82    52    53    1
    83    62    61   ar
    84    15    16    1
    85    15    12    1
    86    16    18   ar
    87    51    48    1
    88    63    61   ar
    89   126   125    1
    90   126   127    2
    91    59    58    2
    92    20    18   ar
    93    48    47    1
    94    54    53    1
    95    54    55    1
    96   125   124    1
    97    68    69    2
    98    61    60    1
    99    13    12    1
   100    13    14    2
   101    12    11    1
   102    99    97    1
   103    58    57    1
   104    56    57    1
   105    79    77   ar
   106    79    78   ar
   107    97    98    1
   108    97    96    2
   109    60    57    1
   110   122   121   ar
   111    77    75   ar
   112   123   121   ar
   113    96    95    1
   114   121   120    1
   115   119   118    2
   116    10     9   ar
   117    10     8   ar
   118    78    76   ar
   119     9     7   ar
   120    75    76   ar
   121    75    74    1
   122   118   117    1
   123    95    94    1
   124     8     6   ar
   125    87    86   ar
   126   120   117    1
   127    88    86   ar
   128    86    85    1
   129    74    71    1
   130   117   116    1
   131     7     6   ar
   132    85    84    1
   133    94    93    1
   134     6     5    1
   135    84    81    1
   136     3     4    2
   137     3     2    1
   138    71    70    1
   139    71    72    1
   140    93    90    1
   141    73    72    2
   142     2     5    1
   143     2     1    1
   144    83    82    2
   145    81    82    1
   146    81    80    1
   147    90    89    1
   148    90    91    1
   149    92    91    2
