@<TRIPOS>MOLECULE
tmp/4e3xB03.pdb
 100 96 0 0 0
SMALL
GASTEIGER

@<TRIPOS>ATOM
      1  N        -17.9940   16.0590   14.8770 N.3   148  GLU148     -0.1245
      2  CA       -16.7370   15.3360   14.7280 C.3   148  GLU148      0.1567
      3  C        -16.6870   14.5240   13.4380 C.2   148  GLU148      0.2260
      4  O        -15.6680   14.5120   12.7560 O.2   148  GLU148     -0.2867
      5  CB       -16.4610   14.4340   15.9290 C.3   148  GLU148      0.0388
      6  CG       -15.0460   13.8880   15.9170 C.3   148  GLU148      0.1160
      7  CD       -14.6780   13.1890   17.2050 C.2   148  GLU148      0.3649
      8  OE1      -15.5670   12.5600   17.8150 O.co2 148  GLU148     -0.2457
      9  OE2      -13.5000   13.2740   17.6130 O.co2 148  GLU148     -0.2457
     10  N        -14.0550   15.0290   10.4730 N.3   152  PHE152     -0.1241
     11  CA       -13.1700   13.9800    9.9590 C.3   152  PHE152      0.1605
     12  C        -13.2620   13.9400    8.4360 C.2   152  PHE152      0.2264
     13  O        -12.2460   13.9130    7.7420 O.2   152  PHE152     -0.2867
     14  CB       -13.5660   12.5910   10.4740 C.3   152  PHE152      0.0534
     15  CG       -13.0290   12.2490   11.8400 C.ar  152  PHE152     -0.0203
     16  CD1      -11.7010   12.4690   12.1730 C.ar  152  PHE152     -0.0042
     17  CD2      -13.8600   11.6540   12.7800 C.ar  152  PHE152     -0.0042
     18  CE1      -11.2200   12.1210   13.4390 C.ar  152  PHE152     -0.0003
     19  CE2      -13.3870   11.2950   14.0390 C.ar  152  PHE152     -0.0003
     20  CZ       -12.0670   11.5350   14.3700 C.ar  152  PHE152     -0.0000
     21  N        -18.5400    6.4650   20.1360 N.3   195  PHE195     -0.1241
     22  CA       -18.6080    7.5900   19.2120 C.3   195  PHE195      0.1605
     23  C        -18.9920    7.1230   17.8270 C.2   195  PHE195      0.2264
     24  O        -18.2730    6.3530   17.2050 O.2   195  PHE195     -0.2867
     25  CB       -17.2800    8.3420   19.1470 C.3   195  PHE195      0.0534
     26  CG       -16.9950    9.1500   20.3720 C.ar  195  PHE195     -0.0203
     27  CD1      -16.2780    8.6050   21.4260 C.ar  195  PHE195     -0.0042
     28  CD2      -17.4640   10.4500   20.4860 C.ar  195  PHE195     -0.0042
     29  CE1      -16.0220    9.3450   22.5660 C.ar  195  PHE195     -0.0003
     30  CE2      -17.2140   11.1990   21.6290 C.ar  195  PHE195     -0.0003
     31  CZ       -16.4880   10.6440   22.6660 C.ar  195  PHE195     -0.0000
     32  N        -16.2240    7.8580   15.2400 N.3   198  ILE198     -0.1245
     33  CA       -15.0300    7.0260   15.1580 C.3   198  ILE198      0.1561
     34  C        -15.1940    5.9320   14.1110 C.2   198  ILE198      0.2260
     35  O        -14.2750    5.6690   13.3460 O.2   198  ILE198     -0.2867
     36  CB       -14.6350    6.4520   16.5340 C.3   198  ILE198      0.0252
     37  CG1      -14.1380    7.5810   17.4380 C.3   198  ILE198      0.0019
     38  CG2      -13.5350    5.4080   16.3900 C.3   198  ILE198      0.0019
     39  CD1      -13.7590    7.1400   18.8350 C.3   198  ILE198      0.0001
     40  N        -16.0240    7.6630   27.8580 N.3   330  LYS330     -0.1231
     41  CA       -15.1230    8.2180   26.8590 C.3   330  LYS330      0.1693
     42  C        -13.7100    7.7940   27.1870 C.2   330  LYS330      0.2592
     43  O        -13.3170    7.7720   28.3520 O.2   330  LYS330     -0.2718
     44  CB       -15.1870    9.7430   26.8480 C.3   330  LYS330      0.0285
     45  CG       -16.5570   10.3400   26.5620 C.3   330  LYS330      0.0035
     46  CD       -16.4480   11.8470   26.3840 C.3   330  LYS330      0.0206
     47  CE       -17.7960   12.4640   26.0550 C.3   330  LYS330      0.1093
     48  NZ       -17.6930   13.9260   25.8070 N.3   330  LYS330     -0.1314
     49  N        -12.9340    7.4770   26.1610 N.am  331  CYS331     -0.1956
     50  CA       -11.5410    7.1210   26.3650 C.3   331  CYS331      0.1843
     51  C        -10.7540    8.2940   26.9440 C.2   331  CYS331      0.2626
     52  O         -9.6710    8.0980   27.4760 O.2   331  CYS331     -0.2714
     53  CB       -10.9160    6.6550   25.0530 C.3   331  CYS331      0.0997
     54  SG       -11.4810    7.5870   23.6190 S.3   331  CYS331     -0.0797
     55  N        -11.3270    9.5000   26.8510 N.am  332  SER332     -0.1950
     56  CA       -10.7070   10.7370   27.3260 C.3   332  SER332      0.1924
     57  C        -11.2280   11.2200   28.6830 C.2   332  SER332      0.2314
     58  O        -10.7260   12.2090   29.2080 O.2   332  SER332     -0.2863
     59  CB       -10.9640   11.8570   26.3170 C.3   332  SER332      0.2116
     60  OG       -12.3610   12.0080   26.1060 O.3   332  SER332     -0.2180
     61  N         -3.9960   19.2720   28.5210 N.3   488  TYR488     -0.1241
     62  CA        -4.8310   20.4540   28.6090 C.3   488  TYR488      0.1605
     63  C         -4.3940   21.3350   29.7600 C.2   488  TYR488      0.2264
     64  O         -4.1530   20.8570   30.8660 O.2   488  TYR488     -0.2867
     65  CB        -6.2900   20.0320   28.7980 C.3   488  TYR488      0.0534
     66  CG        -6.8250   19.2800   27.6000 C.ar  488  TYR488     -0.0201
     67  CD1       -6.7700   17.8880   27.5360 C.ar  488  TYR488     -0.0009
     68  CD2       -7.3720   19.9660   26.5170 C.ar  488  TYR488     -0.0009
     69  CE1       -7.2660   17.2010   26.4230 C.ar  488  TYR488      0.0417
     70  CE2       -7.8650   19.2950   25.4120 C.ar  488  TYR488      0.0417
     71  CZ        -7.8020   17.9170   25.3590 C.ar  488  TYR488      0.1957
     72  OH        -8.3010   17.2750   24.2380 O.3   488  TYR488     -0.2866
     73  N        -11.6440   16.1140   28.0600 N.3   494  THR494     -0.1203
     74  CA       -12.4450   15.5740   26.9590 C.3   494  THR494      0.1994
     75  C        -12.6940   16.6340   25.8990 C.2   494  THR494      0.2618
     76  O        -12.4100   17.8100   26.1090 O.2   494  THR494     -0.2717
     77  CB       -13.8190   15.1050   27.4480 C.3   494  THR494      0.1784
     78  OG1      -14.5050   16.2050   28.0560 O.3   494  THR494     -0.2211
     79  CG2      -13.6830   13.9730   28.4450 C.3   494  THR494      0.0376
     80  N        -13.2360   16.2140   24.7610 N.am  495  GLY495     -0.1942
     81  CA       -13.7320   17.1440   23.7630 C.3   495  GLY495      0.2014
     82  C        -12.7200   17.6440   22.7550 C.2   495  GLY495      0.2639
     83  O        -12.7940   18.7950   22.3260 O.2   495  GLY495     -0.2714
     84  N        -11.7810   16.7920   22.3630 N.am  496  SER496     -0.1949
     85  CA       -10.8650   17.1710   21.2970 C.3   496  SER496      0.1924
     86  C        -11.6470   17.4990   20.0280 C.2   496  SER496      0.2314
     87  O        -12.6840   16.8970   19.7350 O.2   496  SER496     -0.2863
     88  CB        -9.8530   16.0630   21.0150 C.3   496  SER496      0.2116
     89  OG       -10.4980   14.9080   20.5010 O.3   496  SER496     -0.2180
     90  N         -6.0540   13.6560   18.0880 N.3   503  PHE503     -0.1241
     91  CA        -6.3090   12.8730   19.2880 C.3   503  PHE503      0.1605
     92  C         -5.5260   11.5750   19.3440 C.2   503  PHE503      0.2264
     93  O         -5.4530   10.8320   18.3630 O.2   503  PHE503     -0.2867
     94  CB        -7.8000   12.5540   19.3920 C.3   503  PHE503      0.0534
     95  CG        -8.1750   11.8610   20.6730 C.ar  503  PHE503     -0.0203
     96  CD1       -8.3620   10.4880   20.7110 C.ar  503  PHE503     -0.0042
     97  CD2       -8.3020   12.5860   21.8490 C.ar  503  PHE503     -0.0042
     98  CE1       -8.6980    9.8560   21.8970 C.ar  503  PHE503     -0.0003
     99  CE2       -8.6320   11.9570   23.0370 C.ar  503  PHE503     -0.0003
    100  CZ        -8.8250   10.5840   23.0610 C.ar  503  PHE503     -0.0000
@<TRIPOS>BOND
     1    13    12    2
     2    12    11    1
     3    11    10    1
     4    11    14    1
     5    14    15    1
     6    15    16   ar
     7    15    17   ar
     8    16    18   ar
     9     4     3    2
    10    17    19   ar
    11    35    34    2
    12     3     2    1
    13    18    20   ar
    14    19    20   ar
    15    34    33    1
    16     2     1    1
    17     2     5    1
    18    33    32    1
    19    33    36    1
    20     6     5    1
    21     6     7    1
    22    38    36    1
    23    36    37    1
    24     7     9   ar
    25     7     8   ar
    26    24    23    2
    27    37    39    1
    28    23    22    1
    29    90    91    1
    30    93    92    2
    31    25    22    1
    32    25    26    1
    33    22    21    1
    34    91    92    1
    35    91    94    1
    36    94    95    1
    37    87    86    2
    38    86    85    1
    39    26    28   ar
    40    26    27   ar
    41    28    30   ar
    42    89    88    1
    43    95    96   ar
    44    95    97   ar
    45    96    98   ar
    46    88    85    1
    47    85    84    1
    48    27    29   ar
    49    30    31   ar
    50    97    99   ar
    51    98   100   ar
    52    83    82    2
    53    84    82   am
    54    29    31   ar
    55    82    81    1
    56    99   100   ar
    57    54    53    1
    58    81    80    1
    59    72    71    1
    60    80    75   am
    61    53    50    1
    62    71    70   ar
    63    71    69   ar
    64    70    68   ar
    65    48    47    1
    66    75    76    2
    67    75    74    1
    68    47    46    1
    69    60    59    1
    70    49    50    1
    71    49    42   am
    72    59    56    1
    73    50    51    1
    74    46    45    1
    75    69    67   ar
    76    68    66   ar
    77    45    44    1
    78    44    41    1
    79    55    51   am
    80    55    56    1
    81    41    42    1
    82    41    40    1
    83    51    52    2
    84    74    77    1
    85    74    73    1
    86    42    43    2
    87    56    57    1
    88    77    78    1
    89    77    79    1
    90    67    66   ar
    91    66    65    1
    92    61    62    1
    93    62    65    1
    94    62    63    1
    95    57    58    2
    96    63    64    2
