@<TRIPOS>MOLECULE
tmp/4e43B00.pdb
 156 148 0 0 0
SMALL
GASTEIGER

@<TRIPOS>ATOM
      1  N         16.9260   26.1840   28.2360 N.3    23  LEU23      -0.1245
      2  CA        16.5000   27.1410   27.2310 C.3    23  LEU23       0.1561
      3  C         14.9960   27.0470   27.0190 C.2    23  LEU23       0.2260
      4  O         14.4690   25.9610   26.7520 O.2    23  LEU23      -0.2867
      5  CB        17.2350   26.7990   25.9340 C.3    23  LEU23       0.0270
      6  CG        17.2130   27.6900   24.7000 C.3    23  LEU23       0.0019
      7  CD1       17.9500   28.9700   24.9560 C.3    23  LEU23       0.0001
      8  CD2       17.8850   26.9370   23.5630 C.3    23  LEU23       0.0001
      9  N         12.2480   27.0400   24.7420 N.3    25  ASP25      -0.1239
     10  CA        12.3540   26.7330   23.3290 C.3    25  ASP25       0.1674
     11  C         11.0090   26.4840   22.6480 C.2    25  ASP25       0.2266
     12  O         10.4640   25.3730   22.7070 O.2    25  ASP25      -0.2867
     13  CB        13.2840   25.5200   23.1560 C.3    25  ASP25       0.1410
     14  CG        13.6130   25.2290   21.7030 C.2    25  ASP25       0.3668
     15  OD1       13.0730   25.8660   20.7810 O.co2  25  ASP25      -0.2456
     16  OD2       14.4750   24.3750   21.4920 O.co2  25  ASP25      -0.2456
     17  N         10.4280   26.2400   19.5850 N.3    27  GLY27      -0.1210
     18  CA        10.6250   25.3820   18.4120 C.3    27  GLY27       0.1956
     19  C         10.6650   23.9000   18.7650 C.2    27  GLY27       0.2612
     20  O         10.8130   23.0460   17.8750 O.2    27  GLY27      -0.2717
     21  N         10.5290   23.5900   20.0500 N.am   28  ALA28      -0.1965
     22  CA        10.5800   22.1970   20.5160 C.3    28  ALA28       0.1728
     23  C          9.2070   21.7200   20.9810 C.2    28  ALA28       0.2616
     24  O          8.5720   22.3530   21.8360 O.2    28  ALA28      -0.2715
     25  CB        11.6160   22.0310   21.6410 C.3    28  ALA28       0.0334
     26  N          8.7470   20.6030   20.4160 N.am   29  ASP29      -0.1957
     27  CA         7.5030   19.9740   20.8890 C.3    29  ASP29       0.1840
     28  C          7.6360   19.4900   22.3350 C.2    29  ASP29       0.2622
     29  O          6.6830   19.5690   23.1330 O.2    29  ASP29      -0.2715
     30  CB         7.1790   18.7410   20.0490 C.3    29  ASP29       0.1450
     31  CG         6.9000   19.0490   18.5980 C.2    29  ASP29       0.3671
     32  OD1        6.6120   20.2170   18.2150 O.co2  29  ASP29      -0.2456
     33  OD2        6.9400   18.0560   17.8320 O.co2  29  ASP29      -0.2456
     34  N          8.8240   18.9840   22.6560 N.am   30  ASP30      -0.1971
     35  CA         9.0640   18.2550   23.8890 C.3    30  ASP30       0.1709
     36  C         10.1840   18.8910   24.6930 C.2    30  ASP30       0.2293
     37  O         10.9720   19.6980   24.1760 O.2    30  ASP30      -0.2864
     38  CB         9.5180   16.8220   23.5530 C.3    30  ASP30       0.1436
     39  CG         8.6320   16.1410   22.5240 C.2    30  ASP30       0.3671
     40  OD1        7.4230   15.9850   22.7810 O.co2  30  ASP30      -0.2456
     41  OD2        9.1580   15.7580   21.4500 O.co2  30  ASP30      -0.2456
     42  N         13.6550   18.2830   26.6330 N.3    32  VAL32      -0.1245
     43  CA        14.7720   17.3510   26.5140 C.3    32  VAL32       0.1561
     44  C         15.9100   17.8260   27.4030 C.2    32  VAL32       0.2260
     45  O         16.4130   18.9330   27.2300 O.2    32  VAL32      -0.2867
     46  CB        15.3000   17.2220   25.0610 C.3    32  VAL32       0.0252
     47  CG1       16.2360   16.0000   24.9620 C.3    32  VAL32       0.0019
     48  CG2       14.1610   17.0810   24.0520 C.3    32  VAL32       0.0019
     49  N         11.9330    6.8480   22.7820 N.3    45  LYS45      -0.1231
     50  CA        11.3780    7.8400   21.8860 C.3    45  LYS45       0.1693
     51  C         12.4500    8.2860   20.9140 C.2    45  LYS45       0.2592
     52  O         13.6140    8.4430   21.2820 O.2    45  LYS45      -0.2718
     53  CB        10.7910    9.0400   22.6430 C.3    45  LYS45       0.0285
     54  CG         9.9560    9.9470   21.7450 C.3    45  LYS45       0.0035
     55  CD         9.2500   11.0610   22.4830 C.3    45  LYS45       0.0206
     56  CE         8.4920   11.9560   21.5040 C.3    45  LYS45       0.1093
     57  NZ         7.2940   11.2950   20.9130 N.3    45  LYS45      -0.1314
     58  N         12.0480    8.4780   19.6670 N.am   46  MET46      -0.1965
     59  CA        12.9150    9.0720   18.6730 C.3    46  MET46       0.1736
     60  C         12.4570   10.4980   18.4220 C.2    46  MET46       0.2616
     61  O         11.2650   10.7630   18.2450 O.2    46  MET46      -0.2715
     62  CB        12.8950    8.2200   17.4080 C.3    46  MET46       0.0427
     63  CG        14.0100    7.1690   17.3980 C.3    46  MET46       0.0599
     64  SD        15.4430    7.7110   16.4430 S.3    46  MET46      -0.1393
     65  CE        14.7560    7.5940   14.7880 C.3    46  MET46       0.0692
     66  N         13.4110   11.4230   18.4440 N.am   47  ILE47      -0.1963
     67  CA        13.1210   12.8210   18.2000 C.3    47  ILE47       0.1727
     68  C         14.0280   13.3460   17.0890 C.2    47  ILE47       0.2617
     69  O         15.1530   12.8510   16.8940 O.2    47  ILE47      -0.2715
     70  CB        13.2520   13.6800   19.4880 C.3    47  ILE47       0.0290
     71  CG1       14.6590   13.5900   20.0880 C.3    47  ILE47       0.0022
     72  CG2       12.1850   13.2720   20.5080 C.3    47  ILE47       0.0023
     73  CD1       14.9280   14.5950   21.2320 C.3    47  ILE47       0.0001
     74  N         13.5380   14.3440   16.3640 N.am   48  GLY48      -0.1940
     75  CA        14.3050   14.9540   15.2840 C.3    48  GLY48       0.2014
     76  C         14.6820   16.3810   15.6080 C.2    48  GLY48       0.2639
     77  O         13.9020   17.1240   16.1960 O.2    48  GLY48      -0.2714
     78  N         15.8950   16.7630   15.2230 N.am   49  GLY49      -0.1939
     79  CA        16.3460   18.1390   15.3670 C.3    49  GLY49       0.2014
     80  C         17.0010   18.5970   14.0850 C.2    49  GLY49       0.2638
     81  O         16.8660   17.9570   13.0380 O.2    49  GLY49      -0.2714
     82  N         17.7310   19.7030   14.1710 N.am   50  ILE50      -0.1977
     83  CA        18.3830   20.2920   13.0000 C.3    50  ILE50       0.1596
     84  C         19.3430   19.3380   12.2670 C.2    50  ILE50       0.2287
     85  O         19.4470   19.3870   11.0480 O.2    50  ILE50      -0.2864
     86  CB        19.1070   21.6180   13.3710 C.3    50  ILE50       0.0276
     87  CG1       19.3610   22.4790   12.1310 C.3    50  ILE50       0.0022
     88  CG2       20.3990   21.3590   14.0980 C.3    50  ILE50       0.0022
     89  CD1       18.1300   23.2060   11.6380 C.3    50  ILE50       0.0001
     90  N         18.0490   12.6290   13.6000 N.3    53  PHE53      -0.1241
     91  CA        17.2700   11.9840   14.6590 C.3    53  PHE53       0.1605
     92  C         18.1610   11.3740   15.7360 C.2    53  PHE53       0.2264
     93  O         19.2740   10.8920   15.4440 O.2    53  PHE53      -0.2867
     94  CB        16.3660   10.8900   14.0620 C.3    53  PHE53       0.0534
     95  CG        15.2850   11.4070   13.1420 C.ar   53  PHE53      -0.0203
     96  CD1       15.4980   11.4750   11.7670 C.ar   53  PHE53      -0.0042
     97  CD2       14.0460   11.8000   13.6460 C.ar   53  PHE53      -0.0042
     98  CE1       14.4960   11.9480   10.9070 C.ar   53  PHE53      -0.0003
     99  CE2       13.0390   12.2770   12.7960 C.ar   53  PHE53      -0.0003
    100  CZ        13.2670   12.3500   11.4250 C.ar   53  PHE53      -0.0000
    101  N         12.1910   14.1700   28.4510 N.3    76  LEU76      -0.1245
    102  CA        13.0500   13.2690   27.6790 C.3    76  LEU76       0.1561
    103  C         14.4920   13.4960   28.0860 C.2    76  LEU76       0.2260
    104  O         14.9000   14.6340   28.3470 O.2    76  LEU76      -0.2867
    105  CB        12.8730   13.4990   26.1740 C.3    76  LEU76       0.0270
    106  CG        11.4290   13.5770   25.6610 C.3    76  LEU76       0.0019
    107  CD1       11.3980   13.8110   24.1640 C.3    76  LEU76       0.0001
    108  CD2       10.6820   12.2840   26.0160 C.3    76  LEU76       0.0001
    109  N         21.2240   15.8880   24.1400 N.3    80  THR80      -0.1204
    110  CA        20.9320   17.2270   23.6670 C.3    80  THR80       0.1979
    111  C         22.1120   18.1620   23.9720 C.2    80  THR80       0.2460
    112  O         22.7560   18.0140   25.0030 O.2    80  THR80      -0.2732
    113  CB        19.6220   17.7600   24.2870 C.3    80  THR80       0.1783
    114  OG1       19.3890   19.0870   23.8160 O.3    80  THR80      -0.2211
    115  CG2       19.6800   17.7590   25.8170 C.3    80  THR80       0.0376
    116  N         22.4030   19.1100   23.0740 N.am   81  PRO81      -0.2717
    117  CA        23.4740   20.0910   23.3290 C.3    81  PRO81       0.1535
    118  C         23.2160   20.9870   24.5400 C.2    81  PRO81       0.2598
    119  O         24.1610   21.4930   25.1580 O.2    81  PRO81      -0.2715
    120  CB        23.5400   20.9160   22.0360 C.3    81  PRO81       0.0310
    121  CG        22.3620   20.5290   21.2300 C.3    81  PRO81       0.0237
    122  CD        21.8950   19.1870   21.6920 C.3    81  PRO81       0.0939
    123  N         21.9430   21.1660   24.8800 N.am   82  VAL82      -0.1978
    124  CA        21.5410   22.0500   25.9750 C.3    82  VAL82       0.1596
    125  C         20.1970   21.5470   26.4940 C.2    82  VAL82       0.2287
    126  O         19.4130   20.9980   25.7240 O.2    82  VAL82      -0.2864
    127  CB        21.4240   23.5320   25.4880 C.3    82  VAL82       0.0276
    128  CG1       20.4130   23.6690   24.3600 C.3    82  VAL82       0.0022
    129  CG2       21.0870   24.4930   26.6330 C.3    82  VAL82       0.0022
    130  N         16.5200   21.7430   27.2100 N.3    84  ILE84      -0.1245
    131  CA        15.4930   22.5280   26.5310 C.3    84  ILE84       0.1561
    132  C         14.1100   22.2960   27.1090 C.2    84  ILE84       0.2260
    133  O         13.6870   21.1710   27.3400 O.2    84  ILE84      -0.2867
    134  CB        15.4970   22.3810   24.9660 C.3    84  ILE84       0.0252
    135  CG1       15.1280   20.9600   24.5510 C.3    84  ILE84       0.0019
    136  CG2       16.8270   22.8820   24.3590 C.3    84  ILE84       0.0019
    137  CD1       14.9040   20.7770   23.0400 C.3    84  ILE84       0.0001
    138  N          7.3180   22.8600   24.3050 N.3    87  ARG87      -0.1231
    139  CA         5.9300   23.3360   24.4140 C.3    87  ARG87       0.1694
    140  C          5.0980   22.5500   25.4320 C.2    87  ARG87       0.2592
    141  O          4.1980   23.1020   26.0630 O.2    87  ARG87      -0.2718
    142  CB         5.2690   23.3530   23.0400 C.3    87  ARG87       0.0321
    143  CG         5.8150   24.4570   22.0920 C.3    87  ARG87       0.0489
    144  CD         5.0340   24.5930   20.7580 C.3    87  ARG87       0.2205
    145  NE         5.0540   23.3390   20.0200 N.pl3  87  ARG87      -0.0865
    146  CZ         4.1070   22.3980   20.0860 C.cat  87  ARG87       0.5346
    147  NH1        3.0150   22.5830   20.8060 N.pl3  87  ARG87       0.1354
    148  NH2        4.2540   21.2670   19.4050 N.pl3  87  ARG87       0.1354
    149  N          5.4110   21.2710   25.6110 N.am   88  ASN88      -0.1974
    150  CA         4.6540   20.4670   26.5700 C.3    88  ASN88       0.1688
    151  C          4.6520   21.0650   27.9910 C.2    88  ASN88       0.2292
    152  O          3.6480   20.9500   28.7130 O.2    88  ASN88      -0.2864
    153  CB         5.1070   18.9980   26.5730 C.3    88  ASN88       0.1181
    154  CG         6.4250   18.7940   27.2960 C.2    88  ASN88       0.2629
    155  OD1        7.4200   19.4190   26.9590 O.2    88  ASN88      -0.2716
    156  ND2        6.4370   17.9140   28.2890 N.am   88  ASN88      -0.0877
@<TRIPOS>BOND
     1    98   100   ar
     2    98    96   ar
     3    85    84    2
     4   100    99   ar
     5    89    87    1
     6    96    95   ar
     7    87    86    1
     8    84    83    1
     9    99    97   ar
    10    83    86    1
    11    83    82    1
    12    81    80    2
    13    95    97   ar
    14    95    94    1
    15    86    88    1
    16    90    91    1
    17    94    91    1
    18    80    82   am
    19    80    79    1
    20    91    92    1
    21    65    64    1
    22    78    79    1
    23    78    76   am
    24    75    76    1
    25    75    74    1
    26    93    92    2
    27    76    77    2
    28    74    68   am
    29    64    63    1
    30    69    68    2
    31    68    67    1
    32    63    62    1
    33    62    59    1
    34    33    31   ar
    35    20    19    2
    36    67    66    1
    37    67    70    1
    38    32    31   ar
    39    61    60    2
    40    18    19    1
    41    18    17    1
    42    60    66   am
    43    60    59    1
    44    31    30    1
    45    59    58    1
    46    19    21   am
    47   148   146    1
    48    70    71    1
    49    70    72    1
    50    58    51   am
    51   145   146    2
    52   145   144    1
    53    30    27    1
    54    21    22    1
    55   146   147    1
    56    71    73    1
    57    26    27    1
    58    26    23   am
    59    22    23    1
    60    22    25    1
    61   144   143    1
    62    15    14   ar
    63    27    28    1
    64    57    56    1
    65    51    52    2
    66    51    50    1
    67    23    24    2
    68   121   122    1
    69   121   120    1
    70    41    39   ar
    71    16    14   ar
    72    56    55    1
    73   122   116    1
    74    14    13    1
    75    54    55    1
    76    54    53    1
    77    50    53    1
    78    50    49    1
    79   120   117    1
    80   143   142    1
    81    28    34   am
    82    28    29    2
    83    39    40   ar
    84    39    38    1
    85    11    12    2
    86    11    10    1
    87    34    35    1
    88   137   135    1
    89   142   139    1
    90   116   117    1
    91   116   111   am
    92    13    10    1
    93   117   118    1
    94    10     9    1
    95    38    35    1
    96     8     6    1
    97   110   111    1
    98   110   109    1
    99   110   113    1
   100   114   113    1
   101    35    36    1
   102   111   112    2
   103    48    46    1
   104   107   106    1
   105    37    36    2
   106   113   115    1
   107   138   139    1
   108   136   134    1
   109   128   127    1
   110   139   140    1
   111   118   123   am
   112   118   119    2
   113   135   134    1
   114     6     7    1
   115     6     5    1
   116   123   124    1
   117    47    46    1
   118   134   131    1
   119    46    43    1
   120   140   149   am
   121   140   141    2
   122   127   124    1
   123   127   129    1
   124   149   150    1
   125   106   108    1
   126   106   105    1
   127   126   125    2
   128     5     2    1
   129   124   125    1
   130   105   102    1
   131    43    42    1
   132    43    44    1
   133   131   132    1
   134   131   130    1
   135   150   153    1
   136   150   151    1
   137   153   154    1
   138     4     3    2
   139   155   154    2
   140     3     2    1
   141   132   133    2
   142    45    44    2
   143     2     1    1
   144   154   156   am
   145   102   103    1
   146   102   101    1
   147   151   152    2
   148   103   104    2
