@<TRIPOS>MOLECULE
tmp/4e47D01.pdb
 180 176 0 0 0
SMALL
GASTEIGER

@<TRIPOS>ATOM
      1  N         -7.7370   -3.4850   49.7250 N.3   130  TYR130     -0.1241
      2  CA        -9.1070   -3.1750   49.3510 C.3   130  TYR130      0.1605
      3  C         -9.9980   -4.3140   49.8310 C.2   130  TYR130      0.2264
      4  O        -10.3080   -5.2380   49.0850 O.2   130  TYR130     -0.2867
      5  CB        -9.2630   -2.9410   47.8270 C.3   130  TYR130      0.0534
      6  CG       -10.4720   -2.0920   47.4610 C.ar  130  TYR130     -0.0201
      7  CD1      -10.3160   -0.8610   46.8320 C.ar  130  TYR130     -0.0009
      8  CD2      -11.7700   -2.5210   47.7480 C.ar  130  TYR130     -0.0009
      9  CE1      -11.4140   -0.0750   46.4990 C.ar  130  TYR130      0.0417
     10  CE2      -12.8780   -1.7210   47.4520 C.ar  130  TYR130      0.0417
     11  CZ       -12.6900   -0.4890   46.8360 C.ar  130  TYR130      0.1957
     12  OH       -13.7490    0.3350   46.5220 O.3   130  TYR130     -0.2866
     13  N        -21.9340   -9.3210   40.8490 N.3   137  HIS137     -0.1241
     14  CA       -21.8920   -8.3760   39.7310 C.3   137  HIS137      0.1621
     15  C        -23.3060   -7.9530   39.3150 C.2   137  HIS137      0.2264
     16  O        -23.5140   -6.7810   39.0170 O.2   137  HIS137     -0.2867
     17  CB       -21.1790   -9.0180   38.5380 C.3   137  HIS137      0.0745
     18  CG       -19.6890   -8.8630   38.5830 C.ar  137  HIS137      0.0817
     19  ND1      -19.0720   -7.7120   38.1310 N.ar  137  HIS137     -0.2268
     20  CD2      -18.7420   -9.7280   39.0040 C.ar  137  HIS137      0.1154
     21  CE1      -17.7780   -7.9190   38.2800 C.ar  137  HIS137      0.1986
     22  NE2      -17.5340   -9.1110   38.8150 N.ar  137  HIS137     -0.2212
     23  N        -24.8520   -5.3180   41.6280 N.3   140  VAL140     -0.1231
     24  CA       -24.2160   -4.0350   41.3240 C.3   140  VAL140      0.1692
     25  C        -24.8800   -3.4290   40.0890 C.2   140  VAL140      0.2592
     26  O        -25.2760   -2.2620   40.1230 O.2   140  VAL140     -0.2718
     27  CB       -22.6760   -4.1650   41.1420 C.3   140  VAL140      0.0266
     28  CG1      -22.0450   -2.8180   40.7930 C.3   140  VAL140      0.0020
     29  CG2      -22.0280   -4.7430   42.3840 C.3   140  VAL140      0.0020
     30  N        -25.0050   -4.2200   39.0070 N.am  141  ASP141     -0.1974
     31  CA       -25.6120   -3.7940   37.7390 C.3   141  ASP141      0.1709
     32  C        -27.0870   -3.4030   37.8620 C.2   141  ASP141      0.2293
     33  O        -27.5810   -2.6830   36.9940 O.2   141  ASP141     -0.2864
     34  CB       -25.4560   -4.8810   36.6560 C.3   141  ASP141      0.1436
     35  CG       -24.0470   -5.3950   36.4160 C.2   141  ASP141      0.3671
     36  OD1      -23.0840   -4.5910   36.5350 O.co2 141  ASP141     -0.2456
     37  OD2      -23.9020   -6.6080   36.1260 O.co2 141  ASP141     -0.2456
     38  N        -25.6550    4.4720   40.0500 N.3   145  TRP145     -0.1241
     39  CA       -24.2610    4.8850   40.2640 C.3   145  TRP145      0.1605
     40  C        -24.0580    5.4430   41.6900 C.2   145  TRP145      0.2264
     41  O        -22.9830    5.2690   42.2560 O.2   145  TRP145     -0.2867
     42  CB       -23.8150    5.9280   39.2040 C.3   145  TRP145      0.0550
     43  CG       -23.4930    5.3650   37.8430 C.ar  145  TRP145      0.0003
     44  CD1      -24.0590    5.7230   36.6560 C.ar  145  TRP145      0.0946
     45  CD2      -22.4910    4.3830   37.5300 C.ar  145  TRP145      0.0152
     46  NE1      -23.4820    5.0210   35.6250 N.ar  145  TRP145     -0.2442
     47  CE2      -22.5200    4.1860   36.1330 C.ar  145  TRP145      0.0810
     48  CE3      -21.5800    3.6370   38.2970 C.ar  145  TRP145      0.0012
     49  CZ2      -21.6850    3.2590   35.4880 C.ar  145  TRP145      0.0191
     50  CZ3      -20.7410    2.7450   37.6530 C.ar  145  TRP145      0.0001
     51  CH2      -20.8100    2.5500   36.2670 C.ar  145  TRP145      0.0015
     52  N        -22.7850    2.7330   43.8010 N.3   148  ASN148     -0.1225
     53  CA       -21.6850    1.9690   43.2130 C.3   148  ASN148      0.1785
     54  C        -20.3530    2.7070   43.1520 C.2   148  ASN148      0.2598
     55  O        -19.5260    2.3930   42.2930 O.2   148  ASN148     -0.2718
     56  CB       -22.1010    1.4720   41.8210 C.3   148  ASN148      0.1169
     57  CG       -23.1890    0.4300   41.8300 C.2   148  ASN148      0.2627
     58  OD1      -23.3650   -0.3170   42.7940 O.2   148  ASN148     -0.2716
     59  ND2      -23.9260    0.3330   40.7340 N.am  148  ASN148     -0.0877
     60  N        -20.1400    3.6510   44.0740 N.am  149  GLY149     -0.1942
     61  CA       -18.8990    4.4260   44.1550 C.3   149  GLY149      0.2014
     62  C        -17.7070    3.6190   44.6620 C.2   149  GLY149      0.2639
     63  O        -16.5700    3.9150   44.3030 O.2   149  GLY149     -0.2714
     64  N        -17.9670    2.5750   45.4780 N.am  150  ASN150     -0.1958
     65  CA       -16.9610    1.7240   46.1330 C.3   150  ASN150      0.1819
     66  C        -16.9680    0.2330   45.7050 C.2   150  ASN150      0.2622
     67  O        -16.2530   -0.5850   46.2890 O.2   150  ASN150     -0.2715
     68  CB       -17.1110    1.8450   47.6570 C.3   150  ASN150      0.1195
     69  CG       -16.6140    3.1570   48.2140 C.2   150  ASN150      0.2630
     70  OD1      -16.0390    3.9840   47.5060 O.2   150  ASN150     -0.2716
     71  ND2      -16.8440    3.3960   49.4980 N.am  150  ASN150     -0.0877
     72  N        -17.6980   -0.0970   44.6450 N.am  151  THR151     -0.1937
     73  CA       -17.7720   -1.4770   44.1570 C.3   151  THR151      0.2028
     74  C        -16.6010   -1.8400   43.2250 C.2   151  THR151      0.2642
     75  O        -16.6170   -1.4970   42.0390 O.2   151  THR151     -0.2714
     76  CB       -19.0980   -1.6800   43.4610 C.3   151  THR151      0.1808
     77  OG1      -19.1080   -0.7900   42.3480 O.3   151  THR151     -0.2208
     78  CG2      -20.2390   -1.3800   44.3600 C.3   151  THR151      0.0379
     79  N        -15.6490   -2.5950   43.7460 N.am  152  LEU152     -0.1963
     80  CA       -14.4780   -3.0450   42.9930 C.3   152  LEU152      0.1728
     81  C        -14.6130   -4.4990   42.5950 C.2   152  LEU152      0.2616
     82  O        -14.7630   -5.3610   43.4650 O.2   152  LEU152     -0.2715
     83  CB       -13.1790   -2.8300   43.7840 C.3   152  LEU152      0.0311
     84  CG       -11.8540   -3.1840   43.0480 C.3   152  LEU152      0.0022
     85  CD1      -11.5870   -2.2400   41.8850 C.3   152  LEU152      0.0001
     86  CD2      -10.6680   -3.1580   44.0050 C.3   152  LEU152      0.0001
     87  N        -14.5240   -4.7770   41.2760 N.am  153  SER153     -0.1950
     88  CA       -14.5760   -6.1530   40.7860 C.3   153  SER153      0.1924
     89  C        -13.3820   -6.9410   41.3680 C.2   153  SER153      0.2314
     90  O        -12.2590   -6.4320   41.3590 O.2   153  SER153     -0.2863
     91  CB       -14.5360   -6.2020   39.2610 C.3   153  SER153      0.2116
     92  OG       -14.7460   -7.5440   38.8570 O.3   153  SER153     -0.2180
     93  N        -17.8260   -9.0190   43.5670 N.3   159  VAL159     -0.1245
     94  CA       -17.5400   -7.5980   43.6820 C.3   159  VAL159      0.1561
     95  C        -17.2780   -7.3090   45.1750 C.2   159  VAL159      0.2260
     96  O        -17.9980   -7.8060   46.0420 O.2   159  VAL159     -0.2867
     97  CB       -18.6840   -6.7110   43.1010 C.3   159  VAL159      0.0252
     98  CG1      -18.4680   -5.2350   43.4260 C.3   159  VAL159      0.0019
     99  CG2      -18.8240   -6.9000   41.5900 C.3   159  VAL159      0.0019
    100  N        -10.3510    1.7880   49.5420 N.3   178  HIS178     -0.1241
    101  CA       -11.5370    2.4810   49.0300 C.3   178  HIS178      0.1621
    102  C        -11.4260    4.0060   49.1110 C.2   178  HIS178      0.2264
    103  O        -12.3260    4.7070   48.6510 O.2   178  HIS178     -0.2867
    104  CB       -12.8040    1.9920   49.7580 C.3   178  HIS178      0.0745
    105  CG       -12.7670    2.2330   51.2350 C.ar  178  HIS178      0.0817
    106  ND1      -11.9110    1.5120   52.0660 N.ar  178  HIS178     -0.2268
    107  CD2      -13.4590    3.1260   51.9800 C.ar  178  HIS178      0.1154
    108  CE1      -12.1120    1.9880   53.2850 C.ar  178  HIS178      0.1986
    109  NE2      -13.0430    2.9570   53.2880 N.ar  178  HIS178     -0.2212
    110  N         -8.6790    5.5910   47.8720 N.3   180  ALA180     -0.1245
    111  CA        -7.8680    6.0460   46.7410 C.3   180  ALA180      0.1562
    112  C         -8.7400    6.5470   45.5950 C.2   180  ALA180      0.2260
    113  O         -9.6760    5.8700   45.1750 O.2   180  ALA180     -0.2867
    114  CB        -6.9140    4.9720   46.2850 C.3   180  ALA180      0.0290
    115  N         -4.7220   -1.4300   40.9740 N.3   190  TYR190     -0.1241
    116  CA        -5.3090   -2.4730   41.8070 C.3   190  TYR190      0.1605
    117  C         -4.6480   -3.7870   41.3870 C.2   190  TYR190      0.2264
    118  O         -4.4400   -4.0600   40.1910 O.2   190  TYR190     -0.2867
    119  CB        -6.8200   -2.6030   41.6290 C.3   190  TYR190      0.0534
    120  CG        -7.5710   -1.3480   42.0030 C.ar  190  TYR190     -0.0201
    121  CD1       -7.4970   -0.8250   43.2900 C.ar  190  TYR190     -0.0009
    122  CD2       -8.3720   -0.6940   41.0750 C.ar  190  TYR190     -0.0009
    123  CE1       -8.1570    0.3550   43.6270 C.ar  190  TYR190      0.0417
    124  CE2       -9.0610    0.4660   41.4100 C.ar  190  TYR190      0.0417
    125  CZ        -8.9570    0.9820   42.6900 C.ar  190  TYR190      0.1957
    126  OH        -9.5940    2.1550   42.9990 O.3   190  TYR190     -0.2866
    127  N         -8.0850   -7.4230   46.8120 N.3   202  LYS202     -0.1245
    128  CA        -7.1990   -6.6740   45.9460 C.3   202  LYS202      0.1561
    129  C         -6.4320   -5.7220   46.8330 C.2   202  LYS202      0.2260
    130  O         -6.7850   -5.5360   48.0000 O.2   202  LYS202     -0.2867
    131  CB        -7.9590   -5.9540   44.8170 C.3   202  LYS202      0.0271
    132  CG        -8.3840   -6.9160   43.7030 C.3   202  LYS202      0.0035
    133  CD        -8.5320   -6.2190   42.3720 C.3   202  LYS202      0.0206
    134  CE        -8.9820   -7.1770   41.2940 C.3   202  LYS202      0.1093
    135  NZ        -9.7380   -6.4780   40.2220 N.3   202  LYS202     -0.1314
    136  N         -9.6350    4.2460   37.3810 N.3   220  TYR220     -0.1227
    137  CA       -10.8360    3.4350   37.5690 C.3   220  TYR220      0.1736
    138  C        -11.2380    2.7630   36.2430 C.2   220  TYR220      0.2596
    139  O        -10.9560    3.2840   35.1550 O.2   220  TYR220     -0.2718
    140  CB       -12.0100    4.3040   38.0870 C.3   220  TYR220      0.0548
    141  CG       -11.9590    4.7690   39.5330 C.ar  220  TYR220     -0.0200
    142  CD1      -10.7610    4.7770   40.2470 C.ar  220  TYR220     -0.0009
    143  CD2      -13.0970    5.2560   40.1690 C.ar  220  TYR220     -0.0009
    144  CE1      -10.7060    5.2250   41.5670 C.ar  220  TYR220      0.0417
    145  CE2      -13.0470    5.7270   41.4820 C.ar  220  TYR220      0.0417
    146  CZ       -11.8450    5.7230   42.1710 C.ar  220  TYR220      0.1957
    147  OH       -11.7890    6.1630   43.4770 O.3   220  TYR220     -0.2866
    148  N        -11.8620    1.5920   36.3600 N.am  221  GLY221     -0.1942
    149  CA       -12.3030    0.8230   35.2120 C.3   221  GLY221      0.2014
    150  C        -13.7620    1.0110   34.8800 C.2   221  GLY221      0.2639
    151  O        -14.6370    0.4730   35.5640 O.2   221  GLY221     -0.2714
    152  N        -14.0210    1.8100   33.8280 N.am  222  TYR222     -0.1959
    153  CA       -15.3440    2.0600   33.2390 C.3   222  TYR222      0.1771
    154  C        -15.2650    1.8220   31.7430 C.2   222  TYR222      0.2619
    155  O        -14.2990    2.2480   31.1100 O.2   222  TYR222     -0.2715
    156  CB       -15.8070    3.4970   33.4580 C.3   222  TYR222      0.0574
    157  CG       -16.0450    3.8650   34.9020 C.ar  222  TYR222     -0.0198
    158  CD1      -17.1640    3.3920   35.5900 C.ar  222  TYR222     -0.0009
    159  CD2      -15.1710    4.7160   35.5760 C.ar  222  TYR222     -0.0009
    160  CE1      -17.3760    3.7210   36.9270 C.ar  222  TYR222      0.0417
    161  CE2      -15.3670    5.0400   36.9090 C.ar  222  TYR222      0.0417
    162  CZ       -16.4690    4.5400   37.5820 C.ar  222  TYR222      0.1957
    163  OH       -16.6480    4.9010   38.8860 O.3   222  TYR222     -0.2866
    164  N        -16.2830    1.1980   31.1690 N.am  223  ASP223     -0.1971
    165  CA       -16.3530    0.9630   29.7180 C.3   223  ASP223      0.1709
    166  C        -16.7020    2.3000   29.0450 C.2   223  ASP223      0.2293
    167  O        -17.7350    2.9030   29.3500 O.2   223  ASP223     -0.2864
    168  CB       -17.3790   -0.1510   29.4090 C.3   223  ASP223      0.1436
    169  CG       -17.5430   -0.5980   27.9550 C.2   223  ASP223      0.3671
    170  OD1      -16.7570   -0.1430   27.0890 O.co2 223  ASP223     -0.2456
    171  OD2      -18.4550   -1.4030   27.6860 O.co2 223  ASP223     -0.2456
    172  N        -20.2340    4.3440   30.0420 N.3   229  GLU229     -0.1245
    173  CA       -21.0960    3.8700   31.1220 C.3   229  GLU229      0.1567
    174  C        -20.2940    4.1570   32.3910 C.2   229  GLU229      0.2260
    175  O        -19.4460    3.3640   32.8240 O.2   229  GLU229     -0.2867
    176  CB       -21.4590    2.3840   30.9370 C.3   229  GLU229      0.0388
    177  CG       -22.4360    1.8150   31.9610 C.3   229  GLU229      0.1160
    178  CD       -23.8080    2.4560   32.0500 C.2   229  GLU229      0.3649
    179  OE1      -24.3680    2.8380   30.9960 O.co2 229  GLU229     -0.2457
    180  OE2      -24.3400    2.5460   33.1810 O.co2 229  GLU229     -0.2457
@<TRIPOS>BOND
     1   170   169   ar
     2   171   169   ar
     3   169   168    1
     4   166   167    2
     5   166   165    1
     6   168   165    1
     7   165   164    1
     8   172   173    1
     9   176   173    1
    10   176   177    1
    11   179   178   ar
    12   155   154    2
    13   173   174    1
    14   164   154   am
    15   154   153    1
    16   177   178    1
    17   178   180   ar
    18   174   175    2
    19   153   156    1
    20   153   152    1
    21   156   157    1
    22   152   150   am
    23   150   149    1
    24   150   151    2
    25   157   159   ar
    26   157   158   ar
    27   139   138    2
    28   149   148    1
    29    49    47   ar
    30    49    51   ar
    31   159   161   ar
    32   158   160   ar
    33    46    47   ar
    34    46    44   ar
    35    37    35   ar
    36    47    45   ar
    37   138   148   am
    38   138   137    1
    39    51    50   ar
    40    35    36   ar
    41    35    34    1
    42    34    31    1
    43    44    43   ar
    44   161   162   ar
    45   160   162   ar
    46    33    32    2
    47   136   137    1
    48    45    43   ar
    49    45    48   ar
    50   137   140    1
    51   162   163    1
    52    50    48   ar
    53    31    32    1
    54    31    30    1
    55    43    42    1
    56   140   141    1
    57    19    21   ar
    58    19    18   ar
    59    21    22   ar
    60    17    18    1
    61    17    14    1
    62    18    20   ar
    63    22    20   ar
    64    92    91    1
    65    30    25   am
    66    16    15    2
    67    42    39    1
    68    91    88    1
    69    15    14    1
    70   141   143   ar
    71   141   142   ar
    72    14    13    1
    73    38    39    1
    74    25    26    2
    75    25    24    1
    76   143   145   ar
    77   118   117    2
    78   135   134    1
    79   142   144   ar
    80    39    40    1
    81    59    57   am
    82    88    87    1
    83    88    89    1
    84    28    27    1
    85   115   116    1
    86   122   124   ar
    87   122   120   ar
    88    27    24    1
    89    27    29    1
    90    87    81   am
    91   134   133    1
    92    24    23    1
    93    90    89    2
    94   117   116    1
    95   124   125   ar
    96   145   146   ar
    97   144   146   ar
    98    99    97    1
    99   119   116    1
   100   119   120    1
   101    40    41    2
   102    56    57    1
   103    56    53    1
   104    57    58    2
   105    85    84    1
   106   120   121   ar
   107    75    74    2
   108   146   147    1
   109    55    54    2
   110    77    76    1
   111   133   132    1
   112    81    80    1
   113    81    82    2
   114   125   126    1
   115   125   123   ar
   116    80    79    1
   117    80    83    1
   118    84    83    1
   119    84    86    1
   120    97    98    1
   121    97    94    1
   122    54    53    1
   123    54    60   am
   124    53    52    1
   125    74    79   am
   126    74    73    1
   127   121   123   ar
   128    76    73    1
   129    76    78    1
   130    93    94    1
   131    94    95    1
   132   132   131    1
   133    60    61    1
   134    61    62    1
   135    73    72    1
   136    63    62    2
   137    72    66   am
   138    62    64   am
   139   131   128    1
   140   113   112    2
   141    95    96    2
   142    64    65    1
   143   112   111    1
   144    66    65    1
   145    66    67    2
   146   128   127    1
   147   128   129    1
   148    65    68    1
   149   114   111    1
   150     9     7   ar
   151     9    11   ar
   152    12    11    1
   153   111   110    1
   154     7     6   ar
   155   129   130    2
   156    11    10   ar
   157    10     8   ar
   158     6     8   ar
   159     6     5    1
   160    70    69    2
   161    68    69    1
   162     5     2    1
   163    69    71   am
   164   103   102    2
   165   101   102    1
   166   101   100    1
   167   101   104    1
   168     4     3    2
   169     2     1    1
   170     2     3    1
   171   104   105    1
   172   105   107   ar
   173   105   106   ar
   174   107   109   ar
   175   106   108   ar
   176   108   109   ar
