@<TRIPOS>MOLECULE
tmp/4e49A01.pdb
 105 100 0 0 0
SMALL
GASTEIGER

@<TRIPOS>ATOM
      1  N          8.6010    6.1660   11.2940 N.3    89  GLN89      -0.1245
      2  CA         8.9340    5.0260   10.4460 C.3    89  GLN89       0.1566
      3  C          8.6710    3.7540   11.1990 C.2    89  GLN89       0.2260
      4  O          8.6520    3.7630   12.4350 O.2    89  GLN89      -0.2867
      5  CB        10.3790    5.0870    9.9070 C.3    89  GLN89       0.0367
      6  CG        11.4470    5.1720   11.0100 C.3    89  GLN89       0.0905
      7  CD        12.1380    3.9040   11.3700 C.2    89  GLN89       0.2608
      8  OE1       11.6160    2.8070   11.2080 O.2    89  GLN89      -0.2717
      9  NE2       13.3100    4.0390   11.9870 N.am   89  GLN89      -0.0878
     10  N         10.0050   -0.5720   10.9610 N.3    91  HIS91      -0.1241
     11  CA        10.8840   -1.5460   10.3520 C.3    91  HIS91       0.1621
     12  C         10.8110   -2.8340   11.1900 C.2    91  HIS91       0.2264
     13  O         10.1950   -2.8620   12.2740 O.2    91  HIS91      -0.2867
     14  CB        12.3330   -1.0180   10.2700 C.3    91  HIS91       0.0745
     15  CG        12.9310   -0.7350   11.6160 C.ar   91  HIS91       0.0817
     16  ND1       12.7750    0.4790   12.2590 N.ar   91  HIS91      -0.2268
     17  CD2       13.5230   -1.5820   12.5240 C.ar   91  HIS91       0.1154
     18  CE1       13.3220    0.3760   13.4650 C.ar   91  HIS91       0.1986
     19  NE2       13.7690   -0.8700   13.6620 N.ar   91  HIS91      -0.2212
     20  N          9.2000   -2.7080   14.9340 N.3   116  HIS116     -0.1241
     21  CA         9.4340   -1.4900   15.6790 C.3   116  HIS116      0.1621
     22  C          8.7490   -0.3100   14.9730 C.2   116  HIS116      0.2264
     23  O          9.1730    0.0350   13.8360 O.2   116  HIS116     -0.2867
     24  CB        10.9620   -1.2110   15.7230 C.3   116  HIS116      0.0745
     25  CG        11.6640   -2.1620   16.6360 C.ar  116  HIS116      0.0817
     26  ND1       13.0270   -2.4200   16.6300 N.ar  116  HIS116     -0.2268
     27  CD2       11.1240   -2.9800   17.5550 C.ar  116  HIS116      0.1154
     28  CE1       13.3240   -3.3430   17.5370 C.ar  116  HIS116      0.1986
     29  NE2       12.1870   -3.7140   18.1120 N.ar  116  HIS116     -0.2212
     30  N          8.5050    3.5150   15.2320 N.3   118  VAL118     -0.1245
     31  CA         9.3290    4.5500   15.8930 C.3   118  VAL118      0.1561
     32  C          8.6150    5.8450   15.9000 C.2   118  VAL118      0.2260
     33  O          8.1530    6.2970   14.8310 O.2   118  VAL118     -0.2867
     34  CB        10.6210    4.6540   15.1340 C.3   118  VAL118      0.0252
     35  CG1       11.5270    5.7480   15.7200 C.3   118  VAL118      0.0019
     36  CG2       11.3830    3.2870   15.1210 C.3   118  VAL118      0.0019
     37  N         12.4900   14.9060   14.6880 N.3   127  PHE127     -0.1241
     38  CA        13.1810   13.7040   15.1380 C.3   127  PHE127      0.1605
     39  C         14.6190   14.0120   15.5000 C.2   127  PHE127      0.2264
     40  O         15.1690   13.4090   16.4260 O.2   127  PHE127     -0.2867
     41  CB        13.1270   12.6740   13.9600 C.3   127  PHE127      0.0534
     42  CG        13.8700   11.3740   14.2210 C.ar  127  PHE127     -0.0203
     43  CD1       13.1930   10.3320   14.8990 C.ar  127  PHE127     -0.0042
     44  CD2       15.1940   11.2120   13.8610 C.ar  127  PHE127     -0.0042
     45  CE1       13.8820    9.1200   15.1620 C.ar  127  PHE127     -0.0003
     46  CE2       15.8630   10.0050   14.1350 C.ar  127  PHE127     -0.0003
     47  CZ        15.1670    8.9570   14.7710 C.ar  127  PHE127     -0.0000
     48  N         12.1990    9.5900   22.2950 N.3   137  LEU137     -0.1245
     49  CA        11.5860    8.6420   21.3490 C.3   137  LEU137      0.1561
     50  C         10.7130    7.6650   22.1530 C.2   137  LEU137      0.2260
     51  O         10.9500    7.3830   23.3430 O.2   137  LEU137     -0.2867
     52  CB        12.6650    7.8480   20.6370 C.3   137  LEU137      0.0270
     53  CG        13.5960    8.6840   19.7840 C.3   137  LEU137      0.0019
     54  CD1       14.6500    7.7640   19.1260 C.3   137  LEU137      0.0001
     55  CD2       12.8890    9.4970   18.6480 C.3   137  LEU137      0.0001
     56  N          9.1850    3.6830   21.1400 N.3   139  VAL139     -0.1245
     57  CA         9.0580    2.6080   20.1570 C.3   139  VAL139      0.1561
     58  C          8.0340    1.5920   20.6430 C.2   139  VAL139      0.2260
     59  O          8.0890    1.1440   21.7740 O.2   139  VAL139     -0.2867
     60  CB        10.3990    1.9350   19.8660 C.3   139  VAL139      0.0252
     61  CG1       10.1190    0.8640   18.7470 C.3   139  VAL139      0.0019
     62  CG2       11.3520    2.9510   19.3430 C.3   139  VAL139      0.0019
     63  N         18.1320    3.1130   21.1670 N.3   194  LEU194     -0.1231
     64  CA        18.1760    2.4850   19.8110 C.3   194  LEU194      0.1693
     65  C         18.8360    1.1660   19.8770 C.2   194  LEU194      0.2593
     66  O         19.8660    0.9900   20.6020 O.2   194  LEU194     -0.2718
     67  CB        18.9890    3.4160   18.8570 C.3   194  LEU194      0.0284
     68  CG        18.3330    4.6590   18.3280 C.3   194  LEU194      0.0019
     69  CD1       17.7240    5.5990   19.2990 C.3   194  LEU194      0.0001
     70  CD2       19.3150    5.4660   17.4120 C.3   194  LEU194      0.0001
     71  N         18.3970    0.2400   19.0430 N.am  195  THR195     -0.1939
     72  CA        19.1080   -1.0660   19.0090 C.3   195  THR195      0.2028
     73  C         20.0640   -1.1530   17.8390 C.2   195  THR195      0.2642
     74  O         20.6970   -2.2260   17.7050 O.2   195  THR195     -0.2714
     75  CB        18.0740   -2.2240   18.9280 C.3   195  THR195      0.1808
     76  OG1       17.4950   -2.2650   17.6030 O.3   195  THR195     -0.2208
     77  CG2       17.0350   -2.1900   19.9490 C.3   195  THR195      0.0379
     78  N         20.2410   -0.0620   17.0820 N.am  196  THR196     -0.1950
     79  CA        21.2930    0.0220   16.0390 C.3   196  THR196      0.1897
     80  C         22.0940    1.2490   16.3540 C.2   196  THR196      0.2313
     81  O         21.5970    2.2180   16.9460 O.2   196  THR196     -0.2863
     82  CB        20.6050    0.1560   14.6310 C.3   196  THR196      0.1794
     83  OG1       19.5850    1.1760   14.7020 O.3   196  THR196     -0.2208
     84  CG2       20.0210   -1.1430   14.2080 C.3   196  THR196      0.0378
     85  N         14.9810    6.2770   24.4820 N.3   203  VAL203     -0.1245
     86  CA        13.7680    5.5320   24.1100 C.3   203  VAL203      0.1561
     87  C         12.9420    5.0580   25.2800 C.2   203  VAL203      0.2260
     88  O         13.4520    4.3750   26.1950 O.2   203  VAL203     -0.2867
     89  CB        14.0910    4.2930   23.2610 C.3   203  VAL203      0.0252
     90  CG1       12.8010    3.6910   22.6810 C.3   203  VAL203      0.0019
     91  CG2       14.9240    4.7680   22.0360 C.3   203  VAL203      0.0019
     92  N         10.5180    2.2280   25.6970 N.3   205  TRP205     -0.1241
     93  CA        10.1050    1.0480   24.9380 C.3   205  TRP205      0.1605
     94  C          8.7900    0.5690   25.4950 C.2   205  TRP205      0.2264
     95  O          8.5760    0.4770   26.7320 O.2   205  TRP205     -0.2867
     96  CB        11.1670   -0.0910   25.1860 C.3   205  TRP205      0.0550
     97  CG        12.2930    0.0570   24.2200 C.ar  205  TRP205      0.0003
     98  CD1       13.5470    0.6890   24.4010 C.ar  205  TRP205      0.0946
     99  CD2       12.2920   -0.3780   22.8530 C.ar  205  TRP205      0.0152
    100  NE1       14.2550    0.6850   23.1990 N.ar  205  TRP205     -0.2442
    101  CE2       13.5330   -0.0050   22.2540 C.ar  205  TRP205      0.0810
    102  CE3       11.3510   -1.0730   22.0590 C.ar  205  TRP205      0.0012
    103  CZ2       13.8130   -0.2430   20.9030 C.ar  205  TRP205      0.0191
    104  CZ3       11.6550   -1.3780   20.7240 C.ar  205  TRP205      0.0001
    105  CH2       12.8610   -0.9820   20.1600 C.ar  205  TRP205      0.0015
@<TRIPOS>BOND
     1     5     2    1
     2     5     6    1
     3    14    11    1
     4    14    15    1
     5    11    10    1
     6    11    12    1
     7     2     3    1
     8     2     1    1
     9     6     7    1
    10    12    13    2
    11     3     4    2
    12     8     7    2
    13     7     9   am
    14    15    16   ar
    15    15    17   ar
    16    16    18   ar
    17    17    19   ar
    18    18    19   ar
    19    23    22    2
    20    44    46   ar
    21    44    42   ar
    22    41    42    1
    23    41    38    1
    24    46    47   ar
    25    84    82    1
    26    42    43   ar
    27    82    83    1
    28    82    79    1
    29    37    38    1
    30    47    45   ar
    31    33    32    2
    32    43    45   ar
    33    20    21    1
    34    22    21    1
    35    36    34    1
    36    34    35    1
    37    34    31    1
    38    38    39    1
    39    30    31    1
    40    39    40    2
    41    21    24    1
    42    24    25    1
    43    31    32    1
    44    79    80    1
    45    79    78    1
    46    80    81    2
    47    26    25   ar
    48    26    28   ar
    49    25    27   ar
    50    78    73   am
    51    70    68    1
    52    28    29   ar
    53    27    29   ar
    54    76    75    1
    55    74    73    2
    56    73    72    1
    57    68    67    1
    58    68    69    1
    59    55    53    1
    60    61    60    1
    61    67    64    1
    62    75    72    1
    63    75    77    1
    64    72    71    1
    65    71    65   am
    66    54    53    1
    67    62    60    1
    68    53    52    1
    69    64    65    1
    70    64    63    1
    71    60    57    1
    72    65    66    2
    73    57    58    1
    74    57    56    1
    75   105   104   ar
    76   105   103   ar
    77    52    49    1
    78    58    59    2
    79   104   102   ar
    80   103   101   ar
    81    49    50    1
    82    49    48    1
    83    91    89    1
    84   102    99   ar
    85    50    51    2
    86   101    99   ar
    87   101   100   ar
    88    90    89    1
    89    99    97   ar
    90   100    98   ar
    91    89    86    1
    92    86    85    1
    93    86    87    1
    94    97    98   ar
    95    97    96    1
    96    93    96    1
    97    93    94    1
    98    93    92    1
    99    87    88    2
   100    94    95    2
