@<TRIPOS>MOLECULE
tmp/4e4aA00.pdb
 97 97 0 0 0
SMALL
GASTEIGER

@<TRIPOS>ATOM
      1  N         29.2640   -0.2050   10.2270 N.3     2  TRP2       -0.1241
      2  CA        28.6350   -1.2080   11.1200 C.3     2  TRP2        0.1605
      3  C         27.6260   -2.0660   10.3450 C.2     2  TRP2        0.2264
      4  O         27.0310   -1.6230    9.3110 O.2     2  TRP2       -0.2867
      5  CB        27.9670   -0.4920   12.3060 C.3     2  TRP2        0.0550
      6  CG        26.7350    0.2740   11.9150 C.ar    2  TRP2        0.0003
      7  CD1       26.6600    1.5970   11.5710 C.ar    2  TRP2        0.0946
      8  CD2       25.3650   -0.1990   11.9190 C.ar    2  TRP2        0.0152
      9  NE1       25.3710    1.9550   11.2910 N.ar    2  TRP2       -0.2442
     10  CE2       24.5370    0.8900   11.4950 C.ar    2  TRP2        0.0810
     11  CE3       24.7590   -1.4510   12.1660 C.ar    2  TRP2        0.0012
     12  CZ2       23.1580    0.7720   11.3610 C.ar    2  TRP2        0.0191
     13  CZ3       23.3750   -1.5410   12.0210 C.ar    2  TRP2        0.0001
     14  CH2       22.5900   -0.4260   11.6140 C.ar    2  TRP2        0.0015
     15  N          8.5050    6.5830   11.2760 N.3    89  GLN89      -0.1245
     16  CA         8.8780    5.4860   10.4280 C.3    89  GLN89       0.1566
     17  C          8.5680    4.2250   11.1460 C.2    89  GLN89       0.2260
     18  O          8.5010    4.2030   12.3940 O.2    89  GLN89      -0.2867
     19  CB        10.3430    5.5460   10.0300 C.3    89  GLN89       0.0367
     20  CG        11.3550    5.5250   11.0190 C.3    89  GLN89       0.0905
     21  CD        12.1790    4.1260   10.9510 C.2    89  GLN89       0.2608
     22  OE1       11.6410    3.1250   11.3130 O.2    89  GLN89      -0.2717
     23  NE2       13.4350    4.1240   10.4640 N.am   89  GLN89      -0.0878
     24  N         10.0310   -0.1010   10.9410 N.3    91  HIS91      -0.1241
     25  CA        10.8960   -1.0970   10.2960 C.3    91  HIS91       0.1621
     26  C         10.8130   -2.3620   11.1190 C.2    91  HIS91       0.2264
     27  O         10.1710   -2.3900   12.1730 O.2    91  HIS91      -0.2867
     28  CB        12.3510   -0.5670   10.2670 C.3    91  HIS91       0.0745
     29  CG        12.9330   -0.3010   11.6310 C.ar   91  HIS91       0.0817
     30  ND1       12.7930    0.9060   12.2640 N.ar   91  HIS91      -0.2268
     31  CD2       13.5780   -1.1510   12.4580 C.ar   91  HIS91       0.1154
     32  CE1       13.3410    0.7470   13.4970 C.ar   91  HIS91       0.1986
     33  NE2       13.7930   -0.5160   13.6460 N.ar   91  HIS91      -0.2212
     34  N          9.2030   -2.2500   14.8730 N.3   116  HIS116     -0.1241
     35  CA         9.4500   -1.0380   15.6500 C.3   116  HIS116      0.1621
     36  C          8.7590    0.0860   14.9370 C.2   116  HIS116      0.2264
     37  O          9.1770    0.4690   13.7880 O.2   116  HIS116     -0.2867
     38  CB        10.9680   -0.7620   15.7140 C.3   116  HIS116      0.0745
     39  CG        11.6580   -1.7430   16.6250 C.ar  116  HIS116      0.0817
     40  ND1       13.0170   -2.0220   16.6130 N.ar  116  HIS116     -0.2268
     41  CD2       11.1430   -2.5580   17.5730 C.ar  116  HIS116      0.1154
     42  CE1       13.2950   -2.9640   17.4840 C.ar  116  HIS116      0.1986
     43  NE2       12.1860   -3.2850   18.0950 N.ar  116  HIS116     -0.2212
     44  N          8.4880    3.9720   15.2240 N.3   118  VAL118     -0.1245
     45  CA         9.3140    4.9740   15.8900 C.3   118  VAL118      0.1561
     46  C          8.5970    6.2910   15.8690 C.2   118  VAL118      0.2260
     47  O          8.1110    6.7460   14.7880 O.2   118  VAL118     -0.2867
     48  CB        10.6360    5.0720   15.1360 C.3   118  VAL118      0.0252
     49  CG1       11.5560    6.1410   15.8210 C.3   118  VAL118      0.0019
     50  CG2       11.3510    3.7200   14.9910 C.3   118  VAL118      0.0019
     51  N         12.6650   15.5140   14.7900 N.3   127  PHE127     -0.1241
     52  CA        13.2450   14.2630   15.2580 C.3   127  PHE127      0.1605
     53  C         14.7070   14.5510   15.6320 C.2   127  PHE127      0.2264
     54  O         15.2080   13.9290   16.5680 O.2   127  PHE127     -0.2867
     55  CB        13.1840   13.2460   14.0880 C.3   127  PHE127      0.0534
     56  CG        13.9470   11.9500   14.3330 C.ar  127  PHE127     -0.0203
     57  CD1       13.2710   10.8810   14.9280 C.ar  127  PHE127     -0.0042
     58  CD2       15.3030   11.7990   13.9630 C.ar  127  PHE127     -0.0042
     59  CE1       13.9420    9.6270   15.1660 C.ar  127  PHE127     -0.0003
     60  CE2       15.9670   10.5710   14.2530 C.ar  127  PHE127     -0.0003
     61  CZ        15.1770    9.4820   14.8330 C.ar  127  PHE127     -0.0000
     62  N         17.9280    3.4770   21.1070 N.3   194  LEU194     -0.1231
     63  CA        17.8270    2.9330   19.7080 C.3   194  LEU194      0.1693
     64  C         18.6380    1.6520   19.6990 C.2   194  LEU194      0.2593
     65  O         19.6440    1.5000   20.4550 O.2   194  LEU194     -0.2718
     66  CB        18.4490    3.9470   18.7010 C.3   194  LEU194      0.0284
     67  CG        17.7400    5.2820   18.6160 C.3   194  LEU194      0.0019
     68  CD1       18.5010    6.2250   17.6120 C.3   194  LEU194      0.0001
     69  CD2       16.3450    4.9500   18.0920 C.3   194  LEU194      0.0001
     70  N         18.3030    0.7140   18.8130 N.am  195  THR195     -0.1939
     71  CA        18.9930   -0.5810   18.8470 C.3   195  THR195      0.2028
     72  C         19.9130   -0.7500   17.6380 C.2   195  THR195      0.2643
     73  O         20.5660   -1.7910   17.5570 O.2   195  THR195     -0.2714
     74  CB        17.9990   -1.7640   18.8770 C.3   195  THR195      0.1808
     75  OG1       17.3290   -1.8030   17.5920 O.3   195  THR195     -0.2208
     76  CG2       17.0530   -1.7120   20.0020 C.3   195  THR195      0.0379
     77  N         20.0910    0.3430   16.8820 N.am  196  THR196     -0.1937
     78  CA        21.1770    0.3710   15.8620 C.3   196  THR196      0.2013
     79  C         22.0030    1.6000   16.1700 C.2   196  THR196      0.2484
     80  O         21.5250    2.5670   16.7580 O.2   196  THR196     -0.2729
     81  CB        20.6370    0.4780   14.4240 C.3   196  THR196      0.1807
     82  OG1       19.8360    1.6410   14.3340 O.3   196  THR196     -0.2208
     83  CG2       19.7440   -0.6590   14.0850 C.3   196  THR196      0.0379
     84  N         23.2800    1.5910   15.7310 N.am  197  PRO197     -0.2715
     85  CA        24.0390    2.8360   15.8390 C.3   197  PRO197      0.1521
     86  C         23.2360    4.0260   15.2690 C.2   197  PRO197      0.2440
     87  O         22.6260    3.9150   14.1540 O.2   197  PRO197     -0.2731
     88  CB        25.2850    2.5380   15.0280 C.3   197  PRO197      0.0310
     89  CG        25.5160    1.0920   15.1900 C.3   197  PRO197      0.0237
     90  CD        24.0630    0.4880   15.1920 C.3   197  PRO197      0.0939
     91  N         23.2290    5.1770   15.9380 N.am  198  PRO198     -0.2727
     92  CA        24.1380    5.4800   17.0360 C.3   198  PRO198      0.1402
     93  C         23.6990    5.1430   18.4830 C.2   198  PRO198      0.2269
     94  O         24.3520    5.5870   19.4310 O.2   198  PRO198     -0.2865
     95  CB        24.3230    6.9820   16.8810 C.3   198  PRO198      0.0296
     96  CG        23.0700    7.4820   16.2750 C.3   198  PRO198      0.0237
     97  CD        22.4860    6.3710   15.4410 C.3   198  PRO198      0.0939
@<TRIPOS>BOND
     1     4     3    2
     2    19    16    1
     3    19    20    1
     4     1     2    1
     5    28    25    1
     6    28    29    1
     7    25    24    1
     8    25    26    1
     9     3     2    1
    10    16    17    1
    11    16    15    1
    12    23    21   am
    13    21    20    1
    14    21    22    2
    15    26    27    2
    16     2     5    1
    17    17    18    2
    18     9    10   ar
    19     9     7   ar
    20    12    10   ar
    21    12    14   ar
    22    10     8   ar
    23     7     6   ar
    24    14    13   ar
    25    29    30   ar
    26    29    31   ar
    27     6     8   ar
    28     6     5    1
    29     8    11   ar
    30    13    11   ar
    31    30    32   ar
    32    31    33   ar
    33    32    33   ar
    34    37    36    2
    35    58    60   ar
    36    58    56   ar
    37    83    81    1
    38    55    56    1
    39    55    52    1
    40    87    86    2
    41    60    61   ar
    42    56    57   ar
    43    82    81    1
    44    81    78    1
    45    47    46    2
    46    51    52    1
    47    61    59   ar
    48    34    35    1
    49    57    59   ar
    50    36    35    1
    51    50    48    1
    52    88    89    1
    53    88    85    1
    54    48    49    1
    55    48    45    1
    56    89    90    1
    57    90    84    1
    58    44    45    1
    59    52    53    1
    60    86    85    1
    61    86    91   am
    62    97    91    1
    63    97    96    1
    64    53    54    2
    65    35    38    1
    66    38    39    1
    67    84    85    1
    68    84    79   am
    69    78    79    1
    70    78    77    1
    71    46    45    1
    72    91    92    1
    73    79    80    2
    74    96    95    1
    75    40    39   ar
    76    40    42   ar
    77    39    41   ar
    78    95    92    1
    79    77    72   am
    80    92    93    1
    81    42    43   ar
    82    73    72    2
    83    41    43   ar
    84    75    74    1
    85    68    67    1
    86    72    71    1
    87    69    67    1
    88    93    94    2
    89    67    66    1
    90    66    63    1
    91    70    71    1
    92    70    64   am
    93    71    74    1
    94    74    76    1
    95    64    63    1
    96    64    65    2
    97    63    62    1
