@<TRIPOS>MOLECULE
tmp/4e4kA01.pdb
 210 200 0 0 0
SMALL
GASTEIGER

@<TRIPOS>ATOM
      1  N         26.5050   26.2820   10.2250 N.3    73  ILE73      -0.1245
      2  CA        25.8110   26.8110   11.3990 C.3    73  ILE73       0.1561
      3  C         24.2990   26.8940   11.2060 C.2    73  ILE73       0.2260
      4  O         23.5360   26.5700   12.1150 O.2    73  ILE73      -0.2867
      5  CB        26.3400   28.2160   11.7850 C.3    73  ILE73       0.0252
      6  CG1       27.8360   28.1430   12.1080 C.3    73  ILE73       0.0019
      7  CG2       25.5800   28.7480   12.9900 C.3    73  ILE73       0.0019
      8  CD1       28.1800   27.1790   13.2240 C.3    73  ILE73       0.0001
      9  N         22.5400   23.5130   11.4050 N.3    76  PHE76      -0.1227
     10  CA        22.3900   22.9290   12.7290 C.3    76  PHE76       0.1736
     11  C         21.5420   23.7580   13.6630 C.2    76  PHE76       0.2595
     12  O         21.1050   23.2860   14.7060 O.2    76  PHE76      -0.2718
     13  CB        23.7660   22.6270   13.3090 C.3    76  PHE76       0.0547
     14  CG        24.4890   21.5380   12.5580 C.ar   76  PHE76      -0.0202
     15  CD1       24.8290   21.7150   11.2180 C.ar   76  PHE76      -0.0042
     16  CD2       24.7710   20.3120   13.1590 C.ar   76  PHE76      -0.0042
     17  CE1       25.4340   20.6900   10.4920 C.ar   76  PHE76      -0.0003
     18  CE2       25.3770   19.2790   12.4420 C.ar   76  PHE76      -0.0003
     19  CZ        25.7070   19.4660   11.1080 C.ar   76  PHE76      -0.0000
     20  N         21.3010   24.9980   13.2690 N.am   77  GLN77      -0.1979
     21  CA        20.4470   25.8790   14.0420 C.3    77  GLN77       0.1601
     22  C         19.0290   25.3790   13.7500 C.2    77  GLN77       0.2287
     23  O         18.1810   25.3040   14.6420 O.2    77  GLN77      -0.2864
     24  CB        20.5950   27.3240   13.5570 C.3    77  GLN77       0.0394
     25  CG        21.8740   28.0310   13.9910 C.3    77  GLN77       0.0908
     26  CD        21.7440   28.7020   15.3430 C.2    77  GLN77       0.2608
     27  OE1       21.4550   28.0520   16.3440 O.2    77  GLN77      -0.2717
     28  NE2       21.9590   30.0130   15.3780 N.am   77  GLN77      -0.0878
     29  N         18.2210   22.3380   12.7080 N.3    79  CYS79      -0.1221
     30  CA        18.0980   21.0250   13.3070 C.3    79  CYS79       0.1808
     31  C         17.6300   21.2100   14.7480 C.2    79  CYS79       0.2601
     32  O         16.8300   20.4290   15.2580 O.2    79  CYS79      -0.2717
     33  CB        19.4470   20.3190   13.2840 C.3    79  CYS79       0.0970
     34  SG        19.5520   18.9770   14.4570 S.3    79  CYS79      -0.0800
     35  N         18.1380   22.2600   15.3890 N.am   80  GLN80      -0.1979
     36  CA        17.7950   22.5990   16.7650 C.3    80  GLN80       0.1601
     37  C         16.3150   22.9050   16.9210 C.2    80  GLN80       0.2287
     38  O         15.6770   22.4700   17.8820 O.2    80  GLN80      -0.2864
     39  CB        18.6050   23.8150   17.2270 C.3    80  GLN80       0.0394
     40  CG        18.2920   24.2770   18.6560 C.3    80  GLN80       0.0908
     41  CD        19.3550   25.2060   19.2280 C.2    80  GLN80       0.2608
     42  OE1       19.6330   26.2770   18.6800 O.2    80  GLN80      -0.2717
     43  NE2       19.9630   24.7920   20.3350 N.am   80  GLN80      -0.0878
     44  N         13.9690   21.9010   14.9100 N.3    82  ARG82      -0.1231
     45  CA        13.1560   20.7340   14.5870 C.3    82  ARG82       0.1694
     46  C         13.1180   19.8760   15.8380 C.2    82  ARG82       0.2592
     47  O         12.1610   19.1430   16.0750 O.2    82  ARG82      -0.2718
     48  CB        13.7560   19.9490   13.4120 C.3    82  ARG82       0.0321
     49  CG        12.8250   19.8270   12.2000 C.3    82  ARG82       0.0489
     50  CD        11.7550   18.7280   12.3450 C.3    82  ARG82       0.2205
     51  NE        10.8180   18.9600   13.4440 N.pl3  82  ARG82      -0.0865
     52  CZ         9.7070   18.2530   13.6500 C.cat  82  ARG82       0.5346
     53  NH1        9.3830   17.2700   12.8350 N.pl3  82  ARG82       0.1354
     54  NH2        8.9110   18.5250   14.6730 N.pl3  82  ARG82       0.1354
     55  N         14.1690   19.9940   16.6460 N.am   83  SER83      -0.1952
     56  CA        14.2780   19.2490   17.8950 C.3    83  SER83       0.1924
     57  C         13.2550   19.7580   18.8940 C.2    83  SER83       0.2314
     58  O         12.6290   18.9720   19.5920 O.2    83  SER83      -0.2863
     59  CB        15.6720   19.4090   18.4960 C.3    83  SER83       0.2116
     60  OG        16.6640   19.1710   17.5210 O.3    83  SER83      -0.2180
     61  N          9.8250   18.4670   17.8870 N.3    86  ALA86      -0.1245
     62  CA         9.6810   17.0530   18.2160 C.3    86  ALA86       0.1562
     63  C          9.3510   16.8710   19.6890 C.2    86  ALA86       0.2260
     64  O          8.4460   16.1070   20.0380 O.2    86  ALA86      -0.2867
     65  CB        10.9500   16.3080   17.8690 C.3    86  ALA86       0.0290
     66  N         15.0680   12.2150   23.3550 N.3   117  HIS117     -0.1241
     67  CA        15.9840   12.0350   22.2310 C.3   117  HIS117      0.1621
     68  C         16.0290   10.6390   21.6320 C.2   117  HIS117      0.2264
     69  O         16.2010   10.4910   20.4240 O.2   117  HIS117     -0.2867
     70  CB        17.3920   12.5120   22.5950 C.3   117  HIS117      0.0745
     71  CG        17.5540   13.9950   22.4860 C.ar  117  HIS117      0.0817
     72  ND1       17.2600   14.8580   23.5210 N.ar  117  HIS117     -0.2268
     73  CD2       17.8600   14.7750   21.4240 C.ar  117  HIS117      0.1154
     74  CE1       17.3700   16.1060   23.0990 C.ar  117  HIS117      0.1986
     75  NE2       17.7310   16.0810   21.8290 N.ar  117  HIS117     -0.2212
     76  N         13.2910   10.6500   19.2860 N.3   120  ILE120     -0.1231
     77  CA        13.5960   11.4980   18.1530 C.3   120  ILE120      0.1692
     78  C         14.3660   10.7120   17.1010 C.2   120  ILE120      0.2592
     79  O         13.9280   10.6010   15.9640 O.2   120  ILE120     -0.2718
     80  CB        14.4300   12.7380   18.5860 C.3   120  ILE120      0.0266
     81  CG1       13.4920   13.8590   19.0480 C.3   120  ILE120      0.0019
     82  CG2       15.3280   13.1880   17.4580 C.3   120  ILE120      0.0020
     83  CD1       14.1990   15.0640   19.6830 C.3   120  ILE120      0.0001
     84  N         15.5130   10.1620   17.4740 N.am  121  TYR121     -0.1976
     85  CA        16.3110    9.4090   16.5150 C.3   121  TYR121      0.1639
     86  C         15.6320    8.1400   16.0440 C.2   121  TYR121      0.2290
     87  O         16.0260    7.5750   15.0310 O.2   121  TYR121     -0.2864
     88  CB        17.6950    9.0940   17.0960 C.3   121  TYR121      0.0560
     89  CG        18.3950   10.3420   17.5650 C.ar  121  TYR121     -0.0198
     90  CD1       18.3940   11.4950   16.7770 C.ar  121  TYR121     -0.0009
     91  CD2       18.9980   10.4000   18.8160 C.ar  121  TYR121     -0.0009
     92  CE1       18.9610   12.6740   17.2240 C.ar  121  TYR121      0.0417
     93  CE2       19.5760   11.5790   19.2710 C.ar  121  TYR121      0.0417
     94  CZ        19.5490   12.7130   18.4680 C.ar  121  TYR121      0.1957
     95  OH        20.1060   13.8930   18.9110 O.3   121  TYR121     -0.2866
     96  N         13.3410    9.7000   13.3930 N.3   124  LEU124     -0.1245
     97  CA        14.1700   10.3410   12.3760 C.3   124  LEU124      0.1561
     98  C         14.6090    9.3260   11.3340 C.2   124  LEU124      0.2260
     99  O         15.0590    9.6900   10.2460 O.2   124  LEU124     -0.2867
    100  CB        15.4050   10.9290   13.0210 C.3   124  LEU124      0.0270
    101  CG        16.3740   11.6340   12.0880 C.3   124  LEU124      0.0019
    102  CD1       15.8230   13.0080   11.7230 C.3   124  LEU124      0.0001
    103  CD2       17.6930   11.7540   12.8020 C.3   124  LEU124      0.0001
    104  N         30.7010   19.5810   13.1610 N.3   154  PHE154     -0.1241
    105  CA        29.3970   19.3520   12.5540 C.3   154  PHE154      0.1605
    106  C         29.3760   18.1610   11.5910 C.2   154  PHE154      0.2264
    107  O         28.5300   17.2720   11.7040 O.2   154  PHE154     -0.2867
    108  CB        28.9370   20.6090   11.8160 C.3   154  PHE154      0.0534
    109  CG        28.9370   21.8520   12.6610 C.ar  154  PHE154     -0.0203
    110  CD1       30.0720   22.6430   12.7570 C.ar  154  PHE154     -0.0042
    111  CD2       27.7850   22.2520   13.3370 C.ar  154  PHE154     -0.0042
    112  CE1       30.0620   23.8180   13.5130 C.ar  154  PHE154     -0.0003
    113  CE2       27.7640   23.4240   14.0960 C.ar  154  PHE154     -0.0003
    114  CZ        28.9040   24.2070   14.1820 C.ar  154  PHE154     -0.0000
    115  N         28.1600   14.9550   13.0440 N.3   157  PHE157     -0.1227
    116  CA        26.9790   14.9490   13.8980 C.3   157  PHE157      0.1736
    117  C         25.9740   13.9090   13.4100 C.2   157  PHE157      0.2595
    118  O         25.4840   13.0810   14.1760 O.2   157  PHE157     -0.2718
    119  CB        26.3100   16.3270   13.8620 C.3   157  PHE157      0.0547
    120  CG        26.4220   17.0930   15.1450 C.ar  157  PHE157     -0.0202
    121  CD1       25.8070   16.6310   16.3050 C.ar  157  PHE157     -0.0042
    122  CD2       27.1500   18.2780   15.2010 C.ar  157  PHE157     -0.0042
    123  CE1       25.9170   17.3380   17.4940 C.ar  157  PHE157     -0.0003
    124  CE2       27.2640   18.9890   16.3880 C.ar  157  PHE157     -0.0003
    125  CZ        26.6470   18.5190   17.5360 C.ar  157  PHE157     -0.0000
    126  N         25.6850   13.9710   12.1150 N.am  158  MET158     -0.1979
    127  CA        24.7200   13.0960   11.4620 C.3   158  MET158      0.1605
    128  C         25.1310   11.6860   11.0760 C.2   158  MET158      0.2287
    129  O         24.3230   10.7670   11.1850 O.2   158  MET158     -0.2864
    130  CB        24.1760   13.8000   10.2230 C.3   158  MET158      0.0413
    131  CG        23.1280   14.8150   10.5540 C.3   158  MET158      0.0598
    132  SD        21.8710   13.9390   11.4500 S.3   158  MET158     -0.1393
    133  CE        21.1630   12.9570   10.1230 C.3   158  MET158      0.0692
    134  N         23.7020    8.8610   13.0690 N.3   161  LYS161     -0.1245
    135  CA        22.2590    8.6540   12.9660 C.3   161  LYS161      0.1561
    136  C         21.9780    7.7940   11.7330 C.2   161  LYS161      0.2260
    137  O         21.2670    6.7900   11.8120 O.2   161  LYS161     -0.2867
    138  CB        21.5180    9.9950   12.8510 C.3   161  LYS161      0.0271
    139  CG        21.3110   10.7390   14.1760 C.3   161  LYS161      0.0035
    140  CD        22.5900   11.4150   14.7060 C.3   161  LYS161      0.0206
    141  CE        22.3200   12.1460   16.0230 C.3   161  LYS161      0.1093
    142  NZ        23.4940   12.9110   16.5120 N.3   161  LYS161     -0.1314
    143  N         26.1300   12.0860   20.9870 N.3   243  HIS243     -0.1241
    144  CA        25.5220   13.3530   20.6060 C.3   243  HIS243      0.1621
    145  C         25.7700   14.4700   21.6140 C.2   243  HIS243      0.2264
    146  O         26.1510   15.5800   21.2390 O.2   243  HIS243     -0.2867
    147  CB        24.0100   13.2170   20.3980 C.3   243  HIS243      0.0745
    148  CG        23.3540   14.5000   19.9820 C.ar  243  HIS243      0.0817
    149  ND1       23.3990   14.9740   18.6870 N.ar  243  HIS243     -0.2268
    150  CD2       22.7140   15.4510   20.7050 C.ar  243  HIS243      0.1154
    151  CE1       22.8230   16.1590   18.6340 C.ar  243  HIS243      0.1986
    152  NE2       22.3990   16.4750   19.8460 N.ar  243  HIS243     -0.2212
    153  N         27.9630   17.7380   21.4200 N.3   247  LEU247     -0.1245
    154  CA        27.2090   18.9670   21.5860 C.3   247  LEU247      0.1561
    155  C         27.9830   19.8660   22.5400 C.2   247  LEU247      0.2260
    156  O         27.9480   21.0910   22.4260 O.2   247  LEU247     -0.2867
    157  CB        25.8270   18.6440   22.1510 C.3   247  LEU247      0.0270
    158  CG        24.7790   19.7520   22.2230 C.3   247  LEU247      0.0019
    159  CD1       24.5180   20.3400   20.8520 C.3   247  LEU247      0.0001
    160  CD2       23.5170   19.1710   22.7840 C.3   247  LEU247      0.0001
    161  N         30.7060   22.0820   20.5010 N.3   250  ILE250     -0.1245
    162  CA        30.2340   23.2960   19.8340 C.3   250  ILE250      0.1561
    163  C         29.8670   24.3960   20.8310 C.2   250  ILE250      0.2260
    164  O         29.8590   25.5790   20.4960 O.2   250  ILE250     -0.2867
    165  CB        29.0000   23.0050   18.9280 C.3   250  ILE250      0.0252
    166  CG1       29.4210   22.1650   17.7140 C.3   250  ILE250      0.0019
    167  CG2       28.3690   24.3190   18.4560 C.3   250  ILE250      0.0019
    168  CD1       29.7870   20.7380   18.0340 C.3   250  ILE250      0.0001
    169  N         27.1880   30.7920   20.2550 N.3   257  MET257     -0.1230
    170  CA        26.2560   29.6950   20.0210 C.3   257  MET257      0.1702
    171  C         25.4780   29.4540   21.3030 C.2   257  MET257      0.2593
    172  O         26.0460   29.4350   22.3980 O.2   257  MET257     -0.2718
    173  CB        27.0200   28.4230   19.6380 C.3   257  MET257      0.0401
    174  CG        26.2050   27.3660   18.9070 C.3   257  MET257      0.0596
    175  SD        25.8030   27.8580   17.2080 S.3   257  MET257     -0.1393
    176  CE        24.2530   28.7400   17.4670 C.3   257  MET257      0.0692
    177  N         24.1760   29.2610   21.1540 N.am  258  SER258     -0.1938
    178  CA        23.2910   29.0410   22.2910 C.3   258  SER258      0.2055
    179  C         22.7870   27.5950   22.4150 C.2   258  SER258      0.2642
    180  O         23.5460   26.6430   22.2130 O.2   258  SER258     -0.2714
    181  CB        22.1120   30.0080   22.1720 C.3   258  SER258      0.2130
    182  OG        21.8480   30.2950   20.8050 O.3   258  SER258     -0.2179
    183  N         21.5080   27.4470   22.7590 N.am  259  LEU259     -0.1977
    184  CA        20.8610   26.1420   22.9080 C.3   259  LEU259      0.1596
    185  C         19.5000   26.3570   23.5790 C.2   259  LEU259      0.2287
    186  O         19.4360   26.7140   24.7530 O.2   259  LEU259     -0.2864
    187  CB        21.7340   25.2110   23.7540 C.3   259  LEU259      0.0297
    188  CG        21.6480   23.7200   23.4250 C.3   259  LEU259      0.0022
    189  CD1       21.9650   23.4960   21.9570 C.3   259  LEU259      0.0001
    190  CD2       22.6300   22.9520   24.2800 C.3   259  LEU259      0.0001
    191  N         15.5000   22.5070   25.4230 N.3   263  LEU263     -0.1245
    192  CA        16.5040   21.5010   25.0950 C.3   263  LEU263      0.1561
    193  C         17.7050   21.5520   26.0350 C.2   263  LEU263      0.2260
    194  O         18.3220   20.5270   26.3360 O.2   263  LEU263     -0.2867
    195  CB        16.9840   21.6990   23.6540 C.3   263  LEU263      0.0270
    196  CG        15.9390   21.4930   22.5570 C.3   263  LEU263      0.0019
    197  CD1       16.5180   21.8710   21.2020 C.3   263  LEU263      0.0001
    198  CD2       15.4880   20.0420   22.5740 C.3   263  LEU263      0.0001
    199  N         19.2280   18.5340   28.5300 N.3   267  TYR267     -0.1241
    200  CA        20.5910   18.0230   28.5320 C.3   267  TYR267      0.1605
    201  C         21.3510   17.9600   29.8550 C.2   267  TYR267      0.2264
    202  O         21.4660   18.9470   30.5850 O.2   267  TYR267     -0.2867
    203  CB        21.4260   18.7860   27.5000 C.3   267  TYR267      0.0534
    204  CG        21.2690   18.2350   26.1030 C.ar  267  TYR267     -0.0201
    205  CD1       21.5500   16.8940   25.8360 C.ar  267  TYR267     -0.0009
    206  CD2       20.8290   19.0420   25.0490 C.ar  267  TYR267     -0.0009
    207  CE1       21.4000   16.3610   24.5570 C.ar  267  TYR267      0.0417
    208  CE2       20.6740   18.5140   23.7590 C.ar  267  TYR267      0.0417
    209  CZ        20.9650   17.1700   23.5260 C.ar  267  TYR267      0.1957
    210  OH        20.8360   16.6160   22.2750 O.3   267  TYR267     -0.2866
@<TRIPOS>BOND
     1   133   132    1
     2   130   131    1
     3   130   127    1
     4     1     2    1
     5    99    98    2
     6    17    19   ar
     7    17    15   ar
     8   131   132    1
     9   128   129    2
    10   128   127    1
    11    19    18   ar
    12     3     2    1
    13     3     4    2
    14    15    14   ar
    15    98    97    1
    16     2     5    1
    17     9    10    1
    18   127   126    1
    19   106   107    2
    20   106   105    1
    21   102   101    1
    22   136   137    2
    23   136   135    1
    24     5     6    1
    25     5     7    1
    26   108   105    1
    27   108   109    1
    28   101   103    1
    29   101   100    1
    30     6     8    1
    31   126   117   am
    32    49    50    1
    33    49    48    1
    34    50    51    1
    35    97   100    1
    36    97    96    1
    37    18    16   ar
    38   105   104    1
    39    14    16   ar
    40    14    13    1
    41   109   110   ar
    42   109   111   ar
    43    29    30    1
    44    10    13    1
    45    10    11    1
    46   110   112   ar
    47    53    52    1
    48   138   135    1
    49   138   139    1
    50   135   134    1
    51   115   116    1
    52    20    11   am
    53    20    21    1
    54    33    30    1
    55    33    34    1
    56    30    31    1
    57   111   113   ar
    58   117   116    1
    59   117   118    2
    60    48    45    1
    61    51    52    2
    62   112   114   ar
    63    24    25    1
    64    24    21    1
    65    52    54    1
    66    11    12    2
    67    22    21    1
    68    22    23    2
    69   119   116    1
    70   119   120    1
    71    25    26    1
    72   113   114   ar
    73   139   140    1
    74    45    44    1
    75    45    46    1
    76   140   141    1
    77    31    32    2
    78    31    35   am
    79    87    86    2
    80   120   122   ar
    81   120   121   ar
    82   122   124   ar
    83    26    28   am
    84    26    27    2
    85    35    36    1
    86    46    47    2
    87    46    55   am
    88    79    78    2
    89   141   142    1
    90    86    85    1
    91   121   123   ar
    92   124   125   ar
    93    85    88    1
    94    85    84    1
    95    55    56    1
    96    36    37    1
    97    36    39    1
    98    90    92   ar
    99    90    89   ar
   100    37    38    2
   101    88    89    1
   102    78    84   am
   103    78    77    1
   104   175   176    1
   105   175   174    1
   106    92    94   ar
   107    39    40    1
   108    82    80    1
   109   123   125   ar
   110    60    59    1
   111    89    91   ar
   112   166   168    1
   113   166   165    1
   114    65    62    1
   115    61    62    1
   116    56    59    1
   117    56    57    1
   118    77    80    1
   119    77    76    1
   120    62    63    1
   121   167   165    1
   122    94    95    1
   123    94    93   ar
   124    80    81    1
   125   151   149   ar
   126   151   152   ar
   127    40    41    1
   128    42    41    2
   129   149   148   ar
   130    91    93   ar
   131    57    58    2
   132   174   173    1
   133   165   162    1
   134    81    83    1
   135    41    43   am
   136   173   170    1
   137    63    64    2
   138   162   161    1
   139   162   163    1
   140   152   150   ar
   141   148   147    1
   142   148   150   ar
   143   170   169    1
   144   170   171    1
   145   147   144    1
   146    69    68    2
   147   164   163    2
   148   144   143    1
   149   144   145    1
   150   182   181    1
   151   159   158    1
   152   177   171   am
   153   177   178    1
   154   197   196    1
   155   146   145    2
   156   171   172    2
   157   153   154    1
   158    73    75   ar
   159    73    71   ar
   160   154   157    1
   161   154   155    1
   162    68    67    1
   163    75    74   ar
   164   189   188    1
   165   157   158    1
   166   181   178    1
   167   180   179    2
   168   158   160    1
   169    67    70    1
   170    67    66    1
   171   210   209    1
   172   178   179    1
   173   179   183   am
   174   156   155    2
   175    71    70    1
   176    71    72   ar
   177   196   198    1
   178   196   195    1
   179   183   184    1
   180   184   185    1
   181   184   187    1
   182    74    72   ar
   183   188   187    1
   184   188   190    1
   185   209   208   ar
   186   209   207   ar
   187   185   186    2
   188   195   192    1
   189   208   206   ar
   190   207   205   ar
   191   206   204   ar
   192   192   191    1
   193   192   193    1
   194   205   204   ar
   195   193   194    2
   196   204   203    1
   197   203   200    1
   198   199   200    1
   199   200   201    1
   200   201   202    2
