@<TRIPOS>MOLECULE
tmp/4e4kA00.pdb
 218 212 0 0 0
SMALL
GASTEIGER

@<TRIPOS>ATOM
      1  N         10.5080   26.2840    2.5210 N.3    57  LYS57      -0.1231
      2  CA        10.3990   27.3020    3.5660 C.3    57  LYS57       0.1693
      3  C         11.6970   27.3910    4.3940 C.2    57  LYS57       0.2592
      4  O         11.7710   26.9130    5.5250 O.2    57  LYS57      -0.2718
      5  CB         9.1840   26.9900    4.4650 C.3    57  LYS57       0.0285
      6  CG         8.6410   28.1760    5.2890 C.3    57  LYS57       0.0035
      7  CD         9.4870   28.4540    6.5330 C.3    57  LYS57       0.0206
      8  CE         8.8660   29.5240    7.4260 C.3    57  LYS57       0.1093
      9  NZ         8.9790   30.8910    6.8250 N.3    57  LYS57      -0.1314
     10  N         12.7250   27.9980    3.8080 N.am   58  PHE58      -0.1976
     11  CA        14.0130   28.1700    4.4740 C.3    58  PHE58       0.1639
     12  C         14.1670   29.6150    4.9470 C.2    58  PHE58       0.2290
     13  O         14.8040   30.4290    4.2570 O.2    58  PHE58      -0.2864
     14  CB        15.1540   27.8820    3.5070 C.3    58  PHE58       0.0560
     15  CG        15.6920   26.4840    3.5780 C.ar   58  PHE58      -0.0200
     16  CD1       14.9410   25.4050    3.1210 C.ar   58  PHE58      -0.0042
     17  CD2       16.9860   26.2590    4.0380 C.ar   58  PHE58      -0.0042
     18  CE1       15.4810   24.1260    3.1160 C.ar   58  PHE58      -0.0003
     19  CE2       17.5320   24.9860    4.0330 C.ar   58  PHE58      -0.0003
     20  CZ        16.7790   23.9170    3.5690 C.ar   58  PHE58      -0.0000
     21  N         16.0530   30.7180    6.7010 N.3    60  HIS60      -0.1241
     22  CA        17.5000   30.9070    6.7550 C.3    60  HIS60       0.1621
     23  C         18.0890   31.7700    5.6490 C.2    60  HIS60       0.2264
     24  O         17.4080   32.1710    4.6930 O.2    60  HIS60      -0.2867
     25  CB        18.2070   29.5450    6.7330 C.3    60  HIS60       0.0745
     26  CG        17.9070   28.6940    7.9210 C.ar   60  HIS60       0.0817
     27  ND1       18.2630   29.0610    9.2010 N.ar   60  HIS60      -0.2268
     28  CD2       17.2820   27.4970    8.0320 C.ar   60  HIS60       0.1154
     29  CE1       17.8740   28.1270   10.0470 C.ar   60  HIS60       0.1986
     30  NE2       17.2760   27.1640    9.3640 N.ar   60  HIS60      -0.2212
     31  N         23.8770   27.3330   10.0220 N.3    74  ARG74      -0.1231
     32  CA        22.4570   27.4590    9.6890 C.3    74  ARG74       0.1694
     33  C         21.7760   26.0930    9.6180 C.2    74  ARG74       0.2592
     34  O         20.6020   25.9580    9.9670 O.2    74  ARG74      -0.2718
     35  CB        22.2900   28.1810    8.3450 C.3    74  ARG74       0.0321
     36  CG        22.4840   29.6900    8.4040 C.3    74  ARG74       0.0489
     37  CD        23.2350   30.2140    7.1810 C.3    74  ARG74       0.2205
     38  NE        22.5640   29.9190    5.9180 N.pl3  74  ARG74      -0.0865
     39  CZ        23.1040   30.1380    4.7220 C.cat  74  ARG74       0.5346
     40  NH1       24.3240   30.6510    4.6280 N.pl3  74  ARG74       0.1354
     41  NH2       22.4280   29.8480    3.6200 N.pl3  74  ARG74       0.1354
     42  N         22.5190   25.0880    9.1620 N.am   75  ILE75      -0.1966
     43  CA        21.9930   23.7360    9.0430 C.3    75  ILE75       0.1727
     44  C         21.7620   23.1050   10.4080 C.2    75  ILE75       0.2616
     45  O         20.8870   22.2530   10.5610 O.2    75  ILE75      -0.2715
     46  CB        22.9530   22.8070    8.2630 C.3    75  ILE75       0.0290
     47  CG1       23.2260   23.3670    6.8680 C.3    75  ILE75       0.0022
     48  CG2       22.3460   21.4160    8.1520 C.3    75  ILE75       0.0023
     49  CD1       24.1130   22.4770    6.0180 C.3    75  ILE75       0.0001
     50  N         22.5400   23.5130   11.4050 N.am   76  PHE76      -0.1974
     51  CA        22.3900   22.9290   12.7290 C.3    76  PHE76       0.1639
     52  C         21.5420   23.7580   13.6630 C.2    76  PHE76       0.2290
     53  O         21.1050   23.2860   14.7060 O.2    76  PHE76      -0.2864
     54  CB        23.7660   22.6270   13.3090 C.3    76  PHE76       0.0560
     55  CG        24.4890   21.5380   12.5580 C.ar   76  PHE76      -0.0200
     56  CD1       24.8290   21.7150   11.2180 C.ar   76  PHE76      -0.0042
     57  CD2       24.7710   20.3120   13.1590 C.ar   76  PHE76      -0.0042
     58  CE1       25.4340   20.6900   10.4920 C.ar   76  PHE76      -0.0003
     59  CE2       25.3770   19.2790   12.4420 C.ar   76  PHE76      -0.0003
     60  CZ        25.7070   19.4660   11.1080 C.ar   76  PHE76      -0.0000
     61  N         18.7910   25.0320   12.4860 N.3    78  GLY78      -0.1210
     62  CA        17.4900   24.5390   12.0750 C.3    78  GLY78       0.1956
     63  C         17.2070   23.1930   12.6980 C.2    78  GLY78       0.2612
     64  O         16.0950   22.9230   13.1520 O.2    78  GLY78      -0.2717
     65  N         18.2210   22.3380   12.7080 N.am   79  CYS79      -0.1970
     66  CA        18.0980   21.0250   13.3070 C.3    79  CYS79       0.1712
     67  C         17.6300   21.2100   14.7480 C.2    79  CYS79       0.2296
     68  O         16.8300   20.4290   15.2580 O.2    79  CYS79      -0.2864
     69  CB        19.4470   20.3190   13.2840 C.3    79  CYS79       0.0983
     70  SG        19.5520   18.9770   14.4570 S.3    79  CYS79      -0.0798
     71  N         15.7820   23.6710   15.9750 N.3    81  PHE81      -0.1227
     72  CA        14.3770   24.0490   15.9840 C.3    81  PHE81       0.1736
     73  C         13.4670   22.8690   15.6700 C.2    81  PHE81       0.2595
     74  O         12.3180   22.8390   16.1000 O.2    81  PHE81      -0.2718
     75  CB        14.1310   25.1880   14.9900 C.3    81  PHE81       0.0547
     76  CG        12.7520   25.1860   14.3840 C.ar   81  PHE81      -0.0202
     77  CD1       12.4990   24.4980   13.1950 C.ar   81  PHE81      -0.0042
     78  CD2       11.6990   25.8570   15.0060 C.ar   81  PHE81      -0.0042
     79  CE1       11.2220   24.4810   12.6340 C.ar   81  PHE81      -0.0003
     80  CE2       10.4130   25.8460   14.4520 C.ar   81  PHE81      -0.0003
     81  CZ        10.1750   25.1580   13.2670 C.ar   81  PHE81      -0.0000
     82  N         13.9690   21.9010   14.9100 N.am   82  ARG82      -0.1966
     83  CA        13.1560   20.7340   14.5870 C.3    82  ARG82       0.1729
     84  C         13.1180   19.8760   15.8380 C.2    82  ARG82       0.2616
     85  O         12.1610   19.1430   16.0750 O.2    82  ARG82      -0.2715
     86  CB        13.7560   19.9490   13.4120 C.3    82  ARG82       0.0348
     87  CG        12.8250   19.8270   12.2000 C.3    82  ARG82       0.0492
     88  CD        11.7550   18.7280   12.3450 C.3    82  ARG82       0.2205
     89  NE        10.8180   18.9600   13.4440 N.pl3  82  ARG82      -0.0865
     90  CZ         9.7070   18.2530   13.6500 C.cat  82  ARG82       0.5346
     91  NH1        9.3830   17.2700   12.8350 N.pl3  82  ARG82       0.1354
     92  NH2        8.9110   18.5250   14.6730 N.pl3  82  ARG82       0.1354
     93  N         14.1690   19.9940   16.6460 N.am   83  SER83      -0.1950
     94  CA        14.2780   19.2490   17.8950 C.3    83  SER83       0.1924
     95  C         13.2550   19.7580   18.8940 C.2    83  SER83       0.2314
     96  O         12.6290   18.9720   19.5920 O.2    83  SER83      -0.2863
     97  CB        15.6720   19.4090   18.4960 C.3    83  SER83       0.2116
     98  OG        16.6640   19.1710   17.5210 O.3    83  SER83      -0.2180
     99  N         13.2910   10.6500   19.2860 N.3   120  ILE120     -0.1231
    100  CA        13.5960   11.4980   18.1530 C.3   120  ILE120      0.1692
    101  C         14.3660   10.7120   17.1010 C.2   120  ILE120      0.2592
    102  O         13.9280   10.6010   15.9640 O.2   120  ILE120     -0.2718
    103  CB        14.4300   12.7380   18.5860 C.3   120  ILE120      0.0266
    104  CG1       13.4920   13.8590   19.0480 C.3   120  ILE120      0.0019
    105  CG2       15.3280   13.1880   17.4580 C.3   120  ILE120      0.0020
    106  CD1       14.1990   15.0640   19.6830 C.3   120  ILE120      0.0001
    107  N         15.5130   10.1620   17.4740 N.am  121  TYR121     -0.1976
    108  CA        16.3110    9.4090   16.5150 C.3   121  TYR121      0.1639
    109  C         15.6320    8.1400   16.0440 C.2   121  TYR121      0.2290
    110  O         16.0260    7.5750   15.0310 O.2   121  TYR121     -0.2864
    111  CB        17.6950    9.0940   17.0960 C.3   121  TYR121      0.0560
    112  CG        18.3950   10.3420   17.5650 C.ar  121  TYR121     -0.0198
    113  CD1       18.3940   11.4950   16.7770 C.ar  121  TYR121     -0.0009
    114  CD2       18.9980   10.4000   18.8160 C.ar  121  TYR121     -0.0009
    115  CE1       18.9610   12.6740   17.2240 C.ar  121  TYR121      0.0417
    116  CE2       19.5760   11.5790   19.2710 C.ar  121  TYR121      0.0417
    117  CZ        19.5490   12.7130   18.4680 C.ar  121  TYR121      0.1957
    118  OH        20.1060   13.8930   18.9110 O.3   121  TYR121     -0.2866
    119  N         13.3410    9.7000   13.3930 N.3   124  LEU124     -0.1245
    120  CA        14.1700   10.3410   12.3760 C.3   124  LEU124      0.1561
    121  C         14.6090    9.3260   11.3340 C.2   124  LEU124      0.2260
    122  O         15.0590    9.6900   10.2460 O.2   124  LEU124     -0.2867
    123  CB        15.4050   10.9290   13.0210 C.3   124  LEU124      0.0270
    124  CG        16.3740   11.6340   12.0880 C.3   124  LEU124      0.0019
    125  CD1       15.8230   13.0080   11.7230 C.3   124  LEU124      0.0001
    126  CD2       17.6930   11.7540   12.8020 C.3   124  LEU124      0.0001
    127  N         18.2660   12.3590    4.2430 N.3   133  VAL133     -0.1231
    128  CA        17.1740   12.6020    5.1530 C.3   133  VAL133      0.1692
    129  C         16.1910   13.7060    4.7060 C.2   133  VAL133      0.2592
    130  O         16.5800   14.7550    4.1770 O.2   133  VAL133     -0.2718
    131  CB        17.7560   12.9610    6.5700 C.3   133  VAL133      0.0266
    132  CG1       18.7510   14.1170    6.4500 C.3   133  VAL133      0.0020
    133  CG2       16.6290   13.3490    7.5450 C.3   133  VAL133      0.0020
    134  N         14.9100   13.4410    4.9370 N.am  134  LEU134     -0.1966
    135  CA        13.8430   14.3690    4.6250 C.3   134  LEU134      0.1728
    136  C         13.9160   15.5590    5.5870 C.2   134  LEU134      0.2616
    137  O         14.2060   15.3780    6.7670 O.2   134  LEU134     -0.2715
    138  CB        12.4900   13.6580    4.7720 C.3   134  LEU134      0.0311
    139  CG        12.1580   12.6640    3.6540 C.3   134  LEU134      0.0022
    140  CD1       10.8190   11.9790    3.9060 C.3   134  LEU134      0.0001
    141  CD2       12.1260   13.4230    2.3320 C.3   134  LEU134      0.0001
    142  N         13.6520   16.7650    5.0860 N.am  135  ILE135     -0.1963
    143  CA        13.6810   17.9760    5.9110 C.3   135  ILE135      0.1727
    144  C         12.4880   18.8710    5.5570 C.2   135  ILE135      0.2617
    145  O         11.8880   18.7130    4.4960 O.2   135  ILE135     -0.2715
    146  CB        14.9830   18.8070    5.6780 C.3   135  ILE135      0.0290
    147  CG1       14.9090   19.5050    4.3170 C.3   135  ILE135      0.0022
    148  CG2       16.2220   17.9090    5.7540 C.3   135  ILE135      0.0023
    149  CD1       16.0860   20.4050    4.0290 C.3   135  ILE135      0.0001
    150  N         12.1470   19.8090    6.4330 N.am  136  SER136     -0.1936
    151  CA        11.0300   20.7250    6.1900 C.3   136  SER136      0.2055
    152  C          9.7950   19.9730    5.7240 C.2   136  SER136      0.2642
    153  O          9.3750   20.1050    4.5790 O.2   136  SER136     -0.2714
    154  CB        11.4110   21.7530    5.1270 C.3   136  SER136      0.2130
    155  OG        12.7530   22.1730    5.2910 O.3   136  SER136     -0.2179
    156  N          9.2240   19.1800    6.6170 N.am  137  GLU137     -0.1976
    157  CA         8.0420   18.3890    6.3210 C.3   137  GLU137      0.1602
    158  C          8.1350   17.5770    5.0380 C.2   137  GLU137      0.2287
    159  O          7.1600   17.4870    4.3050 O.2   137  GLU137     -0.2864
    160  CB         6.8150   19.2960    6.2410 C.3   137  GLU137      0.0415
    161  CG         6.3590   19.8690    7.5710 C.3   137  GLU137      0.1163
    162  CD         6.1910   21.3740    7.5070 C.2   137  GLU137      0.3649
    163  OE1        7.2240   22.0720    7.3780 O.co2 137  GLU137     -0.2457
    164  OE2        5.0360   21.8580    7.5740 O.co2 137  GLU137     -0.2457
    165  N         18.1060   16.1010    2.1970 N.3   142  MET142     -0.1245
    166  CA        19.5120   16.4890    2.2780 C.3   142  MET142      0.1570
    167  C         20.3780   15.2350    2.2010 C.2   142  MET142      0.2261
    168  O         20.0820   14.2320    2.8490 O.2   142  MET142     -0.2867
    169  CB        19.7830   17.2520    3.5780 C.3   142  MET142      0.0387
    170  CG        20.9340   18.2470    3.4880 C.3   142  MET142      0.0595
    171  SD        21.1220   19.2380    4.9860 S.3   142  MET142     -0.1393
    172  CE        19.7890   20.4060    4.8230 C.3   142  MET142      0.0692
    173  N         26.0300   16.5430    4.1180 N.3   147  LEU147     -0.1245
    174  CA        26.1110   16.7290    5.5620 C.3   147  LEU147      0.1561
    175  C         27.4990   16.4120    6.1080 C.2   147  LEU147      0.2260
    176  O         28.1590   17.2710    6.6920 O.2   147  LEU147     -0.2867
    177  CB        25.0740   15.8480    6.2620 C.3   147  LEU147      0.0270
    178  CG        23.6310   16.3160    6.1050 C.3   147  LEU147      0.0019
    179  CD1       22.7190   15.4360    6.9300 C.3   147  LEU147      0.0001
    180  CD2       23.5170   17.7620    6.5550 C.3   147  LEU147      0.0001
    181  N         28.1600   14.9550   13.0440 N.3   157  PHE157     -0.1227
    182  CA        26.9790   14.9490   13.8980 C.3   157  PHE157      0.1736
    183  C         25.9740   13.9090   13.4100 C.2   157  PHE157      0.2595
    184  O         25.4840   13.0810   14.1760 O.2   157  PHE157     -0.2718
    185  CB        26.3100   16.3270   13.8620 C.3   157  PHE157      0.0547
    186  CG        26.4220   17.0930   15.1450 C.ar  157  PHE157     -0.0202
    187  CD1       25.8070   16.6310   16.3050 C.ar  157  PHE157     -0.0042
    188  CD2       27.1500   18.2780   15.2010 C.ar  157  PHE157     -0.0042
    189  CE1       25.9170   17.3380   17.4940 C.ar  157  PHE157     -0.0003
    190  CE2       27.2640   18.9890   16.3880 C.ar  157  PHE157     -0.0003
    191  CZ        26.6470   18.5190   17.5360 C.ar  157  PHE157     -0.0000
    192  N         25.6850   13.9710   12.1150 N.am  158  MET158     -0.1979
    193  CA        24.7200   13.0960   11.4620 C.3   158  MET158      0.1605
    194  C         25.1310   11.6860   11.0760 C.2   158  MET158      0.2287
    195  O         24.3230   10.7670   11.1850 O.2   158  MET158     -0.2864
    196  CB        24.1760   13.8000   10.2230 C.3   158  MET158      0.0413
    197  CG        23.1280   14.8150   10.5540 C.3   158  MET158      0.0598
    198  SD        21.8710   13.9390   11.4500 S.3   158  MET158     -0.1393
    199  CE        21.1630   12.9570   10.1230 C.3   158  MET158      0.0692
    200  N         23.7020    8.8610   13.0690 N.3   161  LYS161     -0.1245
    201  CA        22.2590    8.6540   12.9660 C.3   161  LYS161      0.1561
    202  C         21.9780    7.7940   11.7330 C.2   161  LYS161      0.2260
    203  O         21.2670    6.7900   11.8120 O.2   161  LYS161     -0.2867
    204  CB        21.5180    9.9950   12.8510 C.3   161  LYS161      0.0271
    205  CG        21.3110   10.7390   14.1760 C.3   161  LYS161      0.0035
    206  CD        22.5900   11.4150   14.7060 C.3   161  LYS161      0.0206
    207  CE        22.3200   12.1460   16.0230 C.3   161  LYS161      0.1093
    208  NZ        23.4940   12.9110   16.5120 N.3   161  LYS161     -0.1314
    209  N         26.1300   12.0860   20.9870 N.3   243  HIS243     -0.1241
    210  CA        25.5220   13.3530   20.6060 C.3   243  HIS243      0.1621
    211  C         25.7700   14.4700   21.6140 C.2   243  HIS243      0.2264
    212  O         26.1510   15.5800   21.2390 O.2   243  HIS243     -0.2867
    213  CB        24.0100   13.2170   20.3980 C.3   243  HIS243      0.0745
    214  CG        23.3540   14.5000   19.9820 C.ar  243  HIS243      0.0817
    215  ND1       23.3990   14.9740   18.6870 N.ar  243  HIS243     -0.2268
    216  CD2       22.7140   15.4510   20.7050 C.ar  243  HIS243      0.1154
    217  CE1       22.8230   16.1590   18.6340 C.ar  243  HIS243      0.1986
    218  NE2       22.3990   16.4750   19.8460 N.ar  243  HIS243     -0.2212
@<TRIPOS>BOND
     1   165   166    1
     2   167   166    1
     3   167   168    2
     4   166   169    1
     5   141   139    1
     6     1     2    1
     7    18    16   ar
     8    18    20   ar
     9    16    15   ar
    10   170   169    1
    11   170   171    1
    12    14    15    1
    13    14    11    1
    14     2     3    1
    15     2     5    1
    16    20    19   ar
    17    15    17   ar
    18    41    39    1
    19   139   140    1
    20   139   138    1
    21    10     3   am
    22    10    11    1
    23   149   147    1
    24    19    17   ar
    25   173   174    1
    26   130   129    2
    27   127   128    1
    28    13    12    2
    29   159   158    2
    30   147   146    1
    31     3     4    2
    32     5     6    1
    33    11    12    1
    34   145   144    2
    35   153   152    2
    36   135   138    1
    37   135   134    1
    38   135   136    1
    39    40    39    1
    40    24    23    2
    41   129   134   am
    42   129   128    1
    43    39    38    2
    44   172   171    1
    45   158   157    1
    46   142   136   am
    47   142   143    1
    48   154   155    1
    49   154   151    1
    50   128   131    1
    51     6     7    1
    52   144   143    1
    53   144   150   am
    54   174   175    1
    55   174   177    1
    56   136   137    2
    57    23    22    1
    58   146   148    1
    59   146   143    1
    60   152   151    1
    61   152   156   am
    62    38    37    1
    63    49    47    1
    64   178   177    1
    65   178   180    1
    66   178   179    1
    67   175   176    2
    68   151   150    1
    69   160   157    1
    70   160   161    1
    71   157   156    1
    72   132   131    1
    73     7     8    1
    74   131   133    1
    75    21    22    1
    76    25    22    1
    77    25    26    1
    78     9     8    1
    79    47    46    1
    80    37    36    1
    81   163   162   ar
    82   162   161    1
    83   162   164   ar
    84    26    28   ar
    85    26    27   ar
    86    28    30   ar
    87    48    46    1
    88    46    43    1
    89    35    36    1
    90    35    32    1
    91    43    42    1
    92    43    44    1
    93    42    33   am
    94    27    29   ar
    95    30    29   ar
    96    33    32    1
    97    33    34    2
    98    32    31    1
    99   199   198    1
   100   196   197    1
   101   196   193    1
   102   122   121    2
   103    44    45    2
   104    44    50   am
   105    58    60   ar
   106    58    56   ar
   107   197   198    1
   108   194   195    2
   109   194   193    1
   110    60    59   ar
   111    56    55   ar
   112   121   120    1
   113    50    51    1
   114   193   192    1
   115   125   124    1
   116   202   203    2
   117   202   201    1
   118    62    61    1
   119    62    63    1
   120   124   126    1
   121   124   123    1
   122   192   183   am
   123    87    88    1
   124    87    86    1
   125    88    89    1
   126   120   123    1
   127   120   119    1
   128    59    57   ar
   129    55    57   ar
   130    55    54    1
   131    79    77   ar
   132    79    81   ar
   133    63    65   am
   134    63    64    2
   135    65    66    1
   136    51    54    1
   137    51    52    1
   138    91    90    1
   139   204   201    1
   140   204   205    1
   141   201   200    1
   142   181   182    1
   143    77    76   ar
   144    81    80   ar
   145    69    66    1
   146    69    70    1
   147    66    67    1
   148   183   182    1
   149   183   184    2
   150    86    83    1
   151    89    90    2
   152    90    92    1
   153    52    53    2
   154   185   182    1
   155   185   186    1
   156   205   206    1
   157    76    75    1
   158    76    78   ar
   159    80    78   ar
   160    83    82    1
   161    83    84    1
   162   206   207    1
   163    67    68    2
   164    82    73   am
   165    75    72    1
   166   110   109    2
   167   186   188   ar
   168   186   187   ar
   169   188   190   ar
   170    73    72    1
   171    73    74    2
   172    84    85    2
   173    84    93   am
   174   102   101    2
   175    71    72    1
   176   207   208    1
   177   109   108    1
   178   187   189   ar
   179   190   191   ar
   180   108   111    1
   181   108   107    1
   182    93    94    1
   183   113   115   ar
   184   113   112   ar
   185   111   112    1
   186   101   107   am
   187   101   100    1
   188   115   117   ar
   189   105   103    1
   190   189   191   ar
   191    98    97    1
   192   112   114   ar
   193    94    97    1
   194    94    95    1
   195   100   103    1
   196   100    99    1
   197   117   118    1
   198   117   116   ar
   199   103   104    1
   200   217   215   ar
   201   217   218   ar
   202   215   214   ar
   203   114   116   ar
   204    95    96    2
   205   104   106    1
   206   218   216   ar
   207   214   213    1
   208   214   216   ar
   209   213   210    1
   210   210   209    1
   211   210   211    1
   212   212   211    2
