@<TRIPOS>MOLECULE
tmp/4e4lA00.pdb
 168 157 0 0 0
SMALL
GASTEIGER

@<TRIPOS>ATOM
      1  N        -14.3670   31.1080    5.0220 N.3    17  LEU17      -0.1231
      2  CA       -13.7010   30.5900    3.8290 C.3    17  LEU17       0.1693
      3  C        -13.4090   31.6930    2.8270 C.2    17  LEU17       0.2593
      4  O        -12.4440   31.6130    2.0660 O.2    17  LEU17      -0.2718
      5  CB       -14.5360   29.4930    3.1850 C.3    17  LEU17       0.0284
      6  CG       -14.5840   28.2030    3.9850 C.3    17  LEU17       0.0019
      7  CD1      -15.6010   27.2810    3.3490 C.3    17  LEU17       0.0001
      8  CD2      -13.2100   27.5210    4.0980 C.3    17  LEU17       0.0001
      9  N        -14.2590   32.7130    2.8110 N.am   18  GLY18      -0.1942
     10  CA       -13.9720   33.9040    2.0680 C.3    18  GLY18       0.2014
     11  C        -15.1370   34.8610    2.1250 C.2    18  GLY18       0.2639
     12  O        -16.2230   34.5290    2.6270 O.2    18  GLY18      -0.2714
     13  N        -14.9200   36.0490    1.5880 N.am   19  GLU19      -0.1963
     14  CA       -16.0080   36.9770    1.4410 C.3    19  GLU19       0.1733
     15  C        -15.8690   37.9190    0.2750 C.2    19  GLU19       0.2616
     16  O        -14.7820   38.1710   -0.2440 O.2    19  GLU19      -0.2715
     17  CB       -16.2230   37.7760    2.7250 C.3    19  GLU19       0.0429
     18  CG       -15.0510   38.6340    3.1660 C.3    19  GLU19       0.1163
     19  CD       -15.2510   39.1590    4.5790 C.2    19  GLU19       0.3649
     20  OE1      -16.1770   39.9740    4.7840 O.co2  19  GLU19      -0.2457
     21  OE2      -14.4960   38.7500    5.4910 O.co2  19  GLU19      -0.2457
     22  N        -17.0340   38.3980   -0.1370 N.am   20  GLY20      -0.1955
     23  CA       -17.1650   39.6040   -0.9410 C.3    20  GLY20       0.1869
     24  C        -17.5760   40.7660   -0.0480 C.2    20  GLY20       0.2309
     25  O        -17.4660   40.7240    1.1960 O.2    20  GLY20      -0.2863
     26  N        -21.5320   39.3330    0.6980 N.3    23  GLY23      -0.1210
     27  CA       -21.7410   37.9440    1.0820 C.3    23  GLY23       0.1956
     28  C        -20.4920   37.3490    1.6850 C.2    23  GLY23       0.2612
     29  O        -19.3980   37.8600    1.4690 O.2    23  GLY23      -0.2717
     30  N        -20.6630   36.2760    2.4550 N.am   24  LYS24      -0.1965
     31  CA       -19.5530   35.5630    3.0620 C.3    24  LYS24       0.1728
     32  C        -19.8060   34.0700    3.0240 C.2    24  LYS24       0.2616
     33  O        -20.9410   33.6120    3.1360 O.2    24  LYS24      -0.2715
     34  CB       -19.3380   35.9980    4.5150 C.3    24  LYS24       0.0311
     35  CG       -20.5250   35.7400    5.4320 C.3    24  LYS24       0.0038
     36  CD       -20.2620   36.2310    6.8500 C.3    24  LYS24       0.0206
     37  CE       -21.4540   35.9480    7.7560 C.3    24  LYS24       0.1093
     38  NZ       -22.6730   36.6840    7.3250 N.3    24  LYS24      -0.1314
     39  N        -18.7380   33.3050    2.8850 N.am   25  VAL25      -0.1977
     40  CA       -18.8510   31.8700    2.9830 C.3    25  VAL25       0.1596
     41  C        -18.0570   31.4140    4.2000 C.2    25  VAL25       0.2287
     42  O        -16.9230   31.8480    4.4190 O.2    25  VAL25      -0.2864
     43  CB       -18.3830   31.1620    1.7000 C.3    25  VAL25       0.0276
     44  CG1      -18.6260   29.6680    1.7970 C.3    25  VAL25       0.0022
     45  CG2      -19.0900   31.7420    0.4850 C.3    25  VAL25       0.0022
     46  N        -20.0560   24.1170    3.3880 N.3    42  ALA42      -0.1245
     47  CA       -19.8060   25.5230    3.0900 C.3    42  ALA42       0.1562
     48  C        -21.1280   26.3150    3.0040 C.2    42  ALA42       0.2260
     49  O        -22.0420   25.9620    2.2400 O.2    42  ALA42      -0.2867
     50  CB       -19.0040   25.6570    1.8140 C.3    42  ALA42       0.0290
     51  N        -23.0400   29.9920    2.5050 N.3    44  LYS44      -0.1245
     52  CA       -23.0180   31.3700    2.0220 C.3    44  LYS44       0.1561
     53  C        -24.1970   32.1480    2.5780 C.2    44  LYS44       0.2260
     54  O        -25.3630   31.7080    2.4560 O.2    44  LYS44      -0.2867
     55  CB       -23.0090   31.4020    0.4910 C.3    44  LYS44       0.0271
     56  CG       -22.8350   32.7700   -0.1420 C.3    44  LYS44       0.0035
     57  CD       -22.5720   32.5890   -1.6380 C.3    44  LYS44       0.0206
     58  CE       -21.6780   33.6550   -2.2100 C.3    44  LYS44       0.1093
     59  NZ       -21.4060   33.4190   -3.6450 N.3    44  LYS44      -0.1314
     60  N        -18.8550   23.1010   -8.2980 N.3    68  VAL68      -0.1245
     61  CA       -19.1150   22.7520   -6.8980 C.3    68  VAL68       0.1561
     62  C        -20.5750   22.3740   -6.6970 C.2    68  VAL68       0.2260
     63  O        -21.4750   22.9690   -7.3130 O.2    68  VAL68      -0.2867
     64  CB       -18.6920   23.8770   -5.9270 C.3    68  VAL68       0.0252
     65  CG1      -19.5390   25.1540   -6.1030 C.3    68  VAL68       0.0019
     66  CG2      -18.7060   23.3780   -4.4880 C.3    68  VAL68       0.0019
     67  N        -23.4430   24.4940    0.3950 N.3    81  MET81      -0.1230
     68  CA       -22.6720   23.7670   -0.6000 C.3    81  MET81       0.1702
     69  C        -21.7860   22.7170    0.0420 C.2    81  MET81       0.2592
     70  O        -21.5190   22.7490    1.2470 O.2    81  MET81      -0.2718
     71  CB       -21.7790   24.7320   -1.4100 C.3    81  MET81       0.0401
     72  CG       -22.5300   25.8590   -2.1110 C.3    81  MET81       0.0596
     73  SD       -21.4830   27.1860   -2.7130 S.3    81  MET81      -0.1393
     74  CE       -21.0290   27.9770   -1.1670 C.3    81  MET81       0.0692
     75  N        -21.3140   21.7880   -0.7750 N.am   82  GLU82      -0.1966
     76  CA       -20.2530   20.8750   -0.3440 C.3    82  GLU82       0.1733
     77  C        -19.0280   21.6810    0.0750 C.2    82  GLU82       0.2616
     78  O        -18.7430   22.7230   -0.5050 O.2    82  GLU82      -0.2715
     79  CB       -19.8720   19.8740   -1.4340 C.3    82  GLU82       0.0429
     80  CG       -19.2250   20.4620   -2.6900 C.3    82  GLU82       0.1163
     81  CD       -18.8190   19.4010   -3.7110 C.2    82  GLU82       0.3649
     82  OE1      -18.6740   18.2190   -3.3240 O.co2  82  GLU82      -0.2457
     83  OE2      -18.6710   19.7360   -4.9150 O.co2  82  GLU82      -0.2457
     84  N        -18.3440   21.2130    1.1200 N.am   83  PHE83      -0.1960
     85  CA       -17.0540   21.7940    1.5560 C.3    83  PHE83       0.1771
     86  C        -15.8890   20.9740    1.0050 C.2    83  PHE83       0.2619
     87  O        -15.8590   19.7630    1.1380 O.2    83  PHE83      -0.2715
     88  CB       -16.9700   21.8480    3.0930 C.3    83  PHE83       0.0574
     89  CG       -15.6030   22.1830    3.6220 C.ar   83  PHE83      -0.0200
     90  CD1      -14.9980   23.4040    3.3270 C.ar   83  PHE83      -0.0042
     91  CD2      -14.9170   21.2750    4.4340 C.ar   83  PHE83      -0.0042
     92  CE1      -13.7430   23.7100    3.8200 C.ar   83  PHE83      -0.0003
     93  CE2      -13.6580   21.5780    4.9280 C.ar   83  PHE83      -0.0003
     94  CZ       -13.0690   22.7910    4.6230 C.ar   83  PHE83      -0.0000
     95  N        -14.9520   21.6450    0.3480 N.am   84  LEU84      -0.1977
     96  CA       -13.7750   20.9930   -0.1910 C.3    84  LEU84       0.1596
     97  C        -12.5820   21.3250    0.7510 C.2    84  LEU84       0.2287
     98  O        -12.0650   22.4410    0.7350 O.2    84  LEU84      -0.2864
     99  CB       -13.5240   21.4020   -1.6520 C.3    84  LEU84       0.0297
    100  CG       -14.2130   20.5260   -2.7170 C.3    84  LEU84       0.0022
    101  CD1      -15.7340   20.6460   -2.6100 C.3    84  LEU84       0.0001
    102  CD2      -13.7700   20.8650   -4.1350 C.3    84  LEU84       0.0001
    103  N         -9.4260   23.3390    0.0120 N.3    87  GLY87      -0.1210
    104  CA        -9.5920   24.7660   -0.2300 C.3    87  GLY87       0.1956
    105  C         -9.4960   25.1500   -1.6990 C.2    87  GLY87       0.2612
    106  O         -9.6660   24.3270   -2.5890 O.2    87  GLY87      -0.2717
    107  N         -9.2240   26.4180   -1.9430 N.am   88  SER88      -0.1952
    108  CA        -9.0170   26.9210   -3.2910 C.3    88  SER88       0.1924
    109  C         -7.5500   26.7730   -3.7190 C.2    88  SER88       0.2314
    110  O         -6.6820   26.4690   -2.8810 O.2    88  SER88      -0.2863
    111  CB        -9.4420   28.3830   -3.3430 C.3    88  SER88       0.2116
    112  OG        -8.4690   29.2510   -2.8400 O.3    88  SER88      -0.2180
    113  N         -5.0100   28.5160   -1.5150 N.3    91  GLU91      -0.1245
    114  CA        -4.4700   27.8540   -0.3220 C.3    91  GLU91       0.1567
    115  C         -3.6250   26.6540   -0.7090 C.2    91  GLU91       0.2260
    116  O         -2.6220   26.3280   -0.0620 O.2    91  GLU91      -0.2867
    117  CB        -5.5990   27.3890    0.5970 C.3    91  GLU91       0.0388
    118  CG        -6.3570   28.5070    1.2960 C.3    91  GLU91       0.1160
    119  CD        -7.3370   29.2390    0.4000 C.2    91  GLU91       0.3649
    120  OE1       -8.1170   28.5850   -0.3300 O.co2  91  GLU91      -0.2457
    121  OE2       -7.3320   30.4830    0.4340 O.co2  91  GLU91      -0.2457
    122  N        -16.2920   36.5180  -12.4470 N.3   128  ASP128     -0.1239
    123  CA       -15.4280   36.5280  -11.2680 C.3   128  ASP128      0.1674
    124  C        -14.4860   35.3240  -11.2730 C.2   128  ASP128      0.2266
    125  O        -14.1930   34.7520  -10.2310 O.2   128  ASP128     -0.2867
    126  CB       -16.3060   36.5350  -10.0190 C.3   128  ASP128      0.1410
    127  CG       -15.5570   36.9280   -8.7580 C.2   128  ASP128      0.3668
    128  OD1      -14.5510   37.6610   -8.8540 O.co2 128  ASP128     -0.2456
    129  OD2      -15.9850   36.5050   -7.6650 O.co2 128  ASP128     -0.2456
    130  N         -8.7170   32.0890   -6.5610 N.3   132  ARG132     -0.1231
    131  CA        -9.3790   32.0010   -5.2660 C.3   132  ARG132      0.1694
    132  C        -10.7910   31.3690   -5.3310 C.2   132  ARG132      0.2592
    133  O        -11.2780   30.8750   -4.3280 O.2   132  ARG132     -0.2718
    134  CB        -9.4290   33.3670   -4.5830 C.3   132  ARG132      0.0321
    135  CG       -10.2950   34.3940   -5.2760 C.3   132  ARG132      0.0489
    136  CD       -10.5970   35.6170   -4.4040 C.3   132  ARG132      0.2205
    137  NE       -12.0350   35.8840   -4.3930 N.pl3 132  ARG132     -0.0865
    138  CZ       -12.7210   36.4670   -5.3760 C.cat 132  ARG132      0.5346
    139  NH1      -14.0290   36.6280   -5.2390 N.pl3 132  ARG132      0.1354
    140  NH2      -12.1260   36.9130   -6.4800 N.pl3 132  ARG132      0.1354
    141  N        -11.4000   31.3260   -6.5140 N.am  133  ASN133     -0.1974
    142  CA       -12.7260   30.7000   -6.7010 C.3   133  ASN133      0.1688
    143  C        -12.6910   29.3220   -7.3210 C.2   133  ASN133      0.2292
    144  O        -13.7510   28.7340   -7.6230 O.2   133  ASN133     -0.2864
    145  CB       -13.6310   31.6280   -7.5080 C.3   133  ASN133      0.1181
    146  CG       -14.0250   32.8530   -6.7300 C.2   133  ASN133      0.2629
    147  OD1      -14.2350   32.7730   -5.5240 O.2   133  ASN133     -0.2716
    148  ND2      -14.1530   33.9890   -7.4110 N.am  133  ASN133     -0.0877
    149  N        -11.7190   25.5260   -6.6310 N.3   135  LEU135     -0.1245
    150  CA       -11.5460   24.6080   -5.5270 C.3   135  LEU135      0.1561
    151  C        -10.8020   23.3770   -5.9670 C.2   135  LEU135      0.2260
    152  O        -10.9510   22.9290   -7.1020 O.2   135  LEU135     -0.2867
    153  CB       -12.9090   24.1660   -4.9550 C.3   135  LEU135      0.0270
    154  CG       -13.7310   25.3440   -4.4080 C.3   135  LEU135      0.0019
    155  CD1      -15.0950   24.8910   -3.9220 C.3   135  LEU135      0.0001
    156  CD2      -13.0060   26.0850   -3.3050 C.3   135  LEU135      0.0001
    157  N        -15.9760   27.1360   -7.7590 N.3   145  GLY145     -0.1210
    158  CA       -16.4970   27.0870   -6.3780 C.3   145  GLY145      0.1956
    159  C        -17.3730   28.2310   -5.9100 C.2   145  GLY145      0.2611
    160  O        -17.8200   28.2310   -4.7610 O.2   145  GLY145     -0.2717
    161  N        -17.6410   29.1930   -6.7910 N.am  146  ASP146     -0.1973
    162  CA       -18.4580   30.3710   -6.4390 C.3   146  ASP146      0.1709
    163  C        -19.0950   30.9680   -7.6800 C.2   146  ASP146      0.2293
    164  O        -18.4670   31.0270   -8.7580 O.2   146  ASP146     -0.2864
    165  CB       -17.6290   31.4540   -5.7390 C.3   146  ASP146      0.1436
    166  CG       -18.4790   32.5350   -5.1040 C.2   146  ASP146      0.3671
    167  OD1      -18.8290   32.4110   -3.8900 O.co2 146  ASP146     -0.2456
    168  OD2      -18.7870   33.5250   -5.8080 O.co2 146  ASP146     -0.2456
@<TRIPOS>BOND
     1   122   123    1
     2   124   123    1
     3   124   125    2
     4   123   126    1
     5   126   127    1
     6   128   127   ar
     7   164   163    2
     8   127   129   ar
     9    60    61    1
    10   157   158    1
    11   163   162    1
    12   144   143    2
    13   145   146    1
    14   145   142    1
    15   148   146   am
    16   143   142    1
    17    63    62    2
    18   152   151    2
    19    61    62    1
    20    61    64    1
    21   161   162    1
    22   161   159   am
    23   146   147    2
    24   142   141    1
    25   149   150    1
    26   130   131    1
    27   141   132   am
    28   140   138    1
    29   162   165    1
    30   158   159    1
    31    65    64    1
    32   151   150    1
    33    64    66    1
    34   159   160    2
    35   168   166   ar
    36   165   166    1
    37   150   153    1
    38   138   139    1
    39   138   137    2
    40   132   131    1
    41   132   133    2
    42   135   134    1
    43   135   136    1
    44   131   134    1
    45   166   167   ar
    46   153   154    1
    47    83    81   ar
    48   154   155    1
    49   154   156    1
    50   136   137    1
    51   102   100    1
    52   109   108    1
    53   109   110    2
    54    81    82   ar
    55    81    80    1
    56    59    58    1
    57   111   108    1
    58   111   112    1
    59   108   107    1
    60   100   101    1
    61   100    99    1
    62    73    72    1
    63    73    74    1
    64    80    79    1
    65   106   105    2
    66    58    57    1
    67    72    71    1
    68   107   105   am
    69   105   104    1
    70    99    96    1
    71    57    56    1
    72   113   114    1
    73    79    76    1
    74    71    68    1
    75    23    22    1
    76    23    24    1
    77    75    76    1
    78    75    69   am
    79   115   114    1
    80   115   116    2
    81    68    69    1
    82    68    67    1
    83    78    77    2
    84    76    77    1
    85   120   119   ar
    86   114   117    1
    87    16    15    2
    88   104   103    1
    89    96    95    1
    90    96    97    1
    91    56    55    1
    92    22    15   am
    93    24    25    2
    94    69    70    2
    95    77    84   am
    96    15    14    1
    97    95    86   am
    98   119   121   ar
    99   119   118    1
   100    45    43    1
   101    55    52    1
   102   117   118    1
   103    26    27    1
   104    98    97    2
   105    86    87    2
   106    86    85    1
   107    27    28    1
   108    84    85    1
   109    14    13    1
   110    14    17    1
   111    29    28    2
   112    85    88    1
   113    13    11   am
   114    28    30   am
   115    43    44    1
   116    43    40    1
   117    50    47    1
   118    52    51    1
   119    52    53    1
   120     4     3    2
   121    10    11    1
   122    10     9    1
   123    11    12    2
   124    49    48    2
   125    30    31    1
   126    54    53    2
   127    17    18    1
   128     9     3   am
   129     3     2    1
   130    39    40    1
   131    39    32   am
   132    40    41    1
   133    48    47    1
   134    32    31    1
   135    32    33    2
   136    31    34    1
   137    47    46    1
   138    88    89    1
   139    18    19    1
   140     5     2    1
   141     5     6    1
   142    90    89   ar
   143    90    92   ar
   144     7     6    1
   145    89    91   ar
   146    92    94   ar
   147     2     1    1
   148     6     8    1
   149    41    42    2
   150    91    93   ar
   151    34    35    1
   152    19    20   ar
   153    19    21   ar
   154    94    93   ar
   155    35    36    1
   156    36    37    1
   157    38    37    1
