@<TRIPOS>MOLECULE
tmp/4e4mD00.pdb
 154 145 0 0 0
SMALL
GASTEIGER

@<TRIPOS>ATOM
      1  N        -23.8600   -3.4550   -5.2700 N.3    21  LEU21      -0.1231
      2  CA       -23.7530   -4.4190   -4.1600 C.3    21  LEU21       0.1696
      3  C        -22.4700   -5.2650   -4.2360 C.2    21  LEU21       0.2632
      4  O        -21.7200   -5.3400   -3.2700 O.2    21  LEU21      -0.2714
      5  CB       -24.9860   -5.3300   -4.1030 C.3    21  LEU21       0.0284
      6  CG       -26.2760   -4.6830   -3.6190 C.3    21  LEU21       0.0019
      7  CD1      -27.3870   -5.6790   -3.7000 C.3    21  LEU21       0.0001
      8  CD2      -26.1300   -4.1260   -2.1860 C.3    21  LEU21       0.0001
      9  N        -22.2160   -5.8990   -5.3750 N.am   22  GLY22      -0.1718
     10  CA       -20.9930   -6.6860   -5.5230 C.2    22  GLY22       0.1480
     11  C        -20.9390   -7.5940   -6.7310 C.2    22  GLY22       0.2820
     12  O        -21.9610   -7.8870   -7.3600 O.2    22  GLY22      -0.2669
     13  N        -19.7260   -8.0590   -7.0300 N.am   23  LYS23      -0.1929
     14  CA       -19.4680   -8.9540   -8.1580 C.3    23  LYS23       0.1731
     15  C        -20.0050  -10.3630   -7.8870 C.2    23  LYS23       0.2616
     16  O        -19.8580  -10.9040   -6.7850 O.2    23  LYS23      -0.2715
     17  CB       -17.9630   -9.0590   -8.4530 C.3    23  LYS23       0.0312
     18  CG       -17.2400   -7.7370   -8.7140 C.3    23  LYS23       0.0038
     19  CD       -17.2550   -7.3440  -10.1710 C.3    23  LYS23       0.0206
     20  CE       -16.2540   -6.2140  -10.4700 C.3    23  LYS23       0.1093
     21  NZ       -14.8080   -6.6350  -10.4300 N.3    23  LYS23      -0.1314
     22  N        -20.6330  -10.9370   -8.9040 N.am   24  GLY24      -0.1955
     23  CA       -20.9760  -12.3520   -8.9240 C.3    24  GLY24       0.1869
     24  C        -20.2410  -13.0280  -10.0660 C.2    24  GLY24       0.2309
     25  O        -19.4900  -12.3790  -10.8030 O.2    24  GLY24      -0.2863
     26  N        -24.0440   -7.6010   -9.1620 N.3    29  VAL29      -0.1245
     27  CA       -25.3340   -7.4550   -8.4910 C.3    29  VAL29       0.1561
     28  C        -25.4450   -6.0470   -7.9730 C.2    29  VAL29       0.2260
     29  O        -24.4880   -5.4990   -7.4680 O.2    29  VAL29      -0.2867
     30  CB       -25.5160   -8.4240   -7.3190 C.3    29  VAL29       0.0252
     31  CG1      -26.9170   -8.2390   -6.6900 C.3    29  VAL29       0.0019
     32  CG2      -25.3110   -9.8590   -7.7780 C.3    29  VAL29       0.0019
     33  N        -32.4340   -7.1500   -5.2960 N.3    46  ALA46      -0.1245
     34  CA       -31.0910   -7.3890   -5.8160 C.3    46  ALA46       0.1562
     35  C        -31.2230   -7.7850   -7.2900 C.2    46  ALA46       0.2260
     36  O        -32.0370   -8.6360   -7.6260 O.2    46  ALA46      -0.2867
     37  CB       -30.4160   -8.5020   -5.0320 C.3    46  ALA46       0.0290
     38  N        -29.1120   -8.8810  -10.7980 N.3    48  LYS48      -0.1245
     39  CA       -27.8830   -9.3320  -11.4280 C.3    48  LYS48       0.1561
     40  C        -27.9280   -9.0500  -12.9370 C.2    48  LYS48       0.2260
     41  O        -28.9020   -9.3500  -13.6340 O.2    48  LYS48      -0.2867
     42  CB       -27.6240  -10.8230  -11.1860 C.3    48  LYS48       0.0271
     43  CG       -26.4450  -11.3820  -12.0030 C.3    48  LYS48       0.0035
     44  CD       -26.0510  -12.7980  -11.5990 C.3    48  LYS48       0.0206
     45  CE       -24.9010  -13.3080  -12.4810 C.3    48  LYS48       0.1093
     46  NZ       -24.4970  -14.7170  -12.2200 N.3    48  LYS48      -0.1314
     47  N        -31.4280  -18.3100   -1.6690 N.3    77  VAL77      -0.1245
     48  CA       -31.8760  -16.9810   -2.0280 C.3    77  VAL77       0.1561
     49  C        -33.0290  -17.0470   -3.0180 C.2    77  VAL77       0.2260
     50  O        -33.0480  -17.8400   -3.9750 O.2    77  VAL77      -0.2867
     51  CB       -30.6930  -16.1970   -2.6440 C.3    77  VAL77       0.0252
     52  CG1      -30.2070  -16.8960   -3.9110 C.3    77  VAL77       0.0019
     53  CG2      -31.0730  -14.7700   -2.9660 C.3    77  VAL77       0.0019
     54  N        -33.7780  -10.7920   -7.7310 N.3    95  MET95      -0.1230
     55  CA       -33.6600  -11.6340   -6.5430 C.3    95  MET95       0.1702
     56  C        -34.0380  -10.8220   -5.3200 C.2    95  MET95       0.2592
     57  O        -34.0410   -9.5930   -5.3540 O.2    95  MET95      -0.2718
     58  CB       -32.2120  -12.0870   -6.3370 C.3    95  MET95       0.0401
     59  CG       -31.5990  -12.8620   -7.4520 C.3    95  MET95       0.0596
     60  SD       -29.8460  -13.1410   -7.1040 S.3    95  MET95      -0.1393
     61  CE       -29.1410  -11.5770   -7.6170 C.3    95  MET95       0.0692
     62  N        -34.2790  -11.5130   -4.2160 N.am   96  GLU96      -0.1966
     63  CA       -34.4920  -10.8300   -2.9540 C.3    96  GLU96       0.1733
     64  C        -33.2280  -10.1150   -2.5350 C.2    96  GLU96       0.2616
     65  O        -32.1100  -10.5680   -2.8190 O.2    96  GLU96      -0.2715
     66  CB       -34.9320  -11.7970   -1.8410 C.3    96  GLU96       0.0429
     67  CG       -33.8880  -12.8240   -1.4490 C.3    96  GLU96       0.1163
     68  CD       -34.2890  -13.6340   -0.2350 C.2    96  GLU96       0.3649
     69  OE1      -33.9890  -14.8350   -0.2080 O.co2  96  GLU96      -0.2457
     70  OE2      -34.9010  -13.0720    0.6900 O.co2  96  GLU96      -0.2457
     71  N        -33.4230   -8.9920   -1.8490 N.am   97  TYR97      -0.1960
     72  CA       -32.3320   -8.2510   -1.2590 C.3    97  TYR97       0.1771
     73  C        -32.1150   -8.7320    0.1730 C.2    97  TYR97       0.2619
     74  O        -33.0420   -8.7330    0.9690 O.2    97  TYR97      -0.2715
     75  CB       -32.6410   -6.7540   -1.2960 C.3    97  TYR97       0.0574
     76  CG       -31.6260   -5.9320   -0.5640 C.ar   97  TYR97      -0.0198
     77  CD1      -30.3600   -5.7520   -1.0890 C.ar   97  TYR97      -0.0009
     78  CD2      -31.9220   -5.3460    0.6670 C.ar   97  TYR97      -0.0009
     79  CE1      -29.4140   -5.0070   -0.4270 C.ar   97  TYR97       0.0417
     80  CE2      -30.9660   -4.5970    1.3430 C.ar   97  TYR97       0.0417
     81  CZ       -29.7190   -4.4320    0.7840 C.ar   97  TYR97       0.1957
     82  OH       -28.7590   -3.7060    1.4260 O.3    97  TYR97      -0.2866
     83  N        -30.8860   -9.1400    0.4890 N.am   98  LEU98      -0.1964
     84  CA       -30.5040   -9.5580    1.8460 C.3    98  LEU98       0.1713
     85  C        -29.5370   -8.5390    2.4780 C.2    98  LEU98       0.2458
     86  O        -28.3710   -8.4810    2.1060 O.2    98  LEU98      -0.2730
     87  CB       -29.8970  -10.9710    1.8160 C.3    98  LEU98       0.0310
     88  CG       -30.8870  -12.0240    1.2840 C.3    98  LEU98       0.0022
     89  CD1      -30.1890  -13.2560    0.7570 C.3    98  LEU98       0.0001
     90  CD2      -31.8860  -12.4010    2.3540 C.3    98  LEU98       0.0001
     91  N        -30.0240   -7.7400    3.4470 N.am   99  PRO99      -0.2727
     92  CA       -29.3310   -6.5340    3.9200 C.3    99  PRO99       0.1402
     93  C        -27.8850   -6.7140    4.3670 C.2    99  PRO99       0.2269
     94  O        -27.0670   -5.8310    4.1320 O.2    99  PRO99      -0.2865
     95  CB       -30.1770   -6.0960    5.1210 C.3    99  PRO99       0.0296
     96  CG       -31.5140   -6.6180    4.8540 C.3    99  PRO99       0.0237
     97  CD       -31.2880   -7.9420    4.1800 C.3    99  PRO99       0.0939
     98  N        -25.6870   -8.9280    3.3870 N.3   101  GLY101     -0.1210
     99  CA       -24.7850   -9.2540    2.2930 C.3   101  GLY101      0.1956
    100  C        -24.1490  -10.6090    2.4470 C.2   101  GLY101      0.2612
    101  O        -24.7840  -11.5280    2.9440 O.2   101  GLY101     -0.2717
    102  N        -22.8900  -10.7240    2.0350 N.am  102  SER102     -0.1952
    103  CA       -22.2140  -12.0170    2.0150 C.3   102  SER102      0.1924
    104  C        -21.8270  -12.4310    3.4270 C.2   102  SER102      0.2314
    105  O        -21.5760  -11.5950    4.2930 O.2   102  SER102     -0.2863
    106  CB       -20.9740  -11.9930    1.1010 C.3   102  SER102      0.2116
    107  OG       -19.8690  -11.3200    1.7010 O.3   102  SER102     -0.2180
    108  N        -18.2440  -11.1400    4.3720 N.3   105  ASP105     -0.1239
    109  CA       -18.1900   -9.7660    4.8630 C.3   105  ASP105      0.1674
    110  C        -18.7950   -9.6650    6.2530 C.2   105  ASP105      0.2266
    111  O        -18.2310   -9.0220    7.1160 O.2   105  ASP105     -0.2867
    112  CB       -18.9050   -8.8070    3.9100 C.3   105  ASP105      0.1410
    113  CG       -18.0870   -8.4990    2.6610 C.2   105  ASP105      0.3668
    114  OD1      -18.7030   -8.2010    1.6110 O.co2 105  ASP105     -0.2456
    115  OD2      -16.8330   -8.5530    2.7220 O.co2 105  ASP105     -0.2456
    116  N        -18.2000  -16.1250    0.4540 N.3   146  ARG146     -0.1231
    117  CA       -18.4970  -14.9640   -0.4120 C.3   146  ARG146      0.1694
    118  C        -19.7820  -15.1440   -1.2240 C.2   146  ARG146      0.2592
    119  O        -20.3750  -14.1610   -1.6960 O.2   146  ARG146     -0.2718
    120  CB       -17.3200  -14.6830   -1.3670 C.3   146  ARG146      0.0321
    121  CG       -16.9910  -15.8300   -2.3370 C.3   146  ARG146      0.0489
    122  CD       -15.8540  -15.5150   -3.3350 C.3   146  ARG146      0.2205
    123  NE       -15.5300  -16.7240   -4.1220 N.pl3 146  ARG146     -0.0865
    124  CZ       -14.6550  -17.6770   -3.7710 C.cat 146  ARG146      0.5346
    125  NH1      -13.9420  -17.5940   -2.6470 N.pl3 146  ARG146      0.1354
    126  NH2      -14.4830  -18.7330   -4.5560 N.pl3 146  ARG146      0.1354
    127  N        -20.1850  -16.4060   -1.4100 N.am  147  ASN147     -0.1974
    128  CA       -21.3560  -16.7770   -2.2020 C.3   147  ASN147      0.1688
    129  C        -22.5390  -17.2300   -1.3660 C.2   147  ASN147      0.2292
    130  O        -23.5450  -17.7510   -1.9030 O.2   147  ASN147     -0.2864
    131  CB       -20.9730  -17.8780   -3.1850 C.3   147  ASN147      0.1181
    132  CG       -19.9670  -17.4000   -4.1840 C.2   147  ASN147      0.2629
    133  OD1      -19.9910  -16.2310   -4.5880 O.2   147  ASN147     -0.2716
    134  ND2      -19.0540  -18.2790   -4.5700 N.am  147  ASN147     -0.0877
    135  N        -25.2170  -15.8780    1.6200 N.3   149  LEU149     -0.1245
    136  CA       -25.8500  -14.6370    2.0400 C.3   149  LEU149      0.1561
    137  C        -26.4070  -14.7310    3.4510 C.2   149  LEU149      0.2260
    138  O        -26.7790  -15.8030    3.9280 O.2   149  LEU149     -0.2867
    139  CB       -26.9790  -14.2660    1.0720 C.3   149  LEU149      0.0270
    140  CG       -26.6300  -13.6060   -0.2670 C.3   149  LEU149      0.0019
    141  CD1      -25.8500  -12.3250   -0.0290 C.3   149  LEU149      0.0001
    142  CD2      -25.8680  -14.5600   -1.1940 C.3   149  LEU149      0.0001
    143  N        -26.2690  -18.7520   -2.3250 N.3   159  GLY159     -0.1210
    144  CA       -26.4390  -17.9550   -3.5460 C.3   159  GLY159      0.1956
    145  C        -25.4580  -18.2890   -4.6640 C.2   159  GLY159      0.2611
    146  O        -24.8520  -19.3570   -4.6790 O.2   159  GLY159     -0.2717
    147  N        -25.2860  -17.3500   -5.5860 N.am  160  ASP160     -0.1973
    148  CA       -24.4530  -17.5230   -6.7990 C.3   160  ASP160      0.1709
    149  C        -24.4660  -18.9310   -7.4220 C.2   160  ASP160      0.2293
    150  O        -23.5390  -19.7330   -7.2420 O.2   160  ASP160     -0.2864
    151  CB       -23.0120  -17.0750   -6.5770 C.3   160  ASP160      0.1436
    152  CG       -22.3610  -16.5340   -7.8600 C.2   160  ASP160      0.3671
    153  OD1      -22.6740  -17.0100   -8.9870 O.co2 160  ASP160     -0.2456
    154  OD2      -21.5340  -15.6040   -7.7470 O.co2 160  ASP160     -0.2456
@<TRIPOS>BOND
     1    41    40    2
     2    40    39    1
     3    45    46    1
     4    45    44    1
     5    43    44    1
     6    43    42    1
     7    39    42    1
     8    39    38    1
     9    25    24    2
    10    20    21    1
    11    20    19    1
    12    19    18    1
    13    24    23    1
    14    26    27    1
    15   153   152   ar
    16    23    22    1
    17    22    15   am
    18    18    17    1
    19    27    28    1
    20    27    30    1
    21    17    14    1
    22    14    15    1
    23    14    13    1
    24    28    29    2
    25    15    16    2
    26   152   154   ar
    27   152   151    1
    28    32    30    1
    29    54    55    1
    30    36    35    2
    31    61    60    1
    32    59    60    1
    33    59    58    1
    34   149   150    2
    35   149   148    1
    36    12    11    2
    37    30    31    1
    38    35    34    1
    39    13    11   am
    40   148   151    1
    41   148   147    1
    42    11    10    1
    43    55    58    1
    44    55    56    1
    45    34    33    1
    46    34    37    1
    47   147   145   am
    48    10     9    2
    49     9     3    1
    50    57    56    2
    51    56    62   am
    52     1     2    1
    53   146   145    2
    54   145   144    1
    55   133   132    2
    56   134   132   am
    57   126   124    1
    58     3     2    1
    59     3     4    2
    60    62    63    1
    61   132   131    1
    62     2     5    1
    63   123   124    2
    64   123   122    1
    65     5     6    1
    66    50    49    2
    67    52    51    1
    68   124   125    1
    69     7     6    1
    70     6     8    1
    71   144   143    1
    72   122   121    1
    73   131   128    1
    74    49    48    1
    75    53    51    1
    76    63    64    1
    77    63    66    1
    78    65    64    2
    79    51    48    1
    80    64    71   am
    81   121   120    1
    82   128   127    1
    83   128   129    1
    84    48    47    1
    85   130   129    2
    86    71    72    1
    87    66    67    1
    88   119   118    2
    89    67    68    1
    90   127   118   am
    91   120   117    1
    92    75    72    1
    93    75    76    1
    94    72    73    1
    95   118   117    1
    96   142   140    1
    97    77    76   ar
    98    77    79   ar
    99    76    78   ar
   100    79    81   ar
   101   117   116    1
   102   140   141    1
   103   140   139    1
   104    68    69   ar
   105    68    70   ar
   106    73    83   am
   107    73    74    2
   108    83    84    1
   109    78    80   ar
   110    89    88    1
   111    81    80   ar
   112    81    82    1
   113   139   136    1
   114   106   107    1
   115   106   103    1
   116    88    87    1
   117    88    90    1
   118   114   113   ar
   119   135   136    1
   120    87    84    1
   121    84    85    1
   122   103   102    1
   123   103   104    1
   124   102   100   am
   125   136   137    1
   126    86    85    2
   127    99   100    1
   128    99    98    1
   129   100   101    2
   130    85    91   am
   131   113   115   ar
   132   113   112    1
   133   104   105    2
   134    91    92    1
   135    91    97    1
   136   137   138    2
   137   112   109    1
   138    92    93    1
   139    92    95    1
   140    94    93    2
   141    97    96    1
   142   108   109    1
   143    96    95    1
   144   109   110    1
   145   110   111    2
