@<TRIPOS>MOLECULE
tmp/4e4nA00.pdb
 160 150 0 0 0
SMALL
GASTEIGER

@<TRIPOS>ATOM
      1  N          7.3860   55.1860   -5.4560 N.3    29  LEU29      -0.1231
      2  CA         8.0900   55.5690   -4.2210 C.3    29  LEU29       0.1693
      3  C          8.4020   54.3600   -3.3210 C.2    29  LEU29       0.2593
      4  O          9.3740   54.3700   -2.5460 O.2    29  LEU29      -0.2718
      5  CB         7.2560   56.6170   -3.4580 C.3    29  LEU29       0.0284
      6  CG         7.0710   57.9310   -4.2390 C.3    29  LEU29       0.0019
      7  CD1        6.1610   58.8810   -3.5160 C.3    29  LEU29       0.0001
      8  CD2        8.4340   58.5860   -4.5190 C.3    29  LEU29       0.0001
      9  N          7.5780   53.3170   -3.4220 N.am   30  GLY30      -0.1942
     10  CA         7.8170   52.0810   -2.6900 C.3    30  GLY30       0.2014
     11  C          6.8340   51.0210   -3.1120 C.2    30  GLY30       0.2639
     12  O          5.8040   51.3280   -3.7000 O.2    30  GLY30      -0.2714
     13  N          7.1550   49.7630   -2.8330 N.am   31  GLU31      -0.1963
     14  CA         6.1850   48.6970   -3.0250 C.3    31  GLU31       0.1733
     15  C          6.4520   47.4840   -2.1600 C.2    31  GLU31       0.2616
     16  O          7.5670   47.2910   -1.6460 O.2    31  GLU31      -0.2715
     17  CB         6.0900   48.2870   -4.4950 C.3    31  GLU31       0.0429
     18  CG         7.3580   47.7970   -5.1060 C.3    31  GLU31       0.1163
     19  CD         7.1510   47.3380   -6.5390 C.2    31  GLU31       0.3649
     20  OE1        6.7750   48.1840   -7.3790 O.co2  31  GLU31      -0.2457
     21  OE2        7.3670   46.1380   -6.8210 O.co2  31  GLU31      -0.2457
     22  N          5.3970   46.6910   -1.9900 N.am   32  GLY32      -0.1955
     23  CA         5.4520   45.4290   -1.2730 C.3    32  GLY32       0.1869
     24  C          4.6620   44.3850   -2.0290 C.2    32  GLY32       0.2309
     25  O          4.3610   44.5650   -3.2100 O.2    32  GLY32      -0.2863
     26  N          0.8410   45.9250   -2.2620 N.3    35  GLY35      -0.1210
     27  CA         0.6100   47.3020   -2.6520 C.3    35  GLY35       0.1956
     28  C          1.8230   48.1270   -3.0360 C.2    35  GLY35       0.2612
     29  O          2.9640   47.6460   -3.0760 O.2    35  GLY35      -0.2717
     30  N          1.5450   49.3950   -3.3190 N.am   36  LYS36      -0.1965
     31  CA         2.5580   50.3520   -3.7120 C.3    36  LYS36       0.1728
     32  C          2.1870   51.7680   -3.2920 C.2    36  LYS36       0.2616
     33  O          1.0280   52.0840   -3.0170 O.2    36  LYS36      -0.2715
     34  CB         2.8030   50.2980   -5.2250 C.3    36  LYS36       0.0311
     35  CG         1.5470   50.2400   -6.0590 C.3    36  LYS36       0.0038
     36  CD         1.8500   49.8150   -7.4950 C.3    36  LYS36       0.0206
     37  CE         0.6410   50.0580   -8.4010 C.3    36  LYS36       0.1093
     38  NZ        -0.6690   49.6700   -7.7770 N.3    36  LYS36      -0.1314
     39  N          3.2150   52.5940   -3.2280 N.am   37  VAL37      -0.1977
     40  CA         3.0810   54.0240   -3.0780 C.3    37  VAL37       0.1596
     41  C          3.7460   54.6330   -4.3010 C.2    37  VAL37       0.2287
     42  O          4.9160   54.3250   -4.6020 O.2    37  VAL37      -0.2864
     43  CB         3.7610   54.5270   -1.8090 C.3    37  VAL37       0.0276
     44  CG1        3.6140   56.0820   -1.6840 C.3    37  VAL37       0.0022
     45  CG2        3.1970   53.7860   -0.5930 C.3    37  VAL37       0.0022
     46  N          1.7150   61.8580   -3.0010 N.3    54  ALA54      -0.1245
     47  CA         1.9840   60.4370   -2.8190 C.3    54  ALA54       0.1562
     48  C          0.6750   59.6590   -2.7290 C.2    54  ALA54       0.2260
     49  O         -0.2520   60.0430   -1.9920 O.2    54  ALA54      -0.2867
     50  CB         2.8480   60.2010   -1.5620 C.3    54  ALA54       0.0290
     51  N         -1.0050   55.8620   -2.2390 N.3    56  LYS56      -0.1245
     52  CA        -0.9400   54.4740   -1.8020 C.3    56  LYS56       0.1561
     53  C         -2.1350   53.6710   -2.3170 C.2    56  LYS56       0.2260
     54  O         -3.2980   54.0370   -2.0900 O.2    56  LYS56      -0.2867
     55  CB        -0.8530   54.4050   -0.2830 C.3    56  LYS56       0.0271
     56  CG        -0.5280   53.0310    0.2810 C.3    56  LYS56       0.0035
     57  CD        -0.1680   53.1600    1.7640 C.3    56  LYS56       0.0206
     58  CE         0.8110   52.1260    2.2240 C.3    56  LYS56       0.1093
     59  NZ         0.9330   52.0960    3.7180 N.3    56  LYS56      -0.1314
     60  N          2.9950   62.5190    8.6120 N.3    81  VAL81      -0.1245
     61  CA         2.7280   62.9090    7.2400 C.3    81  VAL81       0.1561
     62  C          1.2420   63.2690    7.0380 C.2    81  VAL81       0.2260
     63  O          0.3590   62.6990    7.6800 O.2    81  VAL81      -0.2867
     64  CB         3.1360   61.8150    6.2510 C.3    81  VAL81       0.0252
     65  CG1        2.1840   60.5920    6.3550 C.3    81  VAL81       0.0019
     66  CG2        3.1720   62.3940    4.8170 C.3    81  VAL81       0.0019
     67  N         -1.6100   61.4190   -0.0860 N.3    95  MET95      -0.1230
     68  CA        -0.8240   62.0590    0.9620 C.3    95  MET95       0.1702
     69  C          0.0740   63.1210    0.3760 C.2    95  MET95       0.2592
     70  O          0.4050   63.0690   -0.8120 O.2    95  MET95      -0.2718
     71  CB         0.0470   61.0180    1.6480 C.3    95  MET95       0.0401
     72  CG        -0.7270   59.9710    2.4280 C.3    95  MET95       0.0596
     73  SD         0.3610   58.6610    2.9720 S.3    95  MET95      -0.1393
     74  CE         0.6060   57.7920    1.4160 C.3    95  MET95       0.0692
     75  N          0.4790   64.0880    1.2010 N.am   96  GLU96      -0.1966
     76  CA         1.5120   65.0340    0.7880 C.3    96  GLU96       0.1733
     77  C          2.7640   64.2750    0.3650 C.2    96  GLU96       0.2616
     78  O          3.0770   63.2410    0.9300 O.2    96  GLU96      -0.2715
     79  CB         1.8500   66.0350    1.9010 C.3    96  GLU96       0.0429
     80  CG         2.5210   65.4040    3.1010 C.3    96  GLU96       0.1163
     81  CD         2.9700   66.3940    4.1440 C.2    96  GLU96       0.3649
     82  OE1        3.0900   67.5930    3.8360 O.co2  96  GLU96      -0.2457
     83  OE2        3.2440   65.9580    5.2850 O.co2  96  GLU96      -0.2457
     84  N          3.4440   64.7790   -0.6540 N.am   97  PHE97      -0.1960
     85  CA         4.6770   64.1810   -1.1590 C.3    97  PHE97       0.1771
     86  C          5.8900   64.8790   -0.5440 C.2    97  PHE97       0.2619
     87  O          6.0020   66.1060   -0.6210 O.2    97  PHE97      -0.2715
     88  CB         4.7190   64.2930   -2.6880 C.3    97  PHE97       0.0574
     89  CG         6.0400   63.8980   -3.2850 C.ar   97  PHE97      -0.0200
     90  CD1        6.5740   62.6370   -3.0450 C.ar   97  PHE97      -0.0042
     91  CD2        6.7330   64.7710   -4.1040 C.ar   97  PHE97      -0.0042
     92  CE1        7.8100   62.2690   -3.5800 C.ar   97  PHE97      -0.0003
     93  CE2        7.9720   64.3950   -4.6710 C.ar   97  PHE97      -0.0003
     94  CZ         8.4970   63.1470   -4.4140 C.ar   97  PHE97      -0.0000
     95  N          6.7830   64.1090    0.0790 N.am   98  LEU98      -0.1977
     96  CA         8.0420   64.6410    0.6250 C.3    98  LEU98       0.1596
     97  C          9.2090   64.2420   -0.2870 C.2    98  LEU98       0.2287
     98  O          9.6500   63.0850   -0.2650 O.2    98  LEU98      -0.2864
     99  CB         8.2640   64.1570    2.0540 C.3    98  LEU98       0.0297
    100  CG         7.4930   64.9650    3.1070 C.3    98  LEU98       0.0022
    101  CD1        5.9770   64.9380    2.8910 C.3    98  LEU98       0.0001
    102  CD2        7.8210   64.5100    4.5460 C.3    98  LEU98       0.0001
    103  N         12.2130   61.9350    0.4750 N.3   101  GLY101     -0.1210
    104  CA        11.9690   60.5270    0.6880 C.3   101  GLY101      0.1956
    105  C         12.2250   60.0950    2.1220 C.2   101  GLY101      0.2612
    106  O         12.1830   60.8980    3.0530 O.2   101  GLY101     -0.2717
    107  N         12.4890   58.8170    2.2960 N.am  102  SER102     -0.1952
    108  CA        12.6700   58.2710    3.6250 C.3   102  SER102      0.1924
    109  C         14.1140   58.5010    4.0840 C.2   102  SER102      0.2314
    110  O         14.9970   58.8410    3.2750 O.2   102  SER102     -0.2863
    111  CB        12.3170   56.7860    3.6530 C.3   102  SER102      0.2116
    112  OG        13.3780   55.9630    3.1780 O.3   102  SER102     -0.2180
    113  N         16.7210   56.5380    2.1190 N.3   105  GLU105     -0.1245
    114  CA        17.2000   57.1870    0.8960 C.3   105  GLU105      0.1567
    115  C         18.0740   58.4040    1.1900 C.2   105  GLU105      0.2260
    116  O         19.1120   58.6300    0.5610 O.2   105  GLU105     -0.2867
    117  CB        16.0100   57.6610    0.0460 C.3   105  GLU105      0.0388
    118  CG        15.3220   56.5720   -0.7530 C.3   105  GLU105      0.1160
    119  CD        14.2150   55.8820    0.0100 C.2   105  GLU105      0.3649
    120  OE1       13.1780   56.5340    0.2970 O.co2 105  GLU105     -0.2457
    121  OE2       14.3770   54.6770    0.3050 O.co2 105  GLU105     -0.2457
    122  N         12.8770   53.3460    7.0910 N.3   146  ARG146     -0.1231
    123  CA        12.1960   53.3760    5.7850 C.3   146  ARG146      0.1694
    124  C         10.7960   53.9990    5.8460 C.2   146  ARG146      0.2592
    125  O         10.2320   54.3690    4.8290 O.2   146  ARG146     -0.2718
    126  CB        12.0830   51.9660    5.2100 C.3   146  ARG146      0.0321
    127  CG        11.1870   51.0350    6.0090 C.3   146  ARG146      0.0489
    128  CD        11.0710   49.6490    5.3630 C.3   146  ARG146      0.2205
    129  NE        10.8560   48.6450    6.4020 N.pl3 146  ARG146     -0.0865
    130  CZ         9.6740   48.3040    6.9180 C.cat 146  ARG146      0.5346
    131  NH1        8.5410   48.8410    6.4670 N.pl3 146  ARG146      0.1354
    132  NH2        9.6190   47.3940    7.8900 N.pl3 146  ARG146      0.1354
    133  N         10.2290   54.0680    7.0440 N.am  147  ASN147     -0.1974
    134  CA         8.9020   54.6620    7.2520 C.3   147  ASN147      0.1688
    135  C          8.9670   56.0530    7.8700 C.2   147  ASN147      0.2292
    136  O          7.9410   56.6080    8.2520 O.2   147  ASN147     -0.2864
    137  CB         8.0490   53.7270    8.1030 C.3   147  ASN147      0.1181
    138  CG         7.6630   52.4750    7.3620 C.2   147  ASN147      0.2629
    139  OD1        7.5070   52.4970    6.1470 O.2   147  ASN147     -0.2716
    140  ND2        7.5220   51.3670    8.0840 N.am  147  ASN147     -0.0877
    141  N          9.9550   59.8590    7.0010 N.3   149  LEU149     -0.1245
    142  CA        10.1680   60.7560    5.8810 C.3   149  LEU149      0.1561
    143  C         10.8840   62.0400    6.2920 C.2   149  LEU149      0.2260
    144  O         10.7600   62.4840    7.4140 O.2   149  LEU149     -0.2867
    145  CB         8.8400   61.1310    5.2370 C.3   149  LEU149      0.0270
    146  CG         8.0430   59.9800    4.6210 C.3   149  LEU149      0.0019
    147  CD1        6.6450   60.4930    4.2230 C.3   149  LEU149      0.0001
    148  CD2        8.7930   59.3690    3.4360 C.3   149  LEU149      0.0001
    149  N          5.7920   58.3570    8.2220 N.3   159  GLY159     -0.1210
    150  CA         5.2570   58.3960    6.8410 C.3   159  GLY159      0.1956
    151  C          4.4730   57.1860    6.3350 C.2   159  GLY159      0.2611
    152  O          4.1960   57.0810    5.1320 O.2   159  GLY159     -0.2717
    153  N          4.1240   56.2730    7.2350 N.am  160  ASP160     -0.1973
    154  CA         3.3730   55.0700    6.8730 C.3   160  ASP160      0.1709
    155  C          2.6940   54.5400    8.1090 C.2   160  ASP160      0.2293
    156  O          3.2710   54.5990    9.2000 O.2   160  ASP160     -0.2864
    157  CB         4.2870   54.0050    6.3010 C.3   160  ASP160      0.1436
    158  CG         3.5300   52.9550    5.5450 C.2   160  ASP160      0.3671
    159  OD1        3.3820   53.1120    4.3130 O.co2 160  ASP160     -0.2456
    160  OD2        3.0520   52.0030    6.1960 O.co2 160  ASP160     -0.2456
@<TRIPOS>BOND
     1    37    38    1
     2    37    36    1
     3    36    35    1
     4    20    19   ar
     5    21    19   ar
     6    19    18    1
     7    35    34    1
     8     1     2    1
     9    34    31    1
    10    18    17    1
    11    93    94   ar
    12    93    91   ar
    13    42    41    2
    14     8     6    1
    15    17    14    1
    16    94    92   ar
    17    41    40    1
    18     6     7    1
    19     6     5    1
    20     2     5    1
    21     2     3    1
    22    91    89   ar
    23    31    30    1
    24    31    32    1
    25    12    11    2
    26    92    90   ar
    27     9     3   am
    28     9    10    1
    29     3     4    2
    30    30    28   am
    31    32    39   am
    32    32    33    2
    33    89    90   ar
    34    89    88    1
    35    39    40    1
    36    25    24    2
    37    11    13   am
    38    11    10    1
    39    40    43    1
    40    29    28    2
    41    28    27    1
    42    14    13    1
    43    14    15    1
    44    46    47    1
    45    47    48    1
    46    47    50    1
    47    48    49    2
    48    88    85    1
    49    27    26    1
    50    53    54    2
    51    53    52    1
    52    51    52    1
    53    15    22   am
    54    15    16    2
    55    24    23    1
    56    22    23    1
    57    43    44    1
    58    43    45    1
    59    52    55    1
    60    85    84    1
    61    85    86    1
    62    70    69    2
    63   118   119    1
    64   118   117    1
    65    84    77   am
    66    87    86    2
    67    86    95   am
    68    97    98    2
    69    97    96    1
    70    55    56    1
    71    67    68    1
    72   119   120   ar
    73   119   121   ar
    74   117   114    1
    75    95    96    1
    76    56    57    1
    77    77    76    1
    78    77    78    2
    79    69    68    1
    80    69    75   am
    81   103   104    1
    82   116   115    2
    83    96    99    1
    84   104   105    1
    85    76    75    1
    86    76    79    1
    87   114   115    1
    88   114   113    1
    89    68    71    1
    90    74    73    1
    91    71    72    1
    92    57    58    1
    93    79    80    1
    94    99   100    1
    95   105   107   am
    96   105   106    2
    97    58    59    1
    98   107   108    1
    99    72    73    1
   100   101   100    1
   101    80    81    1
   102   100   102    1
   103   112   111    1
   104   110   109    2
   105   148   146    1
   106   108   111    1
   107   108   109    1
   108    82    81   ar
   109    81    83   ar
   110   147   146    1
   111   159   158   ar
   112   146   145    1
   113    66    64    1
   114   125   124    2
   115   152   151    2
   116   126   123    1
   117   126   127    1
   118   145   142    1
   119   128   127    1
   120   128   129    1
   121   158   160   ar
   122   158   157    1
   123   123   124    1
   124   123   122    1
   125   124   133   am
   126   142   143    1
   127   142   141    1
   128   139   138    2
   129    64    65    1
   130    64    61    1
   131   143   144    2
   132   157   154    1
   133   151   150    1
   134   151   153   am
   135   129   130    2
   136   131   130    1
   137   150   149    1
   138   154   153    1
   139   154   155    1
   140   130   132    1
   141    62    61    1
   142    62    63    2
   143   133   134    1
   144    61    60    1
   145   134   135    1
   146   134   137    1
   147   138   140   am
   148   138   137    1
   149   135   136    2
   150   155   156    2
