@<TRIPOS>MOLECULE
tmp/4e4rA00.pdb
 71 68 0 0 0
SMALL
GASTEIGER

@<TRIPOS>ATOM
      1  N          9.2950   20.5990   32.6880 N.3   125  GLY125     -0.1225
      2  CA         8.4190   19.4290   32.4700 C.3   125  GLY125      0.1811
      3  C          7.2000   19.6910   31.5990 C.2   125  GLY125      0.2280
      4  O          6.4760   18.7530   31.2080 O.2   125  GLY125     -0.2866
      5  N          7.1560   20.6790   28.5040 N.3   127  ALA127     -0.1231
      6  CA         7.4830   20.3580   27.1190 C.3   127  ALA127      0.1694
      7  C          7.8360   18.8910   26.9880 C.2   127  ALA127      0.2592
      8  O          8.5040   18.3210   27.8370 O.2   127  ALA127     -0.2718
      9  CB         8.6600   21.2070   26.6600 C.3   127  ALA127      0.0304
     10  N          7.4300   18.3180   25.8700 N.am  128  HIS128     -0.1976
     11  CA         7.6740   16.9130   25.6050 C.3   128  HIS128      0.1656
     12  C          9.1460   16.6050   25.5720 C.2   128  HIS128      0.2291
     13  O          9.5850   15.5770   26.1030 O.2   128  HIS128     -0.2864
     14  CB         7.0180   16.4930   24.2860 C.3   128  HIS128      0.0771
     15  CG         7.1940   15.0430   23.9760 C.ar  128  HIS128      0.0820
     16  ND1        7.7270   14.6170   22.8220 N.ar  128  HIS128     -0.2267
     17  CD2        6.9400   13.9050   24.7440 C.ar  128  HIS128      0.1154
     18  CE1        7.7820   13.2700   22.8220 C.ar  128  HIS128      0.1986
     19  NE2        7.3040   12.8340   24.0090 N.ar  128  HIS128     -0.2212
     20  N         11.5100   17.7510   27.3210 N.3   130  THR130     -0.1203
     21  CA        12.0830   17.6690   28.6510 C.3   130  THR130      0.1994
     22  C         11.8310   16.2540   29.1350 C.2   130  THR130      0.2618
     23  O         10.7170   15.7280   29.0040 O.2   130  THR130     -0.2717
     24  CB        11.4330   18.7030   29.5680 C.3   130  THR130      0.1784
     25  OG1       11.6880   20.0040   29.0000 O.3   130  THR130     -0.2211
     26  CG2       11.9050   18.5740   31.0500 C.3   130  THR130      0.0376
     27  N         12.7970   15.6400   29.7400 N.am  131  GLY131     -0.1942
     28  CA        12.4740   14.2590   30.1260 C.3   131  GLY131      0.2014
     29  C         11.8180   14.4210   31.4800 C.2   131  GLY131      0.2638
     30  O         10.8040   15.1600   31.6940 O.2   131  GLY131     -0.2714
     31  N         12.4460   13.7280   32.3920 N.am  132  ASP132     -0.1971
     32  CA        12.2030   13.9250   33.8020 C.3   132  ASP132      0.1709
     33  C         13.1010   15.0670   34.1890 C.2   132  ASP132      0.2293
     34  O         14.3150   15.0350   33.9790 O.2   132  ASP132     -0.2864
     35  CB        12.5650   12.6810   34.6000 C.3   132  ASP132      0.1436
     36  CG        11.7270   11.4680   34.2130 C.2   132  ASP132      0.3671
     37  OD1       10.5250   11.6360   33.9030 O.co2 132  ASP132     -0.2456
     38  OD2       12.2830   10.3530   34.2050 O.co2 132  ASP132     -0.2456
     39  N          8.8330   19.4530   38.7990 N.3   303  ASP303     -0.1225
     40  CA         8.4230   18.9080   37.5500 C.3   303  ASP303      0.1805
     41  C          6.9150   19.1730   37.3020 C.2   303  ASP303      0.2598
     42  O          6.0820   18.8060   38.0870 O.2   303  ASP303     -0.2718
     43  CB         8.6540   17.3870   37.5420 C.3   303  ASP303      0.1424
     44  CG         8.4400   16.7640   36.1810 C.2   303  ASP303      0.3668
     45  OD1        9.0240   17.1660   35.1570 O.co2 303  ASP303     -0.2456
     46  OD2        7.6790   15.7740   36.1320 O.co2 303  ASP303     -0.2456
     47  N          6.6460   19.8430   36.2060 N.am  304  LEU304     -0.1966
     48  CA         5.2960   20.1000   35.7220 C.3   304  LEU304      0.1728
     49  C          4.7610   18.9020   34.9800 C.2   304  LEU304      0.2617
     50  O          5.5150   18.1790   34.3380 O.2   304  LEU304     -0.2715
     51  CB         5.2840   21.2630   34.7740 C.3   304  LEU304      0.0311
     52  CG         5.6660   22.6180   35.3740 C.3   304  LEU304      0.0022
     53  CD1        6.2130   23.5560   34.2710 C.3   304  LEU304      0.0001
     54  CD2        4.4640   23.2180   36.1130 C.3   304  LEU304      0.0001
     55  N          3.4300   18.7400   35.0160 N.am  305  SER305     -0.1936
     56  CA         2.7410   17.8590   34.0550 C.3   305  SER305      0.2055
     57  C          2.8250   18.4300   32.6320 C.2   305  SER305      0.2642
     58  O          2.7420   19.6510   32.4480 O.2   305  SER305     -0.2714
     59  CB         1.2560   17.7450   34.4620 C.3   305  SER305      0.2130
     60  OG         0.5050   17.0420   33.4940 O.3   305  SER305     -0.2179
     61  N          2.8750   17.5560   31.6310 N.am  306  ARG306     -0.1977
     62  CA         2.7580   17.9590   30.2300 C.3   306  ARG306      0.1597
     63  C          1.4310   18.6920   30.0000 C.2   306  ARG306      0.2287
     64  O          1.3260   19.5340   29.1190 O.2   306  ARG306     -0.2864
     65  CB         2.8490   16.7450   29.3050 C.3   306  ARG306      0.0334
     66  CG         4.2270   16.0720   29.3130 C.3   306  ARG306      0.0492
     67  CD         5.0810   16.3520   28.0720 C.3   306  ARG306      0.2205
     68  NE         4.3260   16.8150   26.8940 N.pl3 306  ARG306     -0.0865
     69  CZ         3.8480   16.0570   25.9060 C.cat 306  ARG306      0.5346
     70  NH1        4.0310   14.7340   25.8660 N.pl3 306  ARG306      0.1354
     71  NH2        3.1920   16.6520   24.9280 N.pl3 306  ARG306      0.1354
@<TRIPOS>BOND
     1    18    16   ar
     2    18    19   ar
     3    16    15   ar
     4    15    14    1
     5    15    17   ar
     6    19    17   ar
     7    14    11    1
     8    71    69    1
     9    12    11    1
    10    12    13    2
    11    11    10    1
    12    70    69    1
    13    10     7   am
    14    69    68    2
    15     9     6    1
    16    68    67    1
    17     7     6    1
    18     7     8    2
    19     6     5    1
    20    20    21    1
    21    67    66    1
    22    21    22    1
    23    21    24    1
    24    25    24    1
    25    23    22    2
    26    64    63    2
    27    22    27   am
    28    65    66    1
    29    65    62    1
    30    24    26    1
    31    27    28    1
    32    63    62    1
    33    28    29    1
    34    62    61    1
    35     4     3    2
    36    29    30    2
    37    29    31   am
    38     3     2    1
    39    61    57   am
    40    31    32    1
    41    58    57    2
    42     2     1    1
    43    57    56    1
    44    60    59    1
    45    32    33    1
    46    32    35    1
    47    37    36   ar
    48    34    33    2
    49    56    59    1
    50    56    55    1
    51    38    36   ar
    52    36    35    1
    53    53    52    1
    54    50    49    2
    55    51    52    1
    56    51    48    1
    57    49    55   am
    58    49    48    1
    59    45    44   ar
    60    52    54    1
    61    48    47    1
    62    46    44   ar
    63    44    43    1
    64    47    41   am
    65    41    40    1
    66    41    42    2
    67    43    40    1
    68    40    39    1
