@<TRIPOS>MOLECULE
tmp/4e4vB00.pdb
 92 85 0 0 0
SMALL
GASTEIGER

@<TRIPOS>ATOM
      1  N         -7.1800  -61.4040   42.1810 N.3   349  ILE349     -0.1231
      2  CA        -8.4570  -60.7050   42.3490 C.3   349  ILE349      0.1692
      3  C         -8.8060  -60.6520   43.8230 C.2   349  ILE349      0.2591
      4  O         -9.3240  -59.6680   44.2910 O.2   349  ILE349     -0.2718
      5  CB        -9.5950  -61.4000   41.5570 C.3   349  ILE349      0.0266
      6  CG1       -9.4130  -61.1710   40.0660 C.3   349  ILE349      0.0019
      7  CG2      -10.9520  -60.8570   41.9360 C.3   349  ILE349      0.0020
      8  CD1      -10.2950  -62.0630   39.2310 C.3   349  ILE349      0.0001
      9  N         -8.4960  -61.6990   44.5720 N.am  350  VAL350     -0.1980
     10  CA        -8.6680  -61.6400   46.0110 C.3   350  VAL350      0.1595
     11  C         -7.8010  -60.5050   46.5700 C.2   350  VAL350      0.2287
     12  O         -8.2400  -59.7370   47.4060 O.2   350  VAL350     -0.2864
     13  CB        -8.2950  -62.9770   46.6860 C.3   350  VAL350      0.0276
     14  CG1       -8.2920  -62.8430   48.2130 C.3   350  VAL350      0.0022
     15  CG2       -9.2580  -64.0580   46.2710 C.3   350  VAL350      0.0022
     16  N         -9.2700  -57.1190   45.9680 N.3   353  VAL353     -0.1231
     17  CA       -10.3740  -56.7970   46.8590 C.3   353  VAL353      0.1692
     18  C         -9.8360  -56.4320   48.2460 C.2   353  VAL353      0.2592
     19  O        -10.3230  -55.4890   48.8730 O.2   353  VAL353     -0.2718
     20  CB       -11.4210  -57.9570   46.9250 C.3   353  VAL353      0.0266
     21  CG1      -12.4230  -57.7450   48.0410 C.3   353  VAL353      0.0020
     22  CG2      -12.1660  -58.0500   45.6320 C.3   353  VAL353      0.0020
     23  N         -8.8110  -57.1510   48.7040 N.am  354  HIS354     -0.1976
     24  CA        -8.1140  -56.8270   49.9580 C.3   354  HIS354      0.1656
     25  C         -7.4390  -55.4410   49.9760 C.2   354  HIS354      0.2291
     26  O         -7.2780  -54.8580   51.0380 O.2   354  HIS354     -0.2864
     27  CB        -7.0710  -57.9080   50.3030 C.3   354  HIS354      0.0771
     28  CG        -7.6670  -59.2100   50.7600 C.ar  354  HIS354      0.0820
     29  ND1       -9.0220  -59.4850   50.6860 N.ar  354  HIS354     -0.2267
     30  CD2       -7.0910  -60.3120   51.2960 C.ar  354  HIS354      0.1154
     31  CE1       -9.2500  -60.6980   51.1530 C.ar  354  HIS354      0.1986
     32  NE2       -8.0960  -61.2210   51.5330 N.ar  354  HIS354     -0.2212
     33  N        -15.4600  -60.0650   39.2070 N.3   383  ILE383     -0.1245
     34  CA       -15.1110  -60.3120   40.6060 C.3   383  ILE383      0.1561
     35  C        -16.0700  -61.3450   41.1960 C.2   383  ILE383      0.2260
     36  O        -15.6360  -62.2710   41.8740 O.2   383  ILE383     -0.2867
     37  CB       -15.0940  -59.0040   41.4610 C.3   383  ILE383      0.0252
     38  CG1      -14.0650  -58.0110   40.9270 C.3   383  ILE383      0.0019
     39  CG2      -14.7370  -59.2820   42.9270 C.3   383  ILE383      0.0019
     40  CD1      -14.0000  -56.6930   41.7210 C.3   383  ILE383      0.0001
     41  N        -14.8820  -64.7990   40.3530 N.3   386  ALA386     -0.1231
     42  CA       -13.7950  -65.3700   41.1170 C.3   386  ALA386      0.1694
     43  C        -14.3310  -65.8180   42.4710 C.2   386  ALA386      0.2591
     44  O        -13.8880  -66.8140   43.0150 O.2   386  ALA386     -0.2718
     45  CB       -12.6720  -64.3770   41.2780 C.3   386  ALA386      0.0304
     46  N        -15.2850  -65.0780   43.0110 N.am  387  ALA387     -0.1980
     47  CA       -15.9710  -65.4820   44.2320 C.3   387  ALA387      0.1597
     48  C        -16.7310  -66.8130   44.0730 C.2   387  ALA387      0.2287
     49  O        -16.7370  -67.6360   44.9980 O.2   387  ALA387     -0.2864
     50  CB       -16.9230  -64.3850   44.6910 C.3   387  ALA387      0.0319
     51  N        -14.5770  -69.6780   44.7050 N.3   390  LEU390     -0.1245
     52  CA       -14.2540  -69.8540   46.1190 C.3   390  LEU390      0.1561
     53  C        -15.5180  -70.0730   46.9250 C.2   390  LEU390      0.2260
     54  O        -15.4670  -70.2340   48.1400 O.2   390  LEU390     -0.2867
     55  CB       -13.5600  -68.6160   46.6820 C.3   390  LEU390      0.0270
     56  CG       -12.2980  -68.1030   45.9820 C.3   390  LEU390      0.0019
     57  CD1      -11.7960  -66.8270   46.6400 C.3   390  LEU390      0.0001
     58  CD2      -11.2430  -69.1620   45.9920 C.3   390  LEU390      0.0001
     59  N        -17.7140  -67.9100   47.6970 N.3   392  GLU392     -0.1245
     60  CA       -17.7740  -66.8170   48.6810 C.3   392  GLU392      0.1567
     61  C        -18.6280  -65.6680   48.1890 C.2   392  GLU392      0.2260
     62  O        -18.4590  -64.5450   48.6380 O.2   392  GLU392     -0.2867
     63  CB       -16.3670  -66.2910   49.0290 C.3   392  GLU392      0.0388
     64  CG       -15.4600  -67.3520   49.6390 C.3   392  GLU392      0.1160
     65  CD       -14.2820  -66.7670   50.3680 C.2   392  GLU392      0.3649
     66  OE1      -13.2960  -66.4130   49.6940 O.co2 392  GLU392     -0.2457
     67  OE2      -14.3370  -66.6540   51.6130 O.co2 392  GLU392     -0.2457
     68  N        -20.3250  -63.5870   50.9700 N.3   395  LYS395     -0.1231
     69  CA       -19.4220  -62.6670   51.6700 C.3   395  LYS395      0.1693
     70  C        -19.1180  -61.4500   50.8090 C.2   395  LYS395      0.2591
     71  O        -19.0330  -60.3340   51.3000 O.2   395  LYS395     -0.2718
     72  CB       -18.1120  -63.3730   52.0690 C.3   395  LYS395      0.0285
     73  CG       -17.2720  -62.5890   53.0840 C.3   395  LYS395      0.0035
     74  CD       -16.0920  -63.3820   53.6510 C.3   395  LYS395      0.0206
     75  CE       -15.2470  -62.5010   54.5980 C.3   395  LYS395      0.1093
     76  NZ       -14.0560  -63.2120   55.1740 N.3   395  LYS395     -0.1314
     77  N        -18.9700  -61.6610   49.5110 N.am  396  LEU396     -0.1980
     78  CA       -18.7170  -60.5490   48.6160 C.3   396  LEU396      0.1596
     79  C        -19.9480  -59.6930   48.5090 C.2   396  LEU396      0.2287
     80  O        -19.8470  -58.4840   48.4040 O.2   396  LEU396     -0.2864
     81  CB       -18.3490  -61.0360   47.2280 C.3   396  LEU396      0.0297
     82  CG       -18.1680  -59.8980   46.2250 C.3   396  LEU396      0.0022
     83  CD1      -17.0490  -58.9620   46.6560 C.3   396  LEU396      0.0001
     84  CD2      -17.8790  -60.4830   44.8550 C.3   396  LEU396      0.0001
     85  N        -20.0540  -57.5420   51.4530 N.3   399  MET399     -0.1245
     86  CA       -19.0930  -56.4500   51.3720 C.3   399  MET399      0.1570
     87  C        -19.6650  -55.3130   50.5450 C.2   399  MET399      0.2261
     88  O        -19.5360  -54.1470   50.9020 O.2   399  MET399     -0.2867
     89  CB       -17.7810  -56.9180   50.7450 C.3   399  MET399      0.0387
     90  CG       -17.0000  -57.8570   51.6160 C.3   399  MET399      0.0595
     91  SD       -15.5030  -58.4180   50.8080 S.3   399  MET399     -0.1393
     92  CE       -14.5920  -56.8580   50.7270 C.3   399  MET399      0.0692
@<TRIPOS>BOND
     1    33    34    1
     2     8     6    1
     3     6     5    1
     4    41    42    1
     5    34    35    1
     6    34    37    1
     7    38    37    1
     8    38    40    1
     9    42    45    1
    10    42    43    1
    11    35    36    2
    12    37    39    1
    13     5     7    1
    14     5     2    1
    15     1     2    1
    16     2     3    1
    17    43    46   am
    18    43    44    2
    19    46    47    1
    20     3     4    2
    21     3     9   am
    22    48    47    1
    23    48    49    2
    24    47    50    1
    25     9    10    1
    26    51    52    1
    27    84    82    1
    28    22    20    1
    29    16    17    1
    30    56    58    1
    31    56    57    1
    32    56    55    1
    33    10    11    1
    34    10    13    1
    35    52    55    1
    36    52    53    1
    37    82    83    1
    38    82    81    1
    39    15    13    1
    40    11    12    2
    41    13    14    1
    42    17    20    1
    43    17    18    1
    44    20    21    1
    45    53    54    2
    46    81    78    1
    47    59    60    1
    48    61    62    2
    49    61    60    1
    50    18    23   am
    51    18    19    2
    52    80    79    2
    53    79    78    1
    54    78    77    1
    55    60    63    1
    56    23    24    1
    57    63    64    1
    58    77    70   am
    59    64    65    1
    60    66    65   ar
    61    24    25    1
    62    24    27    1
    63    25    26    2
    64    27    28    1
    65    65    67   ar
    66    87    88    2
    67    87    86    1
    68    29    28   ar
    69    29    31   ar
    70    92    91    1
    71    89    86    1
    72    89    90    1
    73    28    30   ar
    74    91    90    1
    75    70    71    2
    76    70    69    1
    77    68    69    1
    78    31    32   ar
    79    30    32   ar
    80    86    85    1
    81    69    72    1
    82    72    73    1
    83    73    74    1
    84    74    75    1
    85    75    76    1
