@<TRIPOS>MOLECULE
tmp/4e4xA00.pdb
 198 190 0 0 0
SMALL
GASTEIGER

@<TRIPOS>ATOM
      1  N         12.9680  -20.7280    4.7800 N.3    16  ILE16      -0.1231
      2  CA        13.4570  -20.0410    3.5880 C.3    16  ILE16       0.1692
      3  C         12.4100  -19.8460    2.4880 C.2    16  ILE16       0.2592
      4  O         12.2190  -18.7310    2.0010 O.2    16  ILE16      -0.2718
      5  CB        14.6670  -20.7830    2.9940 C.3    16  ILE16       0.0266
      6  CG1       14.3180  -22.2540    2.7820 C.3    16  ILE16       0.0019
      7  CG2       15.8630  -20.6500    3.9200 C.3    16  ILE16       0.0020
      8  CD1       15.4170  -23.0530    2.1320 C.3    16  ILE16       0.0001
      9  N         11.7300  -20.9230    2.1020 N.am   17  GLY17      -0.1957
     10  CA        10.7450  -20.8370    1.0340 C.3    17  GLY17       0.1869
     11  C          9.3300  -20.5920    1.5280 C.2    17  GLY17       0.2309
     12  O          8.9900  -20.9330    2.6610 O.2    17  GLY17      -0.2863
     13  N          9.5340  -24.6000    2.5310 N.3    24  VAL24      -0.1245
     14  CA        10.8880  -25.1370    2.4560 C.3    24  VAL24       0.1561
     15  C         11.7620  -24.7020    3.6340 C.2    24  VAL24       0.2260
     16  O         11.8790  -23.5120    3.9350 O.2    24  VAL24      -0.2867
     17  CB        11.5660  -24.7060    1.1420 C.3    24  VAL24       0.0252
     18  CG1       12.9760  -25.2630    1.0710 C.3    24  VAL24       0.0019
     19  CG2       10.7450  -25.1880   -0.0360 C.3    24  VAL24       0.0019
     20  N         18.0750  -29.5940    2.6780 N.3    34  ALA34      -0.1231
     21  CA        16.8860  -28.7820    2.5010 C.3    34  ALA34       0.1694
     22  C         15.6900  -29.7070    2.6090 C.2    34  ALA34       0.2592
     23  O         15.7070  -30.8160    2.0740 O.2    34  ALA34      -0.2718
     24  CB        16.9090  -28.1090    1.1450 C.3    34  ALA34       0.0304
     25  N         14.6600  -29.2590    3.3160 N.am   35  VAL35      -0.1966
     26  CA        13.4450  -30.0460    3.4610 C.3    35  VAL35       0.1727
     27  C         12.2440  -29.2750    2.9510 C.2    35  VAL35       0.2616
     28  O         11.9780  -28.1600    3.3970 O.2    35  VAL35      -0.2715
     29  CB        13.1860  -30.4180    4.9270 C.3    35  VAL35       0.0290
     30  CG1       11.8750  -31.1660    5.0380 C.3    35  VAL35       0.0023
     31  CG2       14.3230  -31.2750    5.4550 C.3    35  VAL35       0.0023
     32  N         11.5210  -29.8770    2.0150 N.am   36  LYS36      -0.1977
     33  CA        10.3090  -29.2710    1.4910 C.3    36  LYS36       0.1596
     34  C          9.0900  -30.0160    2.0070 C.2    36  LYS36       0.2287
     35  O          8.7830  -31.1160    1.5480 O.2    36  LYS36      -0.2864
     36  CB        10.3210  -29.2970   -0.0370 C.3    36  LYS36       0.0298
     37  CG         9.1350  -28.5950   -0.6780 C.3    36  LYS36       0.0038
     38  CD         9.5000  -28.0060   -2.0330 C.3    36  LYS36       0.0206
     39  CE         8.7290  -28.6800   -3.1550 C.3    36  LYS36       0.1093
     40  NZ         8.9740  -28.0100   -4.4610 N.3    36  LYS36      -0.1314
     41  N         11.3450  -38.7760   -8.8040 N.3    58  LEU58      -0.1245
     42  CA        12.5740  -38.1420   -8.3430 C.3    58  LEU58       0.1561
     43  C         13.7420  -39.1150   -8.3870 C.2    58  LEU58       0.2260
     44  O         14.7760  -38.8250   -8.9880 O.2    58  LEU58      -0.2867
     45  CB        12.4030  -37.6260   -6.9150 C.3    58  LEU58       0.0270
     46  CG        11.2420  -36.6590   -6.6880 C.3    58  LEU58       0.0019
     47  CD1       11.2830  -36.1470   -5.2630 C.3    58  LEU58       0.0001
     48  CD2       11.3360  -35.5050   -7.6670 C.3    58  LEU58       0.0001
     49  N         16.3050  -39.8050  -10.9960 N.3    61  THR61      -0.1218
     50  CA        17.3180  -38.8170  -11.3530 C.3    61  THR61       0.1862
     51  C         18.6230  -38.9720  -10.5720 C.2    61  THR61       0.2287
     52  O         18.6240  -39.0100   -9.3410 O.2    61  THR61      -0.2866
     53  CB        16.7950  -37.3880  -11.1230 C.3    61  THR61       0.1770
     54  OG1       16.6030  -37.1680   -9.7220 O.3    61  THR61      -0.2211
     55  CG2       15.4760  -37.1900  -11.8330 C.3    61  THR61       0.0375
     56  N         19.3010  -31.3460   -9.0350 N.3    67  LEU67      -0.1245
     57  CA        19.2630  -31.3470   -7.5800 C.3    67  LEU67       0.1561
     58  C         19.1880  -32.7820   -7.0830 C.2    67  LEU67       0.2260
     59  O         18.5050  -33.6210   -7.6710 O.2    67  LEU67      -0.2867
     60  CB        18.0520  -30.5660   -7.0740 C.3    67  LEU67       0.0270
     61  CG        18.0370  -30.3110   -5.5690 C.3    67  LEU67       0.0019
     62  CD1       19.2700  -29.5190   -5.1900 C.3    67  LEU67       0.0001
     63  CD2       16.7840  -29.5540   -5.1830 C.3    67  LEU67       0.0001
     64  N         18.0410  -35.7270   -4.8160 N.3    69  PHE69      -0.1241
     65  CA        17.0160  -36.1960   -3.8970 C.3    69  PHE69       0.1605
     66  C         17.6040  -37.2490   -2.9640 C.2    69  PHE69       0.2264
     67  O         18.0510  -38.3070   -3.4120 O.2    69  PHE69      -0.2867
     68  CB        15.8410  -36.7880   -4.6760 C.3    69  PHE69       0.0534
     69  CG        14.9860  -37.7070   -3.8620 C.ar   69  PHE69      -0.0203
     70  CD1       14.2660  -37.2290   -2.7830 C.ar   69  PHE69      -0.0042
     71  CD2       14.9140  -39.0530   -4.1670 C.ar   69  PHE69      -0.0042
     72  CE1       13.4900  -38.0770   -2.0230 C.ar   69  PHE69      -0.0003
     73  CE2       14.1390  -39.9070   -3.4090 C.ar   69  PHE69      -0.0003
     74  CZ        13.4260  -39.4180   -2.3350 C.ar   69  PHE69      -0.0000
     75  N          9.6930  -33.6880    1.1570 N.3    80  ILE80      -0.1245
     76  CA        10.8210  -34.2480    0.4330 C.3    80  ILE80       0.1561
     77  C         12.0980  -33.5830    0.9130 C.2    80  ILE80       0.2260
     78  O         12.1010  -32.3930    1.2400 O.2    80  ILE80      -0.2867
     79  CB        10.6680  -34.0300   -1.0790 C.3    80  ILE80       0.0252
     80  CG1        9.5050  -34.8770   -1.5970 C.3    80  ILE80       0.0019
     81  CG2       11.9640  -34.3730   -1.7910 C.3    80  ILE80       0.0019
     82  CD1        9.1840  -34.6600   -3.0520 C.3    80  ILE80       0.0001
     83  N         16.1390  -32.8230    0.0580 N.3    82  THR82      -0.1203
     84  CA        17.2160  -32.7880   -0.9260 C.3    82  THR82       0.1994
     85  C         18.4730  -32.2240   -0.2810 C.2    82  THR82       0.2618
     86  O         18.4220  -31.6640    0.8160 O.2    82  THR82      -0.2717
     87  CB        16.8560  -31.8940   -2.1250 C.3    82  THR82       0.1784
     88  OG1       16.8640  -30.5190   -1.7210 O.3    82  THR82      -0.2211
     89  CG2       15.4760  -32.2440   -2.6460 C.3    82  THR82       0.0376
     90  N         19.6000  -32.3680   -0.9660 N.am   83  GLN83      -0.1965
     91  CA        20.8410  -31.7610   -0.5080 C.3    83  GLN83       0.1733
     92  C         20.6170  -30.2800   -0.2490 C.2    83  GLN83       0.2616
     93  O         19.6050  -29.7210   -0.6640 O.2    83  GLN83      -0.2715
     94  CB        21.9320  -31.9280   -1.5630 C.3    83  GLN83       0.0408
     95  CG        21.6270  -31.2450   -2.8830 C.3    83  GLN83       0.0908
     96  CD        22.8150  -31.2500   -3.8220 C.2    83  GLN83       0.2608
     97  OE1       22.7240  -31.7230   -4.9530 O.2    83  GLN83      -0.2717
     98  NE2       23.9400  -30.7220   -3.3550 N.am   83  GLN83      -0.0878
     99  N         21.5570  -29.6450    0.4400 N.am   84  TRP84      -0.1960
    100  CA        21.5030  -28.2030    0.6180 C.3    84  TRP84       0.1771
    101  C         22.5370  -27.5290   -0.2670 C.2    84  TRP84       0.2619
    102  O         23.6710  -27.9950   -0.3660 O.2    84  TRP84      -0.2715
    103  CB        21.7620  -27.8280    2.0750 C.3    84  TRP84       0.0590
    104  CG        21.8730  -26.3530    2.2730 C.ar   84  TRP84       0.0006
    105  CD1       23.0220  -25.6240    2.3780 C.ar   84  TRP84       0.0946
    106  CD2       20.7940  -25.4160    2.3580 C.ar   84  TRP84       0.0152
    107  NE1       22.7250  -24.2890    2.5200 N.ar   84  TRP84      -0.2442
    108  CE2       21.3640  -24.1350    2.5110 C.ar   84  TRP84       0.0810
    109  CE3       19.4020  -25.5350    2.3170 C.ar   84  TRP84       0.0012
    110  CZ2       20.5910  -22.9820    2.6230 C.ar   84  TRP84       0.0191
    111  CZ3       18.6360  -24.3890    2.4280 C.ar   84  TRP84       0.0001
    112  CH2       19.2320  -23.1290    2.5790 C.ar   84  TRP84       0.0015
    113  N         22.1390  -26.4310   -0.9060 N.am   85  CYS85      -0.1968
    114  CA        23.0230  -25.6930   -1.8010 C.3    85  CYS85       0.1712
    115  C         23.4920  -24.4080   -1.1440 C.2    85  CYS85       0.2296
    116  O         22.7320  -23.4490   -1.0330 O.2    85  CYS85      -0.2864
    117  CB        22.2970  -25.3450   -3.1000 C.3    85  CYS85       0.0983
    118  SG        21.5690  -26.7520   -3.9510 S.3    85  CYS85      -0.0798
    119  N         24.8600  -20.9920   -1.1380 N.3    87  GLY87      -0.1210
    120  CA        24.8940  -20.0120   -2.2090 C.3    87  GLY87       0.1956
    121  C         23.5180  -19.8000   -2.8110 C.2    87  GLY87       0.2613
    122  O         22.6190  -20.6120   -2.6020 O.2    87  GLY87      -0.2717
    123  N         23.3490  -18.7140   -3.5620 N.am   88  SER88      -0.1938
    124  CA        22.0250  -18.3150   -4.0330 C.3    88  SER88       0.2055
    125  C         21.6840  -18.8200   -5.4300 C.2    88  SER88       0.2643
    126  O         22.5520  -19.2940   -6.1630 O.2    88  SER88      -0.2714
    127  CB        21.8920  -16.7910   -4.0010 C.3    88  SER88       0.2130
    128  OG        21.7790  -16.3210   -2.6700 O.3    88  SER88      -0.2179
    129  N         20.4070  -18.7130   -5.7870 N.am   89  SER89      -0.1949
    130  CA        19.9200  -19.1730   -7.0820 C.3    89  SER89       0.1924
    131  C         20.2050  -18.1510   -8.1710 C.2    89  SER89       0.2314
    132  O         20.3900  -16.9670   -7.8910 O.2    89  SER89      -0.2863
    133  CB        18.4180  -19.4260   -7.0150 C.3    89  SER89       0.2116
    134  OG        17.7330  -18.2600   -6.5970 O.3    89  SER89      -0.2180
    135  N         18.2450  -14.9580   -8.0580 N.3    92  HIS92      -0.1241
    136  CA        18.6950  -14.0610   -7.0120 C.3    92  HIS92       0.1621
    137  C         19.9480  -13.3340   -7.4860 C.2    92  HIS92       0.2264
    138  O         20.0450  -12.1120   -7.3770 O.2    92  HIS92      -0.2867
    139  CB        18.9960  -14.8590   -5.7440 C.3    92  HIS92       0.0745
    140  CG        19.3390  -14.0110   -4.5600 C.ar   92  HIS92       0.0817
    141  ND1       20.6370  -13.6790   -4.2340 N.ar   92  HIS92      -0.2268
    142  CD2       18.5550  -13.4380   -3.6170 C.ar   92  HIS92       0.1154
    143  CE1       20.6380  -12.9390   -3.1400 C.ar   92  HIS92       0.1986
    144  NE2       19.3870  -12.7780   -2.7460 N.ar   92  HIS92      -0.2212
    145  N         14.7890  -18.9090  -11.1260 N.3   133  ASN133     -0.1240
    146  CA        14.4530  -19.0970   -9.7200 C.3   133  ASN133      0.1653
    147  C         14.7720  -20.5280   -9.3020 C.2   133  ASN133      0.2266
    148  O         15.2050  -20.7750   -8.1820 O.2   133  ASN133     -0.2867
    149  CB        12.9610  -18.8320   -9.4800 C.3   133  ASN133      0.1155
    150  CG        12.4000  -17.7220  -10.3660 C.2   133  ASN133      0.2627
    151  OD1       11.6490  -16.8590   -9.8990 O.2   133  ASN133     -0.2716
    152  ND2       12.7490  -17.7490  -11.6510 N.am  133  ASN133     -0.0877
    153  N         19.9600  -23.3480   -9.1390 N.3   136  PHE136     -0.1241
    154  CA        20.8040  -23.0280   -7.9950 C.3   136  PHE136      0.1605
    155  C         22.2860  -23.1000   -8.3550 C.2   136  PHE136      0.2264
    156  O         22.7710  -24.1340   -8.8230 O.2   136  PHE136     -0.2867
    157  CB        20.5170  -23.9960   -6.8460 C.3   136  PHE136      0.0534
    158  CG        19.0640  -24.0890   -6.4750 C.ar  136  PHE136     -0.0203
    159  CD1       18.4010  -25.3050   -6.5160 C.ar  136  PHE136     -0.0042
    160  CD2       18.3620  -22.9640   -6.0780 C.ar  136  PHE136     -0.0042
    161  CE1       17.0660  -25.3960   -6.1660 C.ar  136  PHE136     -0.0003
    162  CE2       17.0260  -23.0490   -5.7260 C.ar  136  PHE136     -0.0003
    163  CZ        16.3790  -24.2650   -5.7700 C.ar  136  PHE136     -0.0000
    164  N         16.3030  -27.5660   -9.8470 N.3   146  GLY146     -0.1210
    165  CA        15.3690  -28.1340   -8.8940 C.3   146  GLY146      0.1956
    166  C         13.9170  -27.8040   -9.1870 C.2   146  GLY146      0.2612
    167  O         13.6230  -27.0190  -10.0880 O.2   146  GLY146     -0.2717
    168  N         13.0100  -28.4160   -8.4270 N.am  147  ASP147     -0.1959
    169  CA        11.5940  -28.0630   -8.4570 C.3   147  ASP147      0.1840
    170  C         10.8920  -28.5890   -9.7060 C.2   147  ASP147      0.2622
    171  O          9.9350  -27.9880  -10.1910 O.2   147  ASP147     -0.2715
    172  CB        11.4330  -26.5410   -8.3740 C.3   147  ASP147      0.1450
    173  CG        10.0180  -26.1200   -8.0310 C.2   147  ASP147      0.3671
    174  OD1        9.2170  -26.9930   -7.6310 O.co2 147  ASP147     -0.2456
    175  OD2        9.7060  -24.9170   -8.1580 O.co2 147  ASP147     -0.2456
    176  N         11.3640  -29.7170  -10.2210 N.am  148  PHE148     -0.1960
    177  CA        10.8220  -30.2820  -11.4510 C.3   148  PHE148      0.1771
    178  C          9.8750  -31.4460  -11.1830 C.2   148  PHE148      0.2620
    179  O          9.1960  -31.9330  -12.0930 O.2   148  PHE148     -0.2715
    180  CB        11.9610  -30.7640  -12.3490 C.3   148  PHE148      0.0574
    181  CG        12.8760  -31.7480  -11.6810 C.ar  148  PHE148     -0.0200
    182  CD1       14.0560  -31.3230  -11.0950 C.ar  148  PHE148     -0.0042
    183  CD2       12.5540  -33.0950  -11.6310 C.ar  148  PHE148     -0.0042
    184  CE1       14.8980  -32.2210  -10.4720 C.ar  148  PHE148     -0.0003
    185  CE2       13.3950  -33.9970  -11.0070 C.ar  148  PHE148     -0.0003
    186  CZ        14.5670  -33.5590  -10.4280 C.ar  148  PHE148     -0.0000
    187  N          9.8340  -31.9090   -9.9440 N.am  149  GLY149     -0.1940
    188  CA         9.0780  -33.1130   -9.6550 C.3   149  GLY149      0.2014
    189  C          7.9210  -32.9060   -8.6930 C.2   149  GLY149      0.2638
    190  O          8.1010  -32.2480   -7.6740 O.2   149  GLY149     -0.2714
    191  N          6.7670  -33.4780   -9.0290 N.am  150  LEU150     -0.1977
    192  CA         5.5650  -33.5290   -8.1790 C.3   150  LEU150      0.1596
    193  C          4.3770  -33.3380   -9.0870 C.2   150  LEU150      0.2287
    194  O          3.3550  -33.9910   -8.9170 O.2   150  LEU150     -0.2864
    195  CB         5.5160  -32.4210   -7.1260 C.3   150  LEU150      0.0297
    196  CG         6.3570  -32.4930   -5.8510 C.3   150  LEU150      0.0022
    197  CD1        6.0310  -31.2820   -5.0030 C.3   150  LEU150      0.0001
    198  CD2        6.1060  -33.7920   -5.0920 C.3   150  LEU150      0.0001
@<TRIPOS>BOND
     1   180   181    1
     2   180   177    1
     3   179   178    2
     4    55    53    1
     5   181   183   ar
     6   181   182   ar
     7   152   150   am
     8   183   185   ar
     9   177   178    1
    10   177   176    1
    11    50    53    1
    12    50    49    1
    13    50    51    1
    14   178   187   am
    15   145   146    1
    16    53    54    1
    17   182   184   ar
    18   185   186   ar
    19    51    52    2
    20   184   186   ar
    21   150   151    2
    22   150   149    1
    23   176   170   am
    24   171   170    2
    25   167   166    2
    26   187   188    1
    27   164   165    1
    28   146   149    1
    29   146   147    1
    30   170   169    1
    31   188   189    1
    32   147   148    2
    33   166   165    1
    34   166   168   am
    35   153   154    1
    36   193   194    2
    37   193   192    1
    38    56    57    1
    39   191   189   am
    40   191   192    1
    41    44    43    2
    42   156   155    2
    43    41    42    1
    44   189   190    2
    45   169   168    1
    46   169   172    1
    47    43    42    1
    48   172   173    1
    49   155   154    1
    50    42    45    1
    51   192   195    1
    52   131   132    2
    53   131   130    1
    54   175   173   ar
    55   135   136    1
    56   173   174   ar
    57   154   157    1
    58    59    58    2
    59    48    46    1
    60    57    58    1
    61    57    60    1
    62   137   138    2
    63   137   136    1
    64   195   196    1
    65   130   133    1
    66   130   129    1
    67    60    61    1
    68   133   134    1
    69   136   139    1
    70    45    46    1
    71   157   158    1
    72    46    47    1
    73   159   158   ar
    74   159   161   ar
    75   158   160   ar
    76   161   163   ar
    77   126   125    2
    78   160   162   ar
    79   196   198    1
    80   196   197    1
    81   129   125   am
    82   163   162   ar
    83   139   140    1
    84    61    62    1
    85    61    63    1
    86   125   124    1
    87    97    96    2
    88    64    65    1
    89    68    65    1
    90    68    69    1
    91   140   141   ar
    92   140   142   ar
    93    40    39    1
    94   141   143   ar
    95    71    69   ar
    96    71    73   ar
    97   124   127    1
    98   124   123    1
    99   127   128    1
   100   118   117    1
   101    65    66    1
   102    69    70   ar
   103    96    98   am
   104    96    95    1
   105   142   144   ar
   106   123   121   am
   107    67    66    2
   108    73    74   ar
   109    39    38    1
   110   143   144   ar
   111   117   114    1
   112    82    80    1
   113    95    94    1
   114   121   122    2
   115   121   120    1
   116    70    72   ar
   117    89    87    1
   118    74    72   ar
   119   120   119    1
   120    87    88    1
   121    87    84    1
   122    38    37    1
   123   114   115    1
   124   114   113    1
   125    81    79    1
   126    80    79    1
   127    94    91    1
   128   115   116    2
   129    79    76    1
   130    90    91    1
   131    90    85   am
   132    84    85    1
   133    84    83    1
   134   113   101   am
   135    37    36    1
   136    93    92    2
   137    91    92    1
   138   102   101    2
   139    85    86    2
   140   101   100    1
   141    92    99   am
   142    36    33    1
   143    19    17    1
   144    76    77    1
   145    76    75    1
   146    99   100    1
   147   100   103    1
   148    77    78    2
   149    10    11    1
   150    10     9    1
   151    18    17    1
   152    17    14    1
   153    24    21    1
   154    33    34    1
   155    33    32    1
   156    11    12    2
   157    35    34    2
   158     4     3    2
   159    32    27   am
   160    23    22    2
   161   103   104    1
   162     9     3   am
   163     8     6    1
   164   104   106   ar
   165   104   105   ar
   166   109   106   ar
   167   109   111   ar
   168   106   108   ar
   169   105   107   ar
   170   111   112   ar
   171    14    13    1
   172    14    15    1
   173     3     2    1
   174    21    22    1
   175    21    20    1
   176   108   107   ar
   177   108   110   ar
   178   112   110   ar
   179    22    25   am
   180     6     5    1
   181    27    28    2
   182    27    26    1
   183     5     2    1
   184     5     7    1
   185    25    26    1
   186    26    29    1
   187     2     1    1
   188    15    16    2
   189    29    30    1
   190    29    31    1
