@<TRIPOS>MOLECULE
tmp/4e51A00.pdb
 156 151 0 0 0
SMALL
GASTEIGER

@<TRIPOS>ATOM
      1  N         13.5880    2.8740   51.9580 N.3    82  GLU82      -0.1231
      2  CA        12.2780    2.5580   52.4940 C.3    82  GLU82       0.1699
      3  C         11.5960    3.9060   52.7710 C.2    82  GLU82       0.2592
      4  O         12.2960    4.9110   52.8510 O.2    82  GLU82      -0.2718
      5  CB        12.5390    1.7860   53.7830 C.3    82  GLU82       0.0402
      6  CG        11.3410    1.2250   54.4490 C.3    82  GLU82       0.1161
      7  CD        10.8810    2.0240   55.6330 C.2    82  GLU82       0.3649
      8  OE1       11.4890    3.0740   56.0000 O.co2  82  GLU82      -0.2457
      9  OE2        9.8560    1.5590   56.1800 O.co2  82  GLU82      -0.2457
     10  N         10.2730    3.9520   52.9290 N.am   83  ASN83      -0.1960
     11  CA         9.5900    5.2430   53.1810 C.3    83  ASN83       0.1819
     12  C          8.7580    5.3650   54.4740 C.2    83  ASN83       0.2621
     13  O          8.3890    6.4670   54.8580 O.2    83  ASN83      -0.2715
     14  CB         8.7410    5.6440   51.9750 C.3    83  ASN83       0.1195
     15  CG         8.7710    7.1490   51.6870 C.2    83  ASN83       0.2630
     16  OD1        8.7060    7.5600   50.5110 O.2    83  ASN83      -0.2716
     17  ND2        8.8510    7.9780   52.7400 N.am   83  ASN83      -0.0877
     18  N          8.4970    4.2650   55.1750 N.am   84  THR84      -0.1951
     19  CA         7.6800    4.3490   56.3940 C.3    84  THR84       0.1897
     20  C          8.2350    5.2610   57.4640 C.2    84  THR84       0.2313
     21  O          7.5160    6.0720   58.0350 O.2    84  THR84      -0.2863
     22  CB         7.4390    2.9740   57.0060 C.3    84  THR84       0.1794
     23  OG1        6.8950    2.1090   55.9980 O.3    84  THR84      -0.2208
     24  CG2        6.4880    3.0620   58.1580 C.3    84  THR84       0.0378
     25  N          2.4940    7.0140   49.0680 N.3   106  TYR106     -0.1241
     26  CA         3.7170    7.5450   48.4650 C.3   106  TYR106      0.1605
     27  C          4.1560    6.6470   47.3120 C.2   106  TYR106      0.2264
     28  O          3.8160    5.4540   47.2700 O.2   106  TYR106     -0.2867
     29  CB         4.8570    7.6810   49.4740 C.3   106  TYR106      0.0534
     30  CG         5.1220    6.4020   50.2250 C.ar  106  TYR106     -0.0201
     31  CD1        5.8750    5.3790   49.6660 C.ar  106  TYR106     -0.0009
     32  CD2        4.5910    6.2070   51.4890 C.ar  106  TYR106     -0.0009
     33  CE1        6.0900    4.2080   50.3520 C.ar  106  TYR106      0.0417
     34  CE2        4.8000    5.0360   52.1730 C.ar  106  TYR106      0.0417
     35  CZ         5.5510    4.0380   51.6110 C.ar  106  TYR106      0.1957
     36  OH         5.7370    2.8730   52.3330 O.3   106  TYR106     -0.2866
     37  N         19.1250    0.2500   47.7560 N.3   112  ARG112     -0.1245
     38  CA        19.6300   -0.8890   48.5540 C.3   112  ARG112      0.1563
     39  C         20.7050   -1.7040   47.8460 C.2   112  ARG112      0.2260
     40  O         20.5040   -2.1450   46.7130 O.2   112  ARG112     -0.2867
     41  CB        18.5010   -1.8590   48.9270 C.3   112  ARG112      0.0307
     42  CG        17.7420   -1.4630   50.1730 C.3   112  ARG112      0.0489
     43  CD        16.7290   -2.4950   50.6170 C.3   112  ARG112      0.2205
     44  NE        15.4320   -1.8770   50.8750 N.pl3 112  ARG112     -0.0865
     45  CZ        14.4030   -2.5220   51.4170 C.cat 112  ARG112      0.5346
     46  NH1       14.5590   -3.7950   51.7790 N.pl3 112  ARG112      0.1354
     47  NH2       13.2240   -1.9070   51.6120 N.pl3 112  ARG112      0.1354
     48  N          8.9020    1.8710   44.8590 N.3   123  GLN123     -0.1245
     49  CA         7.8240    1.4370   45.7030 C.3   123  GLN123      0.1566
     50  C          6.6630    2.3360   45.5500 C.2   123  GLN123      0.2260
     51  O          6.8140    3.5590   45.3420 O.2   123  GLN123     -0.2867
     52  CB         8.2150    1.5260   47.1690 C.3   123  GLN123      0.0367
     53  CG         8.9100    0.3060   47.7370 C.3   123  GLN123      0.0905
     54  CD         9.2680    0.5270   49.1790 C.2   123  GLN123      0.2608
     55  OE1        9.2320    1.6720   49.6340 O.2   123  GLN123     -0.2717
     56  NE2        9.5680   -0.5560   49.9230 N.am  123  GLN123     -0.0878
     57  N          0.5530    4.4200   54.2870 N.3   127  GLU127     -0.1245
     58  CA         0.5950    4.3990   55.7690 C.3   127  GLU127      0.1567
     59  C         -0.7130    4.9090   56.3280 C.2   127  GLU127      0.2260
     60  O         -1.1700    5.9700   55.9370 O.2   127  GLU127     -0.2867
     61  CB         1.7370    5.2450   56.3110 C.3   127  GLU127      0.0388
     62  CG         3.1150    5.0060   55.6860 C.3   127  GLU127      0.1160
     63  CD         3.6220    3.5590   55.7500 C.2   127  GLU127      0.3649
     64  OE1        3.0860    2.7490   56.5560 O.co2 127  GLU127     -0.2457
     65  OE2        4.5710    3.2340   54.9690 O.co2 127  GLU127     -0.2457
     66  N          9.5120   -9.9330   58.7260 N.3   254  ARG254     -0.1245
     67  CA         9.8960   -8.9460   57.7630 C.3   254  ARG254      0.1563
     68  C         11.2770   -8.4830   58.1490 C.2   254  ARG254      0.2260
     69  O         11.6660   -8.6200   59.3200 O.2   254  ARG254     -0.2867
     70  CB         8.8980   -7.8050   57.8600 C.3   254  ARG254      0.0307
     71  CG         7.4390   -8.2470   57.6630 C.3   254  ARG254      0.0489
     72  CD         7.0530   -8.3390   56.1850 C.3   254  ARG254      0.2205
     73  NE         7.4930   -7.0870   55.5790 N.pl3 254  ARG254     -0.0865
     74  CZ         8.3540   -6.9680   54.5760 C.cat 254  ARG254      0.5346
     75  NH1        8.8200   -8.0580   53.9380 N.pl3 254  ARG254      0.1354
     76  NH2        8.7020   -5.7310   54.2010 N.pl3 254  ARG254      0.1354
     77  N         12.5260   -5.6140   58.9030 N.3   256  LEU256     -0.1245
     78  CA        12.5390   -4.2970   59.5450 C.3   256  LEU256      0.1561
     79  C         11.9230   -4.4910   60.9350 C.2   256  LEU256      0.2260
     80  O         10.7960   -4.9660   61.0340 O.2   256  LEU256     -0.2867
     81  CB        11.7690   -3.2430   58.7240 C.3   256  LEU256      0.0270
     82  CG        11.9390   -3.1850   57.1880 C.3   256  LEU256      0.0019
     83  CD1       11.3750   -4.4090   56.4510 C.3   256  LEU256      0.0001
     84  CD2       11.3310   -1.9000   56.6100 C.3   256  LEU256      0.0001
     85  N         10.5870   -2.5710   63.1600 N.3   258  TYR258     -0.1227
     86  CA         9.5650   -1.6620   63.6880 C.3   258  TYR258      0.1736
     87  C          8.1540   -2.3070   63.8250 C.2   258  TYR258      0.2595
     88  O          7.3020   -1.8090   64.5360 O.2   258  TYR258     -0.2718
     89  CB         9.5660   -0.2940   62.9550 C.3   258  TYR258      0.0548
     90  CG         9.3720   -0.2720   61.4330 C.ar  258  TYR258     -0.0200
     91  CD1        8.3400   -0.9870   60.8160 C.ar  258  TYR258     -0.0009
     92  CD2       10.1920    0.5310   60.6050 C.ar  258  TYR258     -0.0009
     93  CE1        8.1480   -0.9430   59.4500 C.ar  258  TYR258      0.0417
     94  CE2       10.0020    0.5780   59.2290 C.ar  258  TYR258      0.0417
     95  CZ         8.9720   -0.1570   58.6650 C.ar  258  TYR258      0.1957
     96  OH         8.7390   -0.1270   57.3130 O.3   258  TYR258     -0.2866
     97  N          7.9660   -3.4540   63.1940 N.am  259  TYR259     -0.1976
     98  CA         6.6980   -4.1810   63.2090 C.3   259  TYR259      0.1639
     99  C          6.2740   -4.7370   64.5610 C.2   259  TYR259      0.2290
    100  O          7.0810   -5.2630   65.3110 O.2   259  TYR259     -0.2864
    101  CB         6.7360   -5.3630   62.2110 C.3   259  TYR259      0.0560
    102  CG         6.7390   -4.9170   60.7720 C.ar  259  TYR259     -0.0198
    103  CD1        5.6890   -4.1540   60.2600 C.ar  259  TYR259     -0.0009
    104  CD2        7.7940   -5.2290   59.9200 C.ar  259  TYR259     -0.0009
    105  CE1        5.6930   -3.7180   58.9470 C.ar  259  TYR259      0.0417
    106  CE2        7.7950   -4.7970   58.6030 C.ar  259  TYR259      0.0417
    107  CZ         6.7460   -4.0440   58.1270 C.ar  259  TYR259      0.1957
    108  OH         6.7550   -3.6240   56.8210 O.3   259  TYR259     -0.2866
    109  N          4.1580   -6.1880   50.8860 N.3   275  ALA275     -0.1231
    110  CA         4.4240   -6.5720   52.2810 C.3   275  ALA275      0.1694
    111  C          4.1050   -5.4290   53.1880 C.2   275  ALA275      0.2593
    112  O          4.2250   -4.2740   52.7930 O.2   275  ALA275     -0.2718
    113  CB         5.8610   -6.9460   52.4610 C.3   275  ALA275      0.0304
    114  N          3.6650   -5.7390   54.3980 N.am  276  GLY276     -0.1942
    115  CA         3.3510   -4.6850   55.3540 C.3   276  GLY276      0.2014
    116  C          2.9990   -5.1690   56.7310 C.2   276  GLY276      0.2639
    117  O          3.2270   -6.3090   57.0870 O.2   276  GLY276     -0.2714
    118  N          2.4200   -4.2890   57.5190 N.am  277  GLY277     -0.1954
    119  CA         2.0960   -4.6660   58.8560 C.3   277  GLY277      0.1869
    120  C          1.9810   -3.4500   59.7210 C.2   277  GLY277      0.2309
    121  O          2.1220   -2.3030   59.2570 O.2   277  GLY277     -0.2863
    122  N          2.9300   -1.2390   63.2160 N.3   279  TYR279     -0.1241
    123  CA         4.1960   -0.7480   63.7350 C.3   279  TYR279      0.1605
    124  C          3.9610    0.3600   64.7790 C.2   279  TYR279      0.2264
    125  O          4.5870    1.4080   64.7340 O.2   279  TYR279     -0.2867
    126  CB         5.0960   -0.3160   62.5680 C.3   279  TYR279      0.0534
    127  CG         4.5240    0.7370   61.6320 C.ar  279  TYR279     -0.0201
    128  CD1        3.8570    0.3800   60.4650 C.ar  279  TYR279     -0.0009
    129  CD2        4.6940    2.1080   61.8980 C.ar  279  TYR279     -0.0009
    130  CE1        3.3580    1.3450   59.5910 C.ar  279  TYR279      0.0417
    131  CE2        4.2080    3.0710   61.0430 C.ar  279  TYR279      0.0417
    132  CZ         3.5300    2.6880   59.8870 C.ar  279  TYR279      0.1957
    133  OH         3.0200    3.6590   59.0620 O.3   279  TYR279     -0.2866
    134  N          0.7180   -0.0970   57.6290 N.3   295  GLY295     -0.1210
    135  CA         0.9200    0.2580   56.2200 C.3   295  GLY295      0.1956
    136  C          1.4970   -0.8280   55.3440 C.2   295  GLY295      0.2612
    137  O          1.7230   -1.9370   55.8210 O.2   295  GLY295     -0.2717
    138  N          1.7010   -0.5150   54.0630 N.am  296  TRP296     -0.1962
    139  CA         2.3970   -1.4310   53.1750 C.3   296  TRP296      0.1771
    140  C          3.1060   -0.7750   52.0580 C.2   296  TRP296      0.2619
    141  O          2.8880    0.4030   51.8130 O.2   296  TRP296     -0.2715
    142  CB         1.4620   -2.4920   52.6130 C.3   296  TRP296      0.0590
    143  CG         0.2610   -2.0250   51.8000 C.ar  296  TRP296      0.0006
    144  CD1       -1.0750   -2.1650   52.1540 C.ar  296  TRP296      0.0946
    145  CD2        0.2320   -1.3960   50.4800 C.ar  296  TRP296      0.0152
    146  NE1       -1.8840   -1.6640   51.1950 N.ar  296  TRP296     -0.2442
    147  CE2       -1.1670   -1.1910   50.1610 C.ar  296  TRP296      0.0810
    148  CE3        1.1780   -0.9700   49.5780 C.ar  296  TRP296      0.0012
    149  CZ2       -1.5730   -0.5760   48.9710 C.ar  296  TRP296      0.0191
    150  CZ3        0.7520   -0.3720   48.3530 C.ar  296  TRP296      0.0001
    151  CH2       -0.5850   -0.1890   48.0710 C.ar  296  TRP296      0.0015
    152  N          3.9680   -1.5420   51.3820 N.am  297  ALA297     -0.1977
    153  CA         4.7070   -1.0980   50.1810 C.3   297  ALA297      0.1597
    154  C          4.8030   -2.2690   49.2180 C.2   297  ALA297      0.2287
    155  O          4.7130   -3.4210   49.6300 O.2   297  ALA297     -0.2864
    156  CB         6.1050   -0.6070   50.5250 C.3   297  ALA297      0.0319
@<TRIPOS>BOND
     1    48    49    1
     2    51    50    2
     3    50    49    1
     4    49    52    1
     5    40    39    2
     6    52    53    1
     7    28    27    2
     8    27    26    1
     9    53    54    1
    10    37    38    1
    11    39    38    1
    12   151   150   ar
    13   151   149   ar
    14   150   148   ar
    15    26    25    1
    16    26    29    1
    17    38    41    1
    18    41    42    1
    19   149   147   ar
    20    54    55    2
    21    54    56   am
    22   154   155    2
    23   154   153    1
    24    29    30    1
    25   148   145   ar
    26    31    30   ar
    27    31    33   ar
    28   147   145   ar
    29   147   146   ar
    30    42    43    1
    31   153   156    1
    32   153   152    1
    33    30    32   ar
    34    33    35   ar
    35   145   143   ar
    36    16    15    2
    37    43    44    1
    38    44    45    2
    39   109   110    1
    40   146   144   ar
    41   152   140   am
    42    45    47    1
    43    45    46    1
    44    32    34   ar
    45    35    34   ar
    46    35    36    1
    47    15    14    1
    48    15    17   am
    49   143   144   ar
    50   143   142    1
    51   141   140    2
    52     1     2    1
    53    14    11    1
    54   140   139    1
    55   110   113    1
    56   110   111    1
    57     2     3    1
    58     2     5    1
    59   142   139    1
    60     3     4    2
    61     3    10   am
    62   112   111    2
    63    10    11    1
    64   139   138    1
    65    11    12    1
    66   111   114   am
    67     5     6    1
    68    75    74    1
    69   138   136   am
    70    76    74    1
    71    57    58    1
    72   114   115    1
    73     6     7    1
    74    12    13    2
    75    12    18   am
    76    74    73    2
    77    65    63   ar
    78    18    19    1
    79   136   137    2
    80   136   135    1
    81   115   116    1
    82    73    72    1
    83     7     8   ar
    84     7     9   ar
    85    62    63    1
    86    62    61    1
    87    63    64   ar
    88    58    61    1
    89    58    59    1
    90    60    59    2
    91    23    22    1
    92    72    71    1
    93   135   134    1
    94    19    22    1
    95    19    20    1
    96    83    82    1
    97    84    82    1
    98   116   117    2
    99   116   118   am
   100   108   107    1
   101    22    24    1
   102    82    81    1
   103    96    95    1
   104    20    21    2
   105   118   119    1
   106    71    70    1
   107    67    70    1
   108    67    68    1
   109    67    66    1
   110   107   106   ar
   111   107   105   ar
   112    68    69    2
   113   106   104   ar
   114    95    94   ar
   115    95    93   ar
   116    81    78    1
   117   119   120    1
   118    77    78    1
   119   105   103   ar
   120   133   132    1
   121    94    92   ar
   122   121   120    2
   123    93    91   ar
   124    78    79    1
   125   130   132   ar
   126   130   128   ar
   127   132   131   ar
   128   104   102   ar
   129   103   102   ar
   130   128   127   ar
   131    92    90   ar
   132   102   101    1
   133    91    90   ar
   134    79    80    2
   135   131   129   ar
   136    90    89    1
   137   127   129   ar
   138   127   126    1
   139   101    98    1
   140   126   123    1
   141    89    86    1
   142    85    86    1
   143    97    98    1
   144    97    87   am
   145    98    99    1
   146   122   123    1
   147    86    87    1
   148   123   124    1
   149    87    88    2
   150    99   100    2
   151   125   124    2
