@<TRIPOS>MOLECULE
tmp/4e5dA00.pdb
 127 121 0 0 0
SMALL
GASTEIGER

@<TRIPOS>ATOM
      1  N          7.5840   43.9720    0.0720 N.3   211  ARG211     -0.1245
      2  CA         8.8000   44.0600    0.8370 C.3   211  ARG211      0.1563
      3  C          9.5180   45.3690    0.5080 C.2   211  ARG211      0.2260
      4  O         10.0540   46.0380    1.4100 O.2   211  ARG211     -0.2867
      5  CB         9.6810   42.8200    0.6060 C.3   211  ARG211      0.0307
      6  CG        11.0730   42.9520    1.2160 C.3   211  ARG211      0.0489
      7  CD        11.0530   43.1030    2.7450 C.3   211  ARG211      0.2205
      8  NE        12.3490   43.5810    3.2520 N.pl3 211  ARG211     -0.0865
      9  CZ        12.5260   44.1390    4.4450 C.cat 211  ARG211      0.5346
     10  NH1       11.4980   44.2530    5.2890 N.pl3 211  ARG211      0.1354
     11  NH2       13.7260   44.5810    4.8010 N.pl3 211  ARG211      0.1354
     12  N         18.7570   32.4800    2.1980 N.3   238  HIS238     -0.1226
     13  CA        17.6870   32.3790    3.1740 C.3   238  HIS238      0.1752
     14  C         16.8970   33.6910    3.0970 C.2   238  HIS238      0.2597
     15  O         17.4410   34.7320    2.7310 O.2   238  HIS238     -0.2718
     16  CB        18.2950   32.0980    4.5660 C.3   238  HIS238      0.0759
     17  CG        17.2970   32.0430    5.6770 C.ar  238  HIS238      0.0818
     18  ND1       16.8060   33.1780    6.2920 N.ar  238  HIS238     -0.2268
     19  CD2       16.7120   30.9940    6.3080 C.ar  238  HIS238      0.1154
     20  CE1       15.9580   32.8360    7.2490 C.ar  238  HIS238      0.1986
     21  NE2       15.8840   31.5150    7.2810 N.ar  238  HIS238     -0.2212
     22  N         15.6120   33.6340    3.4170 N.am  239  GLY239     -0.1942
     23  CA        14.7280   34.7700    3.2550 C.3   239  GLY239      0.2014
     24  C         15.1870   36.0210    3.9850 C.2   239  GLY239      0.2638
     25  O         15.0450   37.1220    3.4800 O.2   239  GLY239     -0.2714
     26  N         15.6960   35.8550    5.2040 N.am  240  PHE240     -0.1973
     27  CA        16.2780   36.9610    5.9520 C.3   240  PHE240      0.1639
     28  C         17.3640   37.6920    5.1360 C.2   240  PHE240      0.2290
     29  O         17.3630   38.9140    5.0500 O.2   240  PHE240     -0.2864
     30  CB        16.8210   36.4630    7.3170 C.3   240  PHE240      0.0560
     31  CG        17.2370   37.5680    8.2600 C.ar  240  PHE240     -0.0200
     32  CD1       16.8520   38.8870    8.0440 C.ar  240  PHE240     -0.0042
     33  CD2       18.0310   37.2890    9.3740 C.ar  240  PHE240     -0.0042
     34  CE1       17.2340   39.9040    8.9190 C.ar  240  PHE240     -0.0003
     35  CE2       18.4270   38.3160   10.2580 C.ar  240  PHE240     -0.0003
     36  CZ        18.0310   39.6170   10.0260 C.ar  240  PHE240     -0.0000
     37  N         16.1600   41.2320    2.8610 N.3   244  THR244     -0.1218
     38  CA        16.7880   42.4420    3.3500 C.3   244  THR244      0.1862
     39  C         17.6710   43.0300    2.2420 C.2   244  THR244      0.2287
     40  O         17.6510   44.2330    1.9940 O.2   244  THR244     -0.2866
     41  CB        17.6310   42.1850    4.6530 C.3   244  THR244      0.1770
     42  OG1       18.6060   41.1750    4.4030 O.3   244  THR244     -0.2211
     43  CG2       16.7230   41.7390    5.8550 C.3   244  THR244      0.0375
     44  N         19.9210   44.5500   13.8150 N.3   306  ALA306     -0.1231
     45  CA        18.6760   43.9020   13.4280 C.3   306  ALA306      0.1694
     46  C         18.7130   42.3870   13.6480 C.2   306  ALA306      0.2593
     47  O         19.6860   41.7220   13.2970 O.2   306  ALA306     -0.2718
     48  CB        18.3890   44.2060   11.9840 C.3   306  ALA306      0.0304
     49  N         17.6370   41.8460   14.2050 N.am  307  SER307     -0.1938
     50  CA        17.5170   40.4160   14.4790 C.3   307  SER307      0.2055
     51  C         16.3790   39.7860   13.6880 C.2   307  SER307      0.2643
     52  O         15.2370   40.2740   13.7230 O.2   307  SER307     -0.2714
     53  CB        17.2030   40.1930   15.9580 C.3   307  SER307      0.2130
     54  OG        17.3270   38.8170   16.3010 O.3   307  SER307     -0.2179
     55  N         16.6790   38.6790   13.0150 N.am  308  GLY308     -0.1954
     56  CA        15.6820   37.9310   12.2600 C.3   308  GLY308      0.1869
     57  C         14.5750   37.3140   13.1110 C.2   308  GLY308      0.2309
     58  O         14.7730   36.3190   13.8200 O.2   308  GLY308     -0.2863
     59  N         16.6180   45.9930   17.0880 N.3   327  ARG327     -0.1231
     60  CA        15.6200   46.1250   16.0400 C.3   327  ARG327      0.1694
     61  C         15.1980   44.7140   15.6390 C.2   327  ARG327      0.2592
     62  O         15.8380   44.1010   14.7970 O.2   327  ARG327     -0.2718
     63  CB        16.2080   46.8680   14.8390 C.3   327  ARG327      0.0321
     64  CG        15.1990   47.1600   13.7670 C.3   327  ARG327      0.0489
     65  CD        14.6290   48.5030   14.0070 C.3   327  ARG327      0.2205
     66  NE        13.4870   48.8240   13.1470 N.pl3 327  ARG327     -0.0865
     67  CZ        13.5530   49.4920   12.0030 C.cat 327  ARG327      0.5346
     68  NH1       14.7190   49.9070   11.5070 N.pl3 327  ARG327      0.1354
     69  NH2       12.4290   49.7700   11.3600 N.pl3 327  ARG327      0.1354
     70  N         14.1550   44.1910   16.2800 N.am  328  GLN328     -0.1966
     71  CA        13.6890   42.8380   16.0220 C.3   328  GLN328      0.1733
     72  C         12.6620   42.7950   14.9310 C.2   328  GLN328      0.2616
     73  O         11.9390   43.7740   14.6870 O.2   328  GLN328     -0.2715
     74  CB        13.0670   42.2140   17.2670 C.3   328  GLN328      0.0408
     75  CG        14.0000   42.0930   18.4250 C.3   328  GLN328      0.0908
     76  CD        13.3820   41.3460   19.6080 C.2   328  GLN328      0.2608
     77  OE1       12.9490   40.1900   19.4920 O.2   328  GLN328     -0.2717
     78  NE2       13.3660   42.0010   20.7640 N.am  328  GLN328     -0.0878
     79  N         12.6200   41.6450   14.2740 N.am  329  GLY329     -0.1955
     80  CA        11.6560   41.3540   13.2380 C.3   329  GLY329      0.1869
     81  C         11.2360   39.9060   13.3960 C.2   329  GLY329      0.2309
     82  O         11.9920   39.0770   13.9070 O.2   329  GLY329     -0.2863
     83  N          9.3540   36.8150   11.0540 N.3   331  GLY331     -0.1210
     84  CA         8.8250   36.4020    9.7760 C.3   331  GLY331      0.1956
     85  C          9.1700   34.9510    9.5550 C.2   331  GLY331      0.2612
     86  O          9.9330   34.3740   10.3140 O.2   331  GLY331     -0.2717
     87  N          8.5820   34.3680    8.5210 N.am  332  LEU332     -0.1965
     88  CA         8.8970   33.0130    8.1070 C.3   332  LEU332      0.1728
     89  C          9.1880   33.0390    6.6080 C.2   332  LEU332      0.2616
     90  O          8.8410   33.9810    5.8980 O.2   332  LEU332     -0.2715
     91  CB         7.7080   32.0700    8.3560 C.3   332  LEU332      0.0311
     92  CG         7.1670   32.0740    9.7820 C.3   332  LEU332      0.0022
     93  CD1        5.8350   31.4010    9.7720 C.3   332  LEU332      0.0001
     94  CD2        8.1460   31.3860   10.7260 C.3   332  LEU332      0.0001
     95  N          9.7870   31.9680    6.1290 N.am  333  THR333     -0.1951
     96  CA        10.0370   31.8350    4.7170 C.3   333  THR333      0.1897
     97  C          8.6830   31.9780    3.9890 C.2   333  THR333      0.2313
     98  O          8.5790   32.6970    2.9940 O.2   333  THR333     -0.2863
     99  CB        10.7190   30.4990    4.4290 C.3   333  THR333      0.1794
    100  OG1       11.8780   30.3790    5.2600 O.3   333  THR333     -0.2208
    101  CG2       11.1330   30.4250    2.9590 C.3   333  THR333      0.0378
    102  N          7.5500   35.5210    3.1870 N.3   336  THR336     -0.1203
    103  CA         8.5510   36.2910    2.4240 C.3   336  THR336      0.1994
    104  C          9.6210   36.9560    3.2950 C.2   336  THR336      0.2619
    105  O         10.8230   36.5920    3.2300 O.2   336  THR336     -0.2717
    106  CB         7.9170   37.3680    1.5360 C.3   336  THR336      0.1784
    107  OG1        7.0520   36.7470    0.5850 O.3   336  THR336     -0.2211
    108  CG2        9.0220   38.1610    0.7820 C.3   336  THR336      0.0376
    109  N          9.1770   37.9350    4.0840 N.am  337  SER337     -0.1937
    110  CA        10.0380   38.6740    5.0010 C.3   337  SER337      0.2055
    111  C          9.3390   38.9160    6.3710 C.2   337  SER337      0.2642
    112  O          8.3520   38.2650    6.6950 O.2   337  SER337     -0.2714
    113  CB        10.4260   40.0050    4.3580 C.3   337  SER337      0.2130
    114  OG        11.4750   40.5990    5.1090 O.3   337  SER337     -0.2179
    115  N          9.8280   39.8690    7.1620 N.am  338  ALA338     -0.1977
    116  CA         9.2110   40.1160    8.4550 C.3   338  ALA338      0.1597
    117  C          7.8470   40.7490    8.2800 C.2   338  ALA338      0.2287
    118  O          7.6920   41.7200    7.5280 O.2   338  ALA338     -0.2864
    119  CB        10.0820   41.0000    9.3230 C.3   338  ALA338      0.0319
    120  N          7.5770   43.9430   12.9180 N.3   341  ILE341     -0.1245
    121  CA         8.8300   44.6560   12.9430 C.3   341  ILE341      0.1561
    122  C          8.8100   45.7980   13.9620 C.2   341  ILE341      0.2260
    123  O          7.8470   46.5650   13.9980 O.2   341  ILE341     -0.2867
    124  CB         9.1270   45.2550   11.5510 C.3   341  ILE341      0.0252
    125  CG1        9.2880   44.1260   10.5160 C.3   341  ILE341      0.0019
    126  CG2       10.3810   46.1260   11.5950 C.3   341  ILE341      0.0019
    127  CD1        9.4050   44.6260    9.0510 C.3   341  ILE341      0.0001
@<TRIPOS>BOND
     1     1     2    1
     2     3     2    1
     3     3     4    2
     4   107   106    1
     5     5     2    1
     6     5     6    1
     7   108   106    1
     8     6     7    1
     9   106   103    1
    10    40    39    2
    11    12    13    1
    12    39    38    1
    13   103   102    1
    14   103   104    1
    15    15    14    2
    16     7     8    1
    17    37    38    1
    18   101    99    1
    19    98    97    2
    20    14    13    1
    21    14    22   am
    22    13    16    1
    23   105   104    2
    24     8     9    2
    25    23    22    1
    26    23    24    1
    27   104   109   am
    28    38    41    1
    29    25    24    2
    30    24    26   am
    31    97    96    1
    32   109   110    1
    33   113   110    1
    34   113   114    1
    35    42    41    1
    36    99    96    1
    37    99   100    1
    38     9    11    1
    39     9    10    1
    40    16    17    1
    41    41    43    1
    42    96    95    1
    43   110   111    1
    44    29    28    2
    45    28    27    1
    46    26    27    1
    47    17    18   ar
    48    17    19   ar
    49    90    89    2
    50    27    30    1
    51    95    89   am
    52    18    20   ar
    53    19    21   ar
    54   111   112    2
    55   111   115   am
    56    89    88    1
    57   115   116    1
    58    20    21   ar
    59    30    31    1
    60   118   117    2
    61    32    31   ar
    62    32    34   ar
    63    88    91    1
    64    88    87    1
    65    31    33   ar
    66   117   116    1
    67    91    92    1
    68   116   119    1
    69    87    85   am
    70    34    36   ar
    71   127   125    1
    72    33    35   ar
    73    85    84    1
    74    85    86    2
    75    93    92    1
    76    84    83    1
    77    92    94    1
    78    36    35   ar
    79   125   124    1
    80    69    67    1
    81    68    67    1
    82   124   126    1
    83   124   121    1
    84    48    45    1
    85    67    66    2
    86    56    55    1
    87    56    57    1
    88   120   121    1
    89   121   122    1
    90    55    51   am
    91    57    58    2
    92    66    65    1
    93    80    81    1
    94    80    79    1
    95    47    46    2
    96    81    82    2
    97    45    46    1
    98    45    44    1
    99    46    49   am
   100    51    52    2
   101    51    50    1
   102    64    65    1
   103    64    63    1
   104   122   123    2
   105    49    50    1
   106    79    72   am
   107    50    53    1
   108    73    72    2
   109    62    61    2
   110    63    60    1
   111    72    71    1
   112    61    60    1
   113    61    70   am
   114    53    54    1
   115    71    70    1
   116    71    74    1
   117    60    59    1
   118    74    75    1
   119    75    76    1
   120    77    76    2
   121    76    78   am
