@<TRIPOS>MOLECULE
tmp/4e5fD00.pdb
 86 80 0 0 0
SMALL
GASTEIGER

@<TRIPOS>ATOM
      1  N        -40.3070  -13.8970   24.5520 N.3    41  HIS41      -0.1241
      2  CA       -41.2080  -14.8830   23.9460 C.3    41  HIS41       0.1621
      3  C        -41.3470  -14.6880   22.4150 C.2    41  HIS41       0.2264
      4  O        -41.2750  -15.6590   21.6380 O.2    41  HIS41      -0.2867
      5  CB       -42.5620  -14.8650   24.6810 C.3    41  HIS41       0.0745
      6  CG       -43.5790  -15.8010   24.1110 C.ar   41  HIS41       0.0817
      7  ND1      -44.5600  -15.3900   23.2430 N.ar   41  HIS41      -0.2268
      8  CD2      -43.7820  -17.1270   24.2990 C.ar   41  HIS41       0.1154
      9  CE1      -45.3230  -16.4160   22.9160 C.ar   41  HIS41       0.1986
     10  NE2      -44.8690  -17.4850   23.5410 N.ar   41  HIS41      -0.2212
     11  N        -48.2690  -15.7940   16.5380 N.3    61  GLU61      -0.1245
     12  CA       -47.8750  -14.8210   17.5420 C.3    61  GLU61       0.1567
     13  C        -47.3020  -13.5690   16.8720 C.2    61  GLU61       0.2260
     14  O        -46.7290  -13.6420   15.7740 O.2    61  GLU61      -0.2867
     15  CB       -46.8350  -15.4390   18.4890 C.3    61  GLU61       0.0388
     16  CG       -46.3940  -14.5480   19.6800 C.3    61  GLU61       0.1160
     17  CD       -47.5590  -14.1050   20.5460 C.2    61  GLU61       0.3649
     18  OE1      -48.1910  -13.0800   20.2180 O.co2  61  GLU61      -0.2457
     19  OE2      -47.8480  -14.7780   21.5590 O.co2  61  GLU61      -0.2457
     20  N        -55.3830  -18.6910   21.0430 N.3    87  LEU87      -0.1245
     21  CA       -54.4350  -18.4120   19.9800 C.3    87  LEU87       0.1561
     22  C        -53.1290  -19.1350   20.2400 C.2    87  LEU87       0.2260
     23  O        -52.4630  -18.8870   21.2420 O.2    87  LEU87      -0.2867
     24  CB       -54.1540  -16.9160   19.8580 C.3    87  LEU87       0.0270
     25  CG       -55.0120  -15.9730   19.0120 C.3    87  LEU87       0.0019
     26  CD1      -54.2960  -14.6170   18.9870 C.3    87  LEU87       0.0001
     27  CD2      -55.2690  -16.4740   17.5920 C.3    87  LEU87       0.0001
     28  N        -49.1220  -20.2240   18.9420 N.3    89  ASP89      -0.1239
     29  CA       -48.0020  -19.4000   18.4820 C.3    89  ASP89       0.1674
     30  C        -47.5880  -19.5960   17.0230 C.2    89  ASP89       0.2266
     31  O        -47.1410  -18.6530   16.3850 O.2    89  ASP89      -0.2867
     32  CB       -46.8180  -19.5850   19.4010 C.3    89  ASP89       0.1410
     33  CG       -47.0910  -19.0570   20.7660 C.2    89  ASP89       0.3668
     34  OD1      -47.5580  -17.9090   20.8550 O.co2  89  ASP89      -0.2456
     35  OD2      -46.8620  -19.7820   21.7520 O.co2  89  ASP89      -0.2456
     36  N        -47.8870  -24.3970   20.6750 N.3   100  GLU100     -0.1231
     37  CA       -47.8410  -23.4020   21.7260 C.3   100  GLU100      0.1699
     38  C        -46.4160  -23.3900   22.2610 C.2   100  GLU100      0.2592
     39  O        -45.8700  -24.4370   22.5980 O.2   100  GLU100     -0.2718
     40  CB       -48.8630  -23.7350   22.8200 C.3   100  GLU100      0.0402
     41  CG       -48.7720  -22.8760   24.0830 C.3   100  GLU100      0.1161
     42  CD       -48.9080  -21.3820   23.8170 C.2   100  GLU100      0.3649
     43  OE1      -48.0400  -20.6280   24.2820 O.co2 100  GLU100     -0.2457
     44  OE2      -49.8730  -20.9640   23.1400 O.co2 100  GLU100     -0.2457
     45  N        -45.7980  -22.2100   22.2930 N.am  101  ILE101     -0.1966
     46  CA       -44.4280  -22.0810   22.7600 C.3   101  ILE101      0.1727
     47  C        -44.4310  -21.4230   24.1080 C.2   101  ILE101      0.2616
     48  O        -45.0370  -20.3730   24.2940 O.2   101  ILE101     -0.2715
     49  CB       -43.5370  -21.3180   21.7510 C.3   101  ILE101      0.0290
     50  CG1      -43.2770  -22.2020   20.5270 C.3   101  ILE101      0.0022
     51  CG2      -42.1850  -20.8880   22.3820 C.3   101  ILE101      0.0023
     52  CD1      -42.7600  -21.4810   19.3520 C.3   101  ILE101      0.0001
     53  N        -43.7650  -22.0540   25.0690 N.am  102  GLY102     -0.1955
     54  CA       -43.6910  -21.4920   26.4180 C.3   102  GLY102      0.1869
     55  C        -42.2820  -21.0740   26.7350 C.2   102  GLY102      0.2309
     56  O        -41.3440  -21.7570   26.3780 O.2   102  GLY102     -0.2863
     57  N        -44.7710  -25.4960   34.6570 N.3   111  TYR111     -0.1241
     58  CA       -45.2040  -24.6300   33.5660 C.3   111  TYR111      0.1605
     59  C        -45.8360  -25.4600   32.4570 C.2   111  TYR111      0.2264
     60  O        -46.9290  -25.1230   31.9810 O.2   111  TYR111     -0.2867
     61  CB       -44.0450  -23.7660   33.0400 C.3   111  TYR111      0.0534
     62  CG       -44.4920  -22.6020   32.1810 C.ar  111  TYR111     -0.0201
     63  CD1      -45.1130  -21.4890   32.7620 C.ar  111  TYR111     -0.0009
     64  CD2      -44.2870  -22.6010   30.7960 C.ar  111  TYR111     -0.0009
     65  CE1      -45.5250  -20.4050   31.9930 C.ar  111  TYR111      0.0417
     66  CE2      -44.6980  -21.5020   30.0040 C.ar  111  TYR111      0.0417
     67  CZ       -45.3200  -20.4150   30.6190 C.ar  111  TYR111      0.1957
     68  OH       -45.7420  -19.3240   29.8900 O.3   111  TYR111     -0.2866
     69  N        -49.8900  -25.1450   31.0240 N.3   115  LYS115     -0.1245
     70  CA       -50.1450  -24.9900   29.6010 C.3   115  LYS115      0.1561
     71  C        -50.9370  -26.1530   29.0230 C.2   115  LYS115      0.2260
     72  O        -51.9000  -25.9410   28.2850 O.2   115  LYS115     -0.2867
     73  CB       -48.8260  -24.8090   28.8310 C.3   115  LYS115      0.0271
     74  CG       -48.2780  -23.3760   28.8290 C.3   115  LYS115      0.0035
     75  CD       -49.0470  -22.4910   27.8440 C.3   115  LYS115      0.0206
     76  CE       -48.6770  -21.0310   27.9810 C.3   115  LYS115      0.1093
     77  NZ       -47.2490  -20.8260   27.6730 N.3   115  LYS115     -0.1314
     78  N        -54.3250  -25.8280   30.2600 N.3   118  LYS118     -0.1245
     79  CA       -55.0150  -24.6090   29.8080 C.3   118  LYS118      0.1561
     80  C        -55.7510  -24.8110   28.4830 C.2   118  LYS118      0.2260
     81  O        -56.7830  -24.1860   28.2390 O.2   118  LYS118     -0.2867
     82  CB       -54.0520  -23.4190   29.6920 C.3   118  LYS118      0.0271
     83  CG       -54.7470  -22.0650   29.5290 C.3   118  LYS118      0.0035
     84  CD       -53.7770  -20.9380   29.1660 C.3   118  LYS118      0.0206
     85  CE       -54.5520  -19.6680   28.7690 C.3   118  LYS118      0.1093
     86  NZ       -53.6880  -18.5180   28.3570 N.3   118  LYS118     -0.1314
@<TRIPOS>BOND
     1    14    13    2
     2    31    30    2
     3    11    12    1
     4    13    12    1
     5    30    29    1
     6    12    15    1
     7    27    25    1
     8    29    28    1
     9    29    32    1
    10    15    16    1
    11    26    25    1
    12    25    24    1
    13    52    50    1
    14    32    33    1
    15    16    17    1
    16    24    21    1
    17    21    22    1
    18    21    20    1
    19    18    17   ar
    20    22    23    2
    21    50    49    1
    22    17    19   ar
    23    36    37    1
    24    33    34   ar
    25    33    35   ar
    26     4     3    2
    27    37    38    1
    28    37    40    1
    29    49    51    1
    30    49    46    1
    31    38    45   am
    32    38    39    2
    33    45    46    1
    34     3     2    1
    35    46    47    1
    36    40    41    1
    37     9     7   ar
    38     9    10   ar
    39    44    42   ar
    40     7     6   ar
    41    10     8   ar
    42    42    41    1
    43    42    43   ar
    44     2     1    1
    45     2     5    1
    46    47    48    2
    47    47    53   am
    48     6     8   ar
    49     6     5    1
    50    53    54    1
    51    56    55    2
    52    54    55    1
    53    77    76    1
    54    75    76    1
    55    75    74    1
    56    81    80    2
    57    72    71    2
    58    86    85    1
    59    80    79    1
    60    85    84    1
    61    74    73    1
    62    73    70    1
    63    71    70    1
    64    84    83    1
    65    83    82    1
    66    70    69    1
    67    82    79    1
    68    79    78    1
    69    68    67    1
    70    66    67   ar
    71    66    64   ar
    72    67    65   ar
    73    64    62   ar
    74    60    59    2
    75    65    63   ar
    76    62    63   ar
    77    62    61    1
    78    59    58    1
    79    61    58    1
    80    58    57    1
