@<TRIPOS>MOLECULE
tmp/4e5gA01.pdb
 105 98 0 0 0
SMALL
GASTEIGER

@<TRIPOS>ATOM
      1  N        -12.8880   -6.4190  -20.9820 N.3    20  ALA20      -0.1231
      2  CA       -12.2450   -7.5350  -21.6610 C.3    20  ALA20       0.1694
      3  C        -11.8420   -7.1620  -23.0770 C.2    20  ALA20       0.2591
      4  O        -10.7570   -7.5220  -23.5340 O.2    20  ALA20      -0.2718
      5  CB       -13.1540   -8.7410  -21.6690 C.3    20  ALA20       0.0304
      6  N        -12.7090   -6.4290  -23.7640 N.am   21  MET21      -0.1979
      7  CA       -12.4160   -5.9970  -25.1290 C.3    21  MET21       0.1605
      8  C        -11.3410   -4.9110  -25.1540 C.2    21  MET21       0.2287
      9  O        -10.4070   -4.9670  -25.9680 O.2    21  MET21      -0.2864
     10  CB       -13.6890   -5.5360  -25.8520 C.3    21  MET21       0.0413
     11  CG       -14.5940   -6.6810  -26.2780 C.3    21  MET21       0.0598
     12  SD       -16.0120   -6.1580  -27.2470 S.3    21  MET21      -0.1393
     13  CE       -15.3300   -6.0860  -28.9010 C.3    21  MET21       0.0692
     14  N         -7.5790   -5.7060  -24.7090 N.3    24  TYR24      -0.1241
     15  CA        -6.9290   -6.2130  -25.9190 C.3    24  TYR24       0.1605
     16  C         -7.0330   -5.2280  -27.1050 C.2    24  TYR24       0.2264
     17  O         -6.7990   -5.5980  -28.2660 O.2    24  TYR24      -0.2867
     18  CB        -7.4910   -7.6000  -26.2750 C.3    24  TYR24       0.0534
     19  CG        -6.9860   -8.7340  -25.3900 C.ar   24  TYR24      -0.0201
     20  CD1       -7.2950   -8.7860  -24.0270 C.ar   24  TYR24      -0.0009
     21  CD2       -6.2130   -9.7650  -25.9210 C.ar   24  TYR24      -0.0009
     22  CE1       -6.8360   -9.8280  -23.2160 C.ar   24  TYR24       0.0417
     23  CE2       -5.7500  -10.8090  -25.1190 C.ar   24  TYR24       0.0417
     24  CZ        -6.0660  -10.8340  -23.7690 C.ar   24  TYR24       0.1957
     25  OH        -5.6080  -11.8670  -22.9760 O.3    24  TYR24      -0.2866
     26  N         -9.4910   -3.8980  -28.6200 N.3    26  GLU26      -0.1245
     27  CA       -10.6950   -4.0000  -29.4480 C.3    26  GLU26       0.1567
     28  C        -11.7800   -3.0410  -28.9450 C.2    26  GLU26       0.2260
     29  O        -11.8390   -2.7410  -27.7470 O.2    26  GLU26      -0.2867
     30  CB       -11.2100   -5.4380  -29.4460 C.3    26  GLU26       0.0388
     31  CG       -10.2070   -6.4720  -29.9660 C.3    26  GLU26       0.1160
     32  CD       -10.4870   -7.8950  -29.4760 C.2    26  GLU26       0.3649
     33  OE1      -11.6050   -8.1660  -28.9770 O.co2  26  GLU26      -0.2457
     34  OE2       -9.5790   -8.7510  -29.5950 O.co2  26  GLU26      -0.2457
     35  N        -18.4260   -9.4560  -31.6590 N.3    34  LYS34      -0.1245
     36  CA       -17.5600  -10.0500  -30.6580 C.3    34  LYS34       0.1561
     37  C        -17.9690   -9.5800  -29.2500 C.2    34  LYS34       0.2260
     38  O        -17.9020  -10.3400  -28.2790 O.2    34  LYS34      -0.2867
     39  CB       -16.0920   -9.7790  -30.9570 C.3    34  LYS34       0.0271
     40  CG       -15.1730  -10.6820  -30.1580 C.3    34  LYS34       0.0035
     41  CD       -13.8760  -10.9770  -30.8770 C.3    34  LYS34       0.0206
     42  CE       -13.2180  -12.2180  -30.2820 C.3    34  LYS34       0.1093
     43  NZ       -14.0830  -13.4280  -30.4720 N.3    34  LYS34      -0.1314
     44  N        -20.8020  -11.7660  -28.2370 N.3    37  ALA37      -0.1231
     45  CA       -20.3340  -13.1130  -27.9780 C.3    37  ALA37       0.1694
     46  C        -19.7300  -13.1780  -26.5930 C.2    37  ALA37       0.2591
     47  O        -19.8870  -14.1800  -25.8900 O.2    37  ALA37      -0.2718
     48  CB       -19.3130  -13.5420  -29.0270 C.3    37  ALA37       0.0304
     49  N        -19.0420  -12.1070  -26.2050 N.am   38  ILE38      -0.1980
     50  CA       -18.3790  -12.0610  -24.9130 C.3    38  ILE38       0.1595
     51  C        -19.3870  -11.9270  -23.7870 C.2    38  ILE38       0.2287
     52  O        -19.2500  -12.6000  -22.7630 O.2    38  ILE38      -0.2864
     53  CB       -17.3050  -10.9660  -24.8470 C.3    38  ILE38       0.0276
     54  CG1      -16.2510  -11.2390  -25.9220 C.3    38  ILE38       0.0022
     55  CG2      -16.6530  -10.9510  -23.4600 C.3    38  ILE38       0.0022
     56  CD1      -15.3460  -10.0980  -26.2340 C.3    38  ILE38       0.0001
     57  N        -20.8880  -15.3590  -23.4080 N.3    41  HIS41      -0.1241
     58  CA       -19.9980  -16.3170  -22.7880 C.3    41  HIS41       0.1621
     59  C        -19.9410  -16.1060  -21.2630 C.2    41  HIS41       0.2264
     60  O        -19.9830  -17.0750  -20.4920 O.2    41  HIS41      -0.2867
     61  CB       -18.6250  -16.2600  -23.4560 C.3    41  HIS41       0.0745
     62  CG       -17.5880  -17.1010  -22.7850 C.ar   41  HIS41       0.0817
     63  ND1      -16.6170  -16.5640  -21.9670 N.ar   41  HIS41      -0.2268
     64  CD2      -17.3720  -18.4380  -22.8040 C.ar   41  HIS41       0.1154
     65  CE1      -15.8480  -17.5370  -21.5120 C.ar   41  HIS41       0.1986
     66  NE2      -16.2820  -18.6840  -22.0050 N.ar   41  HIS41      -0.2212
     67  N        -13.0110  -16.6260  -15.2660 N.3    61  GLU61      -0.1245
     68  CA       -13.4100  -15.7080  -16.3290 C.3    61  GLU61       0.1567
     69  C        -13.9890  -14.4190  -15.7230 C.2    61  GLU61       0.2260
     70  O        -14.4950  -14.4270  -14.6020 O.2    61  GLU61      -0.2867
     71  CB       -14.4410  -16.4150  -17.2170 C.3    61  GLU61       0.0388
     72  CG       -14.8620  -15.6850  -18.4830 C.3    61  GLU61       0.1160
     73  CD       -13.7030  -15.3650  -19.3820 C.2    61  GLU61       0.3649
     74  OE1      -13.1690  -16.2880  -20.0540 O.co2  61  GLU61      -0.2457
     75  OE2      -13.3320  -14.1750  -19.4230 O.co2  61  GLU61      -0.2457
     76  N        -19.0660  -21.3490  -26.0430 N.3   103  VAL103     -0.1245
     77  CA       -20.3510  -21.0580  -26.6730 C.3   103  VAL103      0.1561
     78  C        -20.1530  -20.8030  -28.1610 C.2   103  VAL103      0.2260
     79  O        -19.5720  -19.7850  -28.5700 O.2   103  VAL103     -0.2867
     80  CB       -21.0870  -19.8710  -26.0420 C.3   103  VAL103      0.0252
     81  CG1      -22.4600  -19.7210  -26.6730 C.3   103  VAL103      0.0019
     82  CG2      -21.2250  -20.0620  -24.5390 C.3   103  VAL103      0.0019
     83  N        -21.6550  -20.7110  -32.2820 N.3   105  ARG105     -0.1245
     84  CA       -22.7280  -20.5960  -33.2580 C.3   105  ARG105      0.1563
     85  C        -22.5500  -21.6470  -34.3710 C.2   105  ARG105      0.2260
     86  O        -23.3350  -21.6750  -35.3230 O.2   105  ARG105     -0.2867
     87  CB       -22.7590  -19.1800  -33.8410 C.3   105  ARG105      0.0307
     88  CG       -22.8120  -18.0610  -32.7830 C.3   105  ARG105      0.0489
     89  CD       -22.0110  -16.8330  -33.2090 C.3   105  ARG105      0.2205
     90  NE       -20.7160  -16.7460  -32.5400 N.pl3 105  ARG105     -0.0865
     91  CZ       -19.9400  -15.6600  -32.5150 C.cat 105  ARG105      0.5346
     92  NH1      -20.3060  -14.5420  -33.1320 N.pl3 105  ARG105      0.1354
     93  NH2      -18.7770  -15.6920  -31.8790 N.pl3 105  ARG105      0.1354
     94  N        -16.1330  -27.2490  -32.4740 N.3   111  TYR111     -0.1241
     95  CA       -15.5960  -26.3380  -31.4790 C.3   111  TYR111      0.1605
     96  C        -14.8820  -27.1160  -30.3780 C.2   111  TYR111      0.2264
     97  O        -13.7870  -26.7390  -29.9660 O.2   111  TYR111     -0.2867
     98  CB       -16.7180  -25.4600  -30.9050 C.3   111  TYR111      0.0534
     99  CG       -16.2460  -24.1720  -30.2560 C.ar  111  TYR111     -0.0201
    100  CD1      -15.7000  -23.1370  -31.0210 C.ar  111  TYR111     -0.0009
    101  CD2      -16.3600  -23.9810  -28.8830 C.ar  111  TYR111     -0.0009
    102  CE1      -15.2630  -21.9550  -30.4300 C.ar  111  TYR111      0.0417
    103  CE2      -15.9300  -22.8000  -28.2780 C.ar  111  TYR111      0.0417
    104  CZ       -15.3810  -21.7900  -29.0540 C.ar  111  TYR111      0.1957
    105  OH       -14.9560  -20.6200  -28.4540 O.3   111  TYR111     -0.2866
@<TRIPOS>BOND
     1    86    85    2
     2    85    84    1
     3    87    84    1
     4    87    88    1
     5    84    83    1
     6    89    88    1
     7    89    90    1
     8    92    91    1
     9    90    91    2
    10    91    93    1
    11    94    95    1
    12    35    36    1
    13    95    98    1
    14    95    96    1
    15   100   102   ar
    16   100    99   ar
    17    39    36    1
    18    39    40    1
    19    98    99    1
    20    41    42    1
    21    41    40    1
    22    36    37    1
    23    43    42    1
    24   102   104   ar
    25    96    97    2
    26    99   101   ar
    27    31    32    1
    28    31    30    1
    29    34    32   ar
    30    32    33   ar
    31    27    30    1
    32    27    28    1
    33    27    26    1
    34    37    38    2
    35   104   105    1
    36   104   103   ar
    37    48    45    1
    38    28    29    2
    39    13    12    1
    40   101   103   ar
    41    79    78    2
    42    17    16    2
    43    44    45    1
    44    78    77    1
    45    45    46    1
    46    12    11    1
    47    16    15    1
    48    77    76    1
    49    77    80    1
    50    81    80    1
    51    46    49   am
    52    46    47    2
    53    11    10    1
    54    18    15    1
    55    18    19    1
    56    56    54    1
    57    49    50    1
    58    80    82    1
    59     9     8    2
    60    54    53    1
    61    21    19   ar
    62    21    23   ar
    63    15    14    1
    64    10     7    1
    65    19    20   ar
    66     8     7    1
    67     7     6    1
    68    23    24   ar
    69    50    53    1
    70    50    51    1
    71    53    55    1
    72    20    22   ar
    73    51    52    2
    74    24    22   ar
    75    24    25    1
    76     6     3   am
    77     4     3    2
    78    61    58    1
    79    61    62    1
    80    57    58    1
    81     3     2    1
    82    64    62   ar
    83    64    66   ar
    84    58    59    1
    85    62    63   ar
    86    66    65   ar
    87    63    65   ar
    88     5     2    1
    89     2     1    1
    90    59    60    2
    91    74    73   ar
    92    75    73   ar
    93    73    72    1
    94    72    71    1
    95    71    68    1
    96    68    69    1
    97    68    67    1
    98    69    70    2
