@<TRIPOS>MOLECULE
tmp/4e5gA00.pdb
 125 117 0 0 0
SMALL
GASTEIGER

@<TRIPOS>ATOM
      1  N         -7.5790   -5.7060  -24.7090 N.3    24  TYR24      -0.1241
      2  CA        -6.9290   -6.2130  -25.9190 C.3    24  TYR24       0.1605
      3  C         -7.0330   -5.2280  -27.1050 C.2    24  TYR24       0.2264
      4  O         -6.7990   -5.5980  -28.2660 O.2    24  TYR24      -0.2867
      5  CB        -7.4910   -7.6000  -26.2750 C.3    24  TYR24       0.0534
      6  CG        -6.9860   -8.7340  -25.3900 C.ar   24  TYR24      -0.0201
      7  CD1       -7.2950   -8.7860  -24.0270 C.ar   24  TYR24      -0.0009
      8  CD2       -6.2130   -9.7650  -25.9210 C.ar   24  TYR24      -0.0009
      9  CE1       -6.8360   -9.8280  -23.2160 C.ar   24  TYR24       0.0417
     10  CE2       -5.7500  -10.8090  -25.1190 C.ar   24  TYR24       0.0417
     11  CZ        -6.0660  -10.8340  -23.7690 C.ar   24  TYR24       0.1957
     12  OH        -5.6080  -11.8670  -22.9760 O.3    24  TYR24      -0.2866
     13  N        -18.4260   -9.4560  -31.6590 N.3    34  LYS34      -0.1245
     14  CA       -17.5600  -10.0500  -30.6580 C.3    34  LYS34       0.1561
     15  C        -17.9690   -9.5800  -29.2500 C.2    34  LYS34       0.2260
     16  O        -17.9020  -10.3400  -28.2790 O.2    34  LYS34      -0.2867
     17  CB       -16.0920   -9.7790  -30.9570 C.3    34  LYS34       0.0271
     18  CG       -15.1730  -10.6820  -30.1580 C.3    34  LYS34       0.0035
     19  CD       -13.8760  -10.9770  -30.8770 C.3    34  LYS34       0.0206
     20  CE       -13.2180  -12.2180  -30.2820 C.3    34  LYS34       0.1093
     21  NZ       -14.0830  -13.4280  -30.4720 N.3    34  LYS34      -0.1314
     22  N        -20.8880  -15.3590  -23.4080 N.3    41  HIS41      -0.1241
     23  CA       -19.9980  -16.3170  -22.7880 C.3    41  HIS41       0.1621
     24  C        -19.9410  -16.1060  -21.2630 C.2    41  HIS41       0.2264
     25  O        -19.9830  -17.0750  -20.4920 O.2    41  HIS41      -0.2867
     26  CB       -18.6250  -16.2600  -23.4560 C.3    41  HIS41       0.0745
     27  CG       -17.5880  -17.1010  -22.7850 C.ar   41  HIS41       0.0817
     28  ND1      -16.6170  -16.5640  -21.9670 N.ar   41  HIS41      -0.2268
     29  CD2      -17.3720  -18.4380  -22.8040 C.ar   41  HIS41       0.1154
     30  CE1      -15.8480  -17.5370  -21.5120 C.ar   41  HIS41       0.1986
     31  NE2      -16.2820  -18.6840  -22.0050 N.ar   41  HIS41      -0.2212
     32  N        -13.0110  -16.6260  -15.2660 N.3    61  GLU61      -0.1245
     33  CA       -13.4100  -15.7080  -16.3290 C.3    61  GLU61       0.1567
     34  C        -13.9890  -14.4190  -15.7230 C.2    61  GLU61       0.2260
     35  O        -14.4950  -14.4270  -14.6020 O.2    61  GLU61      -0.2867
     36  CB       -14.4410  -16.4150  -17.2170 C.3    61  GLU61       0.0388
     37  CG       -14.8620  -15.6850  -18.4830 C.3    61  GLU61       0.1160
     38  CD       -13.7030  -15.3650  -19.3820 C.2    61  GLU61       0.3649
     39  OE1      -13.1690  -16.2880  -20.0540 O.co2  61  GLU61      -0.2457
     40  OE2      -13.3320  -14.1750  -19.4230 O.co2  61  GLU61      -0.2457
     41  N         -6.7160  -10.4060  -15.5230 N.3    65  ARG65      -0.1245
     42  CA        -5.9330  -11.5980  -15.8190 C.3    65  ARG65       0.1563
     43  C         -4.9610  -11.9880  -14.7210 C.2    65  ARG65       0.2260
     44  O         -4.8790  -13.1550  -14.3450 O.2    65  ARG65      -0.2867
     45  CB        -5.1840  -11.4160  -17.1390 C.3    65  ARG65       0.0307
     46  CG        -6.0380  -11.6470  -18.3830 C.3    65  ARG65       0.0489
     47  CD        -5.1780  -11.5500  -19.6590 C.3    65  ARG65       0.2205
     48  NE        -4.3260  -12.7280  -19.8820 N.pl3  65  ARG65      -0.0865
     49  CZ        -2.9950  -12.7430  -19.7990 C.cat  65  ARG65       0.5346
     50  NH1       -2.3240  -11.6390  -19.4880 N.pl3  65  ARG65       0.1354
     51  NH2       -2.3310  -13.8720  -20.0300 N.pl3  65  ARG65       0.1354
     52  N         -5.6370  -19.8610  -19.5830 N.3    87  LEU87      -0.1245
     53  CA        -6.6030  -19.4320  -18.5620 C.3    87  LEU87       0.1561
     54  C         -7.9560  -20.1160  -18.7490 C.2    87  LEU87       0.2260
     55  O         -8.6190  -19.9090  -19.7600 O.2    87  LEU87      -0.2867
     56  CB        -6.8040  -17.9100  -18.5940 C.3    87  LEU87       0.0270
     57  CG        -6.3310  -16.9830  -17.4610 C.3    87  LEU87       0.0019
     58  CD1       -7.2200  -15.7550  -17.4290 C.3    87  LEU87       0.0001
     59  CD2       -6.2890  -17.6440  -16.0600 C.3    87  LEU87       0.0001
     60  N        -12.0280  -21.1080  -17.2950 N.3    89  ASP89      -0.1239
     61  CA       -13.1770  -20.2690  -16.9360 C.3    89  ASP89       0.1674
     62  C        -13.6380  -20.4570  -15.4850 C.2    89  ASP89       0.2266
     63  O        -14.0600  -19.5000  -14.8310 O.2    89  ASP89      -0.2867
     64  CB       -14.3420  -20.5200  -17.8910 C.3    89  ASP89       0.1410
     65  CG       -14.0530  -20.0550  -19.2950 C.2    89  ASP89       0.3668
     66  OD1      -13.4600  -18.9820  -19.4490 O.co2  89  ASP89      -0.2456
     67  OD2      -14.4270  -20.7560  -20.2570 O.co2  89  ASP89      -0.2456
     68  N        -13.1920  -25.3320  -18.8600 N.3   100  GLU100     -0.1231
     69  CA       -13.2840  -24.3470  -19.9240 C.3   100  GLU100      0.1699
     70  C        -14.6780  -24.4660  -20.4740 C.2   100  GLU100      0.2592
     71  O        -15.1570  -25.5720  -20.7000 O.2   100  GLU100     -0.2718
     72  CB       -12.2580  -24.6160  -21.0240 C.3   100  GLU100      0.0402
     73  CG       -12.4300  -23.7620  -22.2890 C.3   100  GLU100      0.1161
     74  CD       -12.2590  -22.2750  -22.0510 C.2   100  GLU100      0.3649
     75  OE1      -11.2910  -21.8850  -21.3570 O.co2 100  GLU100     -0.2457
     76  OE2      -13.0840  -21.4900  -22.5670 O.co2 100  GLU100     -0.2457
     77  N        -15.3260  -23.3240  -20.6760 N.am  101  ILE101     -0.1966
     78  CA       -16.6820  -23.2780  -21.1910 C.3   101  ILE101      0.1727
     79  C        -16.6690  -22.6210  -22.5540 C.2   101  ILE101      0.2617
     80  O        -16.0730  -21.5540  -22.7310 O.2   101  ILE101     -0.2715
     81  CB       -17.6310  -22.5310  -20.2120 C.3   101  ILE101      0.0290
     82  CG1      -17.9080  -23.4270  -19.0030 C.3   101  ILE101      0.0022
     83  CG2      -18.9370  -22.1100  -20.9060 C.3   101  ILE101      0.0023
     84  CD1      -18.6150  -22.7620  -17.8540 C.3   101  ILE101      0.0001
     85  N        -17.3330  -23.2640  -23.5140 N.am  102  GLY102     -0.1940
     86  CA       -17.4600  -22.7180  -24.8690 C.3   102  GLY102      0.2014
     87  C        -18.8890  -22.4260  -25.2830 C.2   102  GLY102      0.2638
     88  O        -19.8210  -23.1520  -24.9080 O.2   102  GLY102     -0.2714
     89  N        -19.0660  -21.3490  -26.0430 N.am  103  VAL103     -0.1977
     90  CA       -20.3510  -21.0580  -26.6730 C.3   103  VAL103      0.1596
     91  C        -20.1530  -20.8030  -28.1610 C.2   103  VAL103      0.2287
     92  O        -19.5720  -19.7850  -28.5700 O.2   103  VAL103     -0.2864
     93  CB       -21.0870  -19.8710  -26.0420 C.3   103  VAL103      0.0276
     94  CG1      -22.4600  -19.7210  -26.6730 C.3   103  VAL103      0.0022
     95  CG2      -21.2250  -20.0620  -24.5390 C.3   103  VAL103      0.0022
     96  N        -16.1330  -27.2490  -32.4740 N.3   111  TYR111     -0.1241
     97  CA       -15.5960  -26.3380  -31.4790 C.3   111  TYR111      0.1605
     98  C        -14.8820  -27.1160  -30.3780 C.2   111  TYR111      0.2264
     99  O        -13.7870  -26.7390  -29.9660 O.2   111  TYR111     -0.2867
    100  CB       -16.7180  -25.4600  -30.9050 C.3   111  TYR111      0.0534
    101  CG       -16.2460  -24.1720  -30.2560 C.ar  111  TYR111     -0.0201
    102  CD1      -15.7000  -23.1370  -31.0210 C.ar  111  TYR111     -0.0009
    103  CD2      -16.3600  -23.9810  -28.8830 C.ar  111  TYR111     -0.0009
    104  CE1      -15.2630  -21.9550  -30.4300 C.ar  111  TYR111      0.0417
    105  CE2      -15.9300  -22.8000  -28.2780 C.ar  111  TYR111      0.0417
    106  CZ       -15.3810  -21.7900  -29.0540 C.ar  111  TYR111      0.1957
    107  OH       -14.9560  -20.6200  -28.4540 O.3   111  TYR111     -0.2866
    108  N        -10.7940  -26.5450  -29.2990 N.3   115  LYS115     -0.1245
    109  CA       -10.4300  -26.2920  -27.9130 C.3   115  LYS115      0.1561
    110  C         -9.5210  -27.3910  -27.3950 C.2   115  LYS115      0.2260
    111  O         -8.4090  -27.1180  -26.9520 O.2   115  LYS115     -0.2867
    112  CB       -11.6780  -26.2140  -27.0260 C.3   115  LYS115      0.0271
    113  CG       -12.4890  -24.9340  -27.1460 C.3   115  LYS115      0.0035
    114  CD       -11.9750  -23.8470  -26.2230 C.3   115  LYS115      0.0206
    115  CE       -12.9720  -22.7000  -26.1420 C.3   115  LYS115      0.1093
    116  NZ       -12.2920  -21.4470  -25.7500 N.3   115  LYS115     -0.1314
    117  N         -5.9260  -27.3640  -28.4950 N.3   118  LYS118     -0.1245
    118  CA        -5.2180  -26.1670  -28.0680 C.3   118  LYS118      0.1561
    119  C         -4.7730  -26.2210  -26.6140 C.2   118  LYS118      0.2260
    120  O         -3.6370  -25.8750  -26.2990 O.2   118  LYS118     -0.2867
    121  CB        -6.1020  -24.9410  -28.3030 C.3   118  LYS118      0.0271
    122  CG        -5.6780  -23.6920  -27.5590 C.3   118  LYS118      0.0035
    123  CD        -6.7100  -22.5920  -27.7580 C.3   118  LYS118      0.0206
    124  CE        -6.4460  -21.3930  -26.8660 C.3   118  LYS118      0.1093
    125  NZ        -7.5790  -20.4250  -26.9100 N.3   118  LYS118     -0.1314
@<TRIPOS>BOND
     1    96    97    1
     2    13    14    1
     3    97   100    1
     4    97    98    1
     5   102   104   ar
     6   102   101   ar
     7    17    14    1
     8    17    18    1
     9   100   101    1
    10    19    20    1
    11    19    18    1
    12    14    15    1
    13    21    20    1
    14   104   106   ar
    15    98    99    2
    16   101   103   ar
    17   108   109    1
    18    15    16    2
    19   106   107    1
    20   106   105   ar
    21   103   105   ar
    22    92    91    2
    23   117   118    1
    24   121   118    1
    25   121   122    1
    26     4     3    2
    27    91    90    1
    28   118   119    1
    29   109   110    1
    30   109   112    1
    31   123   122    1
    32   123   124    1
    33   110   111    2
    34   113   112    1
    35   113   114    1
    36     3     2    1
    37   125   124    1
    38    94    93    1
    39    90    89    1
    40    90    93    1
    41   119   120    2
    42     5     2    1
    43     5     6    1
    44   114   115    1
    45   115   116    1
    46    89    87   am
    47    93    95    1
    48     8     6   ar
    49     8    10   ar
    50     2     1    1
    51     6     7   ar
    52    87    88    2
    53    87    86    1
    54    10    11   ar
    55    86    85    1
    56     7     9   ar
    57    11     9   ar
    58    11    12    1
    59    85    79   am
    60    26    23    1
    61    26    27    1
    62    22    23    1
    63    29    27   ar
    64    29    31   ar
    65    23    24    1
    66    27    28   ar
    67    80    79    2
    68    76    74   ar
    69    79    78    1
    70    73    74    1
    71    73    72    1
    72    74    75   ar
    73    31    30   ar
    74    28    30   ar
    75    24    25    2
    76    78    77    1
    77    78    81    1
    78    72    69    1
    79    83    81    1
    80    71    70    2
    81    77    70   am
    82    70    69    1
    83    67    65   ar
    84    81    82    1
    85    39    38   ar
    86    51    49    1
    87    69    68    1
    88    48    49    2
    89    48    47    1
    90    49    50    1
    91    55    54    2
    92    47    46    1
    93    52    53    1
    94    66    65   ar
    95    40    38   ar
    96    38    37    1
    97    65    64    1
    98    82    84    1
    99    54    53    1
   100    56    53    1
   101    56    57    1
   102    37    36    1
   103    46    45    1
   104    64    61    1
   105    57    58    1
   106    57    59    1
   107    60    61    1
   108    36    33    1
   109    45    42    1
   110    61    62    1
   111    33    34    1
   112    33    32    1
   113    42    41    1
   114    42    43    1
   115    34    35    2
   116    62    63    2
   117    43    44    2
