@<TRIPOS>MOLECULE
tmp/4e5iC00.pdb
 137 130 0 0 0
SMALL
GASTEIGER

@<TRIPOS>ATOM
      1  N         -5.3570   -5.0630   22.7560 N.3    24  TYR24      -0.1241
      2  CA        -4.0760   -5.5830   23.2360 C.3    24  TYR24       0.1605
      3  C         -2.9640   -4.5280   23.2530 C.2    24  TYR24       0.2264
      4  O         -1.7940   -4.8560   23.4640 O.2    24  TYR24      -0.2867
      5  CB        -3.6530   -6.8100   22.4170 C.3    24  TYR24       0.0534
      6  CG        -4.3100   -8.0990   22.8700 C.ar   24  TYR24      -0.0201
      7  CD1       -5.5650   -8.4760   22.3850 C.ar   24  TYR24      -0.0009
      8  CD2       -3.6800   -8.9430   23.7900 C.ar   24  TYR24      -0.0009
      9  CE1       -6.1770   -9.6590   22.8020 C.ar   24  TYR24       0.0417
     10  CE2       -4.2830  -10.1300   24.2150 C.ar   24  TYR24       0.0417
     11  CZ        -5.5310  -10.4790   23.7160 C.ar   24  TYR24       0.1957
     12  OH        -6.1300  -11.6460   24.1340 O.3    24  TYR24      -0.2866
     13  N          1.1510   -8.4730   12.0580 N.3    34  LYS34      -0.1245
     14  CA         0.1510   -9.0420   12.9670 C.3    34  LYS34       0.1561
     15  C         -1.2610   -8.6070   12.5570 C.2    34  LYS34       0.2260
     16  O         -2.2250   -9.3690   12.6910 O.2    34  LYS34      -0.2867
     17  CB         0.4510   -8.6250   14.4160 C.3    34  LYS34       0.0271
     18  CG        -0.4180   -9.3050   15.4660 C.3    34  LYS34       0.0035
     19  CD         0.2450   -9.3140   16.8370 C.3    34  LYS34       0.0206
     20  CE        -0.6130  -10.0500   17.8550 C.3    34  LYS34       0.1093
     21  NZ        -0.9580  -11.4360   17.4210 N.3    34  LYS34      -0.1314
     22  N         -7.1740  -14.4710    9.8010 N.3    41  HIS41      -0.1241
     23  CA        -7.7720  -15.3980   10.7430 C.3    41  HIS41       0.1621
     24  C         -9.2870  -15.1940   10.8070 C.2    41  HIS41       0.2264
     25  O        -10.0540  -16.1620   10.8240 O.2    41  HIS41      -0.2867
     26  CB        -7.1250  -15.2390   12.1170 C.3    41  HIS41       0.0745
     27  CG        -7.7120  -16.1310   13.1600 C.ar   41  HIS41       0.0817
     28  ND1       -8.4530  -15.6500   14.2170 N.ar   41  HIS41      -0.2268
     29  CD2       -7.6920  -17.4760   13.2950 C.ar   41  HIS41       0.1154
     30  CE1       -8.8570  -16.6600   14.9640 C.ar   41  HIS41       0.1986
     31  NE2       -8.4060  -17.7800   14.4290 N.ar   41  HIS41      -0.2212
     32  N        -15.4710  -15.9110   17.4890 N.3    61  GLU61      -0.1245
     33  CA       -14.4420  -14.9770   17.0600 C.3    61  GLU61       0.1567
     34  C        -15.1070  -13.7030   16.5420 C.2    61  GLU61       0.2260
     35  O        -16.1750  -13.7620   15.9320 O.2    61  GLU61      -0.2867
     36  CB       -13.5690  -15.6000   15.9700 C.3    61  GLU61       0.0388
     37  CG       -12.4760  -14.6810   15.4490 C.3    61  GLU61       0.1160
     38  CD       -11.3550  -14.4840   16.4510 C.2    61  GLU61       0.3649
     39  OE1      -11.2240  -15.3180   17.3710 O.co2  61  GLU61      -0.2457
     40  OE2      -10.6050  -13.4940   16.3180 O.co2  61  GLU61      -0.2457
     41  N        -14.7310   -9.6820   23.9520 N.3    65  ARG65      -0.1245
     42  CA       -14.2840  -10.7180   24.8850 C.3    65  ARG65       0.1563
     43  C        -15.3500  -11.0730   25.9310 C.2    65  ARG65       0.2260
     44  O        -15.6810  -12.2480   26.1100 O.2    65  ARG65      -0.2867
     45  CB       -12.9690  -10.3000   25.5530 C.3    65  ARG65       0.0307
     46  CG       -12.1920  -11.4510   26.1750 C.3    65  ARG65       0.0489
     47  CD       -10.7910  -11.0260   26.6010 C.3    65  ARG65       0.2205
     48  NE       -10.0440  -12.1350   27.2020 N.pl3  65  ARG65      -0.0865
     49  CZ        -9.3100  -13.0150   26.5200 C.cat  65  ARG65       0.5346
     50  NH1       -9.2050  -12.9300   25.1970 N.pl3  65  ARG65       0.1354
     51  NH2       -8.6750  -13.9850   27.1640 N.pl3  65  ARG65       0.1354
     52  N        -10.5290  -18.9660   24.9170 N.3    87  LEU87      -0.1231
     53  CA       -11.6150  -18.6930   23.9650 C.3    87  LEU87       0.1678
     54  C        -11.4630  -19.4130   22.6240 C.2    87  LEU87       0.2434
     55  O        -10.4720  -19.2160   21.9170 O.2    87  LEU87      -0.2733
     56  CB       -11.7670  -17.1840   23.7190 C.3    87  LEU87       0.0284
     57  CG       -12.7260  -16.3670   24.5900 C.3    87  LEU87       0.0019
     58  CD1      -12.5300  -14.8830   24.3390 C.3    87  LEU87       0.0001
     59  CD2      -14.1820  -16.7610   24.3650 C.3    87  LEU87       0.0001
     60  N        -12.4560  -20.2430   22.2660 N.am   88  PRO88      -0.2718
     61  CA       -12.4740  -20.9050   20.9630 C.3    88  PRO88       0.1535
     62  C        -12.7510  -19.9160   19.8270 C.2    88  PRO88       0.2598
     63  O        -12.7710  -18.7020   20.0520 O.2    88  PRO88      -0.2715
     64  CB       -13.6220  -21.9120   21.0980 C.3    88  PRO88       0.0310
     65  CG       -14.4820  -21.3710   22.1700 C.3    88  PRO88       0.0237
     66  CD       -13.5760  -20.6730   23.1210 C.3    88  PRO88       0.0939
     67  N        -12.9470  -20.4300   18.6160 N.am   89  ASP89      -0.1972
     68  CA       -13.3060  -19.5880   17.4820 C.3    89  ASP89       0.1709
     69  C        -14.7640  -19.7750   17.0760 C.2    89  ASP89       0.2293
     70  O        -15.4780  -18.8020   16.8190 O.2    89  ASP89      -0.2864
     71  CB       -12.3730  -19.8440   16.3010 C.3    89  ASP89       0.1436
     72  CG       -11.0200  -19.2030   16.4850 C.2    89  ASP89       0.3671
     73  OD1      -10.8550  -18.3980   17.4230 O.co2  89  ASP89      -0.2456
     74  OD2      -10.1150  -19.4990   15.6880 O.co2  89  ASP89      -0.2456
     75  N        -11.3070  -24.6580   17.5380 N.3   100  GLU100     -0.1231
     76  CA       -10.1930  -23.7320   17.4800 C.3   100  GLU100      0.1699
     77  C         -9.6860  -23.7460   16.0420 C.2   100  GLU100      0.2592
     78  O         -9.4880  -24.8140   15.4580 O.2   100  GLU100     -0.2718
     79  CB        -9.1030  -24.1340   18.4800 C.3   100  GLU100      0.0402
     80  CG        -7.8230  -23.3190   18.4020 C.3   100  GLU100      0.1161
     81  CD        -8.0720  -21.8290   18.3540 C.2   100  GLU100      0.3649
     82  OE1       -7.7140  -21.2090   17.3340 O.co2 100  GLU100     -0.2457
     83  OE2       -8.6350  -21.2820   19.3250 O.co2 100  GLU100     -0.2457
     84  N         -9.5180  -22.5610   15.4630 N.am  101  ILE101     -0.1966
     85  CA        -9.0660  -22.4440   14.0820 C.3   101  ILE101      0.1727
     86  C         -7.7570  -21.6840   14.0260 C.2   101  ILE101      0.2617
     87  O         -7.6270  -20.5950   14.5870 O.2   101  ILE101     -0.2715
     88  CB       -10.1310  -21.7900   13.1600 C.3   101  ILE101      0.0290
     89  CG1      -11.3060  -22.7480   12.9560 C.3   101  ILE101      0.0022
     90  CG2       -9.5290  -21.3970   11.8080 C.3   101  ILE101      0.0023
     91  CD1      -12.4040  -22.2260   12.0590 C.3   101  ILE101      0.0001
     92  N         -6.7870  -22.2800   13.3440 N.am  102  GLY102     -0.1940
     93  CA        -5.4760  -21.6780   13.1980 C.3   102  GLY102      0.2014
     94  C         -5.1090  -21.5090   11.7460 C.2   102  GLY102      0.2638
     95  O         -5.4740  -22.3240   10.9030 O.2   102  GLY102     -0.2714
     96  N         -4.4060  -20.4200   11.4650 N.am  103  VAL103     -0.1977
     97  CA        -3.8130  -20.1780   10.1640 C.3   103  VAL103      0.1596
     98  C         -2.3580  -19.8180   10.4250 C.2   103  VAL103      0.2287
     99  O         -2.0620  -18.8360   11.1200 O.2   103  VAL103     -0.2864
    100  CB        -4.5150  -19.0300    9.4080 C.3   103  VAL103      0.0276
    101  CG1       -3.7630  -18.6850    8.1310 C.3   103  VAL103      0.0022
    102  CG2       -5.9570  -19.3940    9.0890 C.3   103  VAL103      0.0022
    103  N          2.5610  -26.1160   14.7220 N.3   111  TYR111     -0.1241
    104  CA         1.5950  -25.1440   15.2360 C.3   111  TYR111      0.1605
    105  C          0.4420  -25.8210   15.9840 C.2   111  TYR111      0.2264
    106  O          0.0140  -25.3360   17.0390 O.2   111  TYR111     -0.2867
    107  CB         1.0740  -24.2320   14.1120 C.3   111  TYR111      0.0534
    108  CG         0.2540  -23.0550   14.6040 C.ar  111  TYR111     -0.0201
    109  CD1        0.8700  -21.9330   15.1650 C.ar  111  TYR111     -0.0009
    110  CD2       -1.1380  -23.0650   14.5140 C.ar  111  TYR111     -0.0009
    111  CE1        0.1160  -20.8520   15.6260 C.ar  111  TYR111      0.0417
    112  CE2       -1.8990  -21.9910   14.9720 C.ar  111  TYR111      0.0417
    113  CZ        -1.2670  -20.8890   15.5240 C.ar  111  TYR111      0.1957
    114  OH        -2.0180  -19.8280   15.9750 O.3   111  TYR111     -0.2866
    115  N         -0.7750  -25.4580   20.0260 N.3   115  LYS115     -0.1245
    116  CA        -2.1200  -25.0490   20.4020 C.3   115  LYS115      0.1561
    117  C         -2.7400  -26.0260   21.4010 C.2   115  LYS115      0.2260
    118  O         -3.3890  -25.6030   22.3590 O.2   115  LYS115     -0.2867
    119  CB        -3.0020  -24.8960   19.1570 C.3   115  LYS115      0.0271
    120  CG        -4.2770  -24.0610   19.3640 C.3   115  LYS115      0.0035
    121  CD        -3.9950  -22.5760   19.6550 C.3   115  LYS115      0.0206
    122  CE        -3.7600  -21.7620   18.3870 C.3   115  LYS115      0.1093
    123  NZ        -3.3840  -20.3570   18.7090 N.3   115  LYS115     -0.1314
    124  N         -1.3700  -25.6060   24.8840 N.3   118  LYS118     -0.1245
    125  CA        -1.8080  -24.3140   25.4120 C.3   118  LYS118      0.1561
    126  C         -3.1730  -24.4220   26.1020 C.2   118  LYS118      0.2260
    127  O         -3.3480  -23.9410   27.2270 O.2   118  LYS118     -0.2867
    128  CB        -1.8470  -23.2630   24.2920 C.3   118  LYS118      0.0271
    129  CG        -1.9410  -21.8210   24.7790 C.3   118  LYS118      0.0035
    130  CD        -1.5690  -20.8380   23.6780 C.3   118  LYS118      0.0206
    131  CE        -1.3480  -19.4390   24.2390 C.3   118  LYS118      0.1093
    132  NZ        -0.8870  -18.4760   23.1940 N.3   118  LYS118     -0.1314
    133  N          8.1700  -14.2110   16.7840 N.3   179  ALA179     -0.1245
    134  CA         7.3280  -14.2020   17.9820 C.3   179  ALA179      0.1562
    135  C          7.3310  -15.5380   18.7260 C.2   179  ALA179      0.2260
    136  O          7.2110  -15.5660   19.9540 O.2   179  ALA179     -0.2867
    137  CB         5.9020  -13.7940   17.6240 C.3   179  ALA179      0.0290
@<TRIPOS>BOND
     1   101   100    1
     2   102   100    1
     3   100    97    1
     4    22    23    1
     5    97    98    1
     6    97    96    1
     7    98    99    2
     8    23    24    1
     9    23    26    1
    10    24    25    2
    11    95    94    2
    12    96    94   am
    13    94    93    1
    14    90    88    1
    15    13    14    1
    16    91    89    1
    17    26    27    1
    18    15    16    2
    19    15    14    1
    20    89    88    1
    21    14    17    1
    22    27    29   ar
    23    27    28   ar
    24    88    85    1
    25    93    92    1
    26    29    31   ar
    27    92    86   am
    28    86    85    1
    29    86    87    2
    30    85    84    1
    31   107   108    1
    32   107   104    1
    33    28    30   ar
    34    17    18    1
    35    31    30   ar
    36   110   108   ar
    37   110   112   ar
    38   108   109   ar
    39   103   104    1
    40   112   113   ar
    41   109   111   ar
    42   104   105    1
    43    37    36    1
    44    37    38    1
    45    78    77    2
    46    84    77   am
    47    18    19    1
    48   113   111   ar
    49   113   114    1
    50    74    72   ar
    51    35    34    2
    52    36    33    1
    53   105   106    2
    54    77    76    1
    55    71    72    1
    56    71    68    1
    57    40    38   ar
    58    38    39   ar
    59    72    73   ar
    60    34    33    1
    61   133   134    1
    62    70    69    2
    63    19    20    1
    64    33    32    1
    65    69    68    1
    66    82    81   ar
    67    21    20    1
    68    76    75    1
    69    76    79    1
    70    68    67    1
    71   137   134    1
    72   134   135    1
    73    81    80    1
    74    81    83   ar
    75   122   123    1
    76   122   121    1
    77    80    79    1
    78    67    62   am
    79   135   136    2
    80   119   120    1
    81   119   116    1
    82   120   121    1
    83    62    63    2
    84    62    61    1
    85   115   116    1
    86   116   117    1
    87    61    64    1
    88    61    60    1
    89    64    65    1
    90   117   118    2
    91    55    54    2
    92    65    66    1
    93    60    54   am
    94    60    66    1
    95     7     9   ar
    96     7     6   ar
    97     5     6    1
    98     5     2    1
    99    54    53    1
   100     1     2    1
   101     9    11   ar
   102     6     8   ar
   103   132   131    1
   104     2     3    1
   105     3     4    2
   106   130   131    1
   107   130   129    1
   108    11    12    1
   109    11    10   ar
   110    56    53    1
   111    56    57    1
   112     8    10   ar
   113    41    42    1
   114    53    52    1
   115   128   129    1
   116   128   125    1
   117    58    57    1
   118    59    57    1
   119   124   125    1
   120    42    45    1
   121    42    43    1
   122    50    49    1
   123   125   126    1
   124    45    46    1
   125    43    44    2
   126   126   127    2
   127    46    47    1
   128    49    51    1
   129    49    48    2
   130    47    48    1
