@<TRIPOS>MOLECULE
tmp/4e5jC01.pdb
 124 115 0 0 0
SMALL
GASTEIGER

@<TRIPOS>ATOM
      1  N          3.2130   -2.3180   13.9610 N.3    31  GLU31      -0.1245
      2  CA         3.2710   -3.7750   13.9200 C.3    31  GLU31       0.1567
      3  C          2.3670   -4.2130   12.7880 C.2    31  GLU31       0.2260
      4  O          1.2230   -4.5890   13.0050 O.2    31  GLU31      -0.2867
      5  CB         2.8180   -4.3790   15.2440 C.3    31  GLU31       0.0388
      6  CG         3.5690   -3.8460   16.4490 C.3    31  GLU31       0.1160
      7  CD         3.5380   -4.7990   17.6230 C.2    31  GLU31       0.3649
      8  OE1        4.0030   -5.9450   17.4690 O.co2  31  GLU31      -0.2457
      9  OE2        3.0610   -4.4020   18.7030 O.co2  31  GLU31      -0.2457
     10  N          3.0390   -6.6790   10.3720 N.3    33  ASN33      -0.1225
     11  CA         3.0040   -8.1310   10.2390 C.3    33  ASN33       0.1785
     12  C          1.9860   -8.7630   11.1850 C.2    33  ASN33       0.2597
     13  O          1.3420   -9.7530   10.8390 O.2    33  ASN33      -0.2718
     14  CB         4.3920   -8.7610   10.4380 C.3    33  ASN33       0.1169
     15  CG         5.2260   -8.7920    9.1540 C.2    33  ASN33       0.2627
     16  OD1        4.7000   -8.9360    8.0490 O.2    33  ASN33      -0.2716
     17  ND2        6.5400   -8.6700    9.3050 N.am   33  ASN33      -0.0877
     18  N          1.8250   -8.1830   12.3680 N.am   34  LYS34      -0.1980
     19  CA         0.8150   -8.6610   13.3070 C.3    34  LYS34       0.1596
     20  C         -0.5910   -8.2430   12.8550 C.2    34  LYS34       0.2287
     21  O         -1.5300   -9.0340   12.8990 O.2    34  LYS34      -0.2864
     22  CB         1.1010   -8.1570   14.7220 C.3    34  LYS34       0.0298
     23  CG         0.1160   -8.6570   15.7660 C.3    34  LYS34       0.0038
     24  CD         0.6080   -8.3500   17.1700 C.3    34  LYS34       0.0206
     25  CE        -0.4090   -8.8290   18.1930 C.3    34  LYS34       0.1093
     26  NZ         0.2600   -9.1080   19.5000 N.3    34  LYS34      -0.1314
     27  N         -1.6320  -10.5180   10.2810 N.3    37  ALA37      -0.1231
     28  CA        -1.9050  -11.7990   10.9070 C.3    37  ALA37       0.1694
     29  C         -3.2640  -11.8500   11.5790 C.2    37  ALA37       0.2591
     30  O         -3.9550  -12.8690   11.5330 O.2    37  ALA37      -0.2718
     31  CB        -0.8140  -12.1380   11.9110 C.3    37  ALA37       0.0304
     32  N         -3.6550  -10.7520   12.2070 N.am   38  ILE38      -0.1980
     33  CA        -4.9360  -10.7200   12.8680 C.3    38  ILE38       0.1595
     34  C         -6.0420  -10.6810   11.8200 C.2    38  ILE38       0.2287
     35  O         -7.0360  -11.4020   11.9470 O.2    38  ILE38      -0.2864
     36  CB        -4.9950   -9.5850   13.9170 C.3    38  ILE38       0.0276
     37  CG1       -4.1740  -10.0140   15.1420 C.3    38  ILE38       0.0022
     38  CG2       -6.4220   -9.2770   14.3390 C.3    38  ILE38       0.0022
     39  CD1       -3.5120   -8.8540   15.8630 C.3    38  ILE38       0.0001
     40  N         -5.9630  -11.8820    8.6750 N.3    40  THR40      -0.1203
     41  CA        -6.0090  -13.2090    8.0540 C.3    40  THR40       0.1994
     42  C         -6.8000  -14.1680    8.9160 C.2    40  THR40       0.2617
     43  O         -7.7380  -14.8330    8.4380 O.2    40  THR40      -0.2717
     44  CB        -4.5890  -13.8000    7.8590 C.3    40  THR40       0.1784
     45  OG1       -3.8130  -12.9470    7.0160 O.3    40  THR40      -0.2211
     46  CG2       -4.6640  -15.1660    7.2290 C.3    40  THR40       0.0376
     47  N         -6.4090  -14.2350   10.1920 N.am   41  HIS41      -0.1975
     48  CA        -7.0450  -15.1210   11.1540 C.3    41  HIS41       0.1656
     49  C         -8.5310  -14.7820   11.2720 C.2    41  HIS41       0.2291
     50  O         -9.3940  -15.6640   11.2240 O.2    41  HIS41      -0.2864
     51  CB        -6.3520  -15.0370   12.5330 C.3    41  HIS41       0.0771
     52  CG        -7.0210  -15.8600   13.5990 C.ar   41  HIS41       0.0820
     53  ND1       -7.8950  -15.3240   14.5160 N.ar   41  HIS41      -0.2267
     54  CD2       -6.9270  -17.1750   13.9040 C.ar   41  HIS41       0.1154
     55  CE1       -8.3200  -16.2700   15.3330 C.ar   41  HIS41       0.1986
     56  NE2       -7.7430  -17.4060   14.9870 N.ar   41  HIS41      -0.2212
     57  N        -14.6900  -15.3410   18.4120 N.3    61  GLU61      -0.1245
     58  CA       -13.6430  -14.4390   17.9690 C.3    61  GLU61       0.1567
     59  C        -14.2320  -13.1920   17.2840 C.2    61  GLU61       0.2260
     60  O        -15.2870  -13.2580   16.6360 O.2    61  GLU61      -0.2867
     61  CB       -12.7020  -15.1840   17.0040 C.3    61  GLU61       0.0388
     62  CG       -11.5370  -14.3590   16.4260 C.3    61  GLU61       0.1160
     63  CD       -10.4950  -13.9770   17.4750 C.2    61  GLU61       0.3649
     64  OE1       -9.5570  -14.7800   17.7590 O.co2  61  GLU61      -0.2457
     65  OE2      -10.6260  -12.8640   18.0190 O.co2  61  GLU61      -0.2457
     66  N         -3.7430  -20.2310   12.2310 N.3   103  VAL103     -0.1245
     67  CA        -3.2370  -19.9570   10.8930 C.3   103  VAL103      0.1561
     68  C         -1.7490  -19.6570   11.0520 C.2   103  VAL103      0.2260
     69  O         -1.3630  -18.7500   11.7820 O.2   103  VAL103     -0.2867
     70  CB        -3.9360  -18.7210   10.2340 C.3   103  VAL103      0.0252
     71  CG1       -3.2240  -18.3140    8.9440 C.3   103  VAL103      0.0019
     72  CG2       -5.4610  -18.9840    9.9760 C.3   103  VAL103      0.0019
     73  N          2.3650  -19.5160    9.2260 N.3   105  ARG105     -0.1245
     74  CA         3.3240  -19.4760    8.1320 C.3   105  ARG105      0.1563
     75  C          4.4600  -20.4940    8.3560 C.2   105  ARG105      0.2260
     76  O          5.3760  -20.5890    7.5330 O.2   105  ARG105     -0.2867
     77  CB         3.9200  -18.0740    8.0070 C.3   105  ARG105      0.0307
     78  CG         2.9070  -16.9610    7.7870 C.3   105  ARG105      0.0489
     79  CD         3.2230  -15.7470    8.6540 C.3   105  ARG105      0.2205
     80  NE         2.4040  -15.7840    9.8480 N.pl3 105  ARG105     -0.0865
     81  CZ         2.4770  -14.9300   10.8610 C.cat 105  ARG105      0.5346
     82  NH1        3.3560  -13.9380   10.8580 N.pl3 105  ARG105      0.1354
     83  NH2        1.6600  -15.0910   11.8910 N.pl3 105  ARG105      0.1354
     84  N          2.8350  -25.7490   14.9720 N.3   111  TYR111     -0.1241
     85  CA         1.8040  -24.8610   15.4850 C.3   111  TYR111      0.1605
     86  C          0.6940  -25.6280   16.2030 C.2   111  TYR111      0.2264
     87  O          0.2770  -25.2330   17.2900 O.2   111  TYR111     -0.2867
     88  CB         1.2390  -23.9940   14.3450 C.3   111  TYR111      0.0534
     89  CG         0.5290  -22.7320   14.7910 C.ar  111  TYR111     -0.0201
     90  CD1        1.2340  -21.6790   15.3690 C.ar  111  TYR111     -0.0009
     91  CD2       -0.8450  -22.5840   14.6140 C.ar  111  TYR111     -0.0009
     92  CE1        0.5880  -20.5170   15.7790 C.ar  111  TYR111      0.0417
     93  CE2       -1.5140  -21.4100   15.0180 C.ar  111  TYR111      0.0417
     94  CZ        -0.7950  -20.3870   15.5970 C.ar  111  TYR111      0.1957
     95  OH        -1.4400  -19.2340   16.0020 O.3   111  TYR111     -0.2866
     96  N         -0.2760  -24.8280   20.3290 N.3   115  LYS115     -0.1245
     97  CA        -1.6360  -24.4990   20.7370 C.3   115  LYS115      0.1561
     98  C         -2.2370  -25.5740   21.6270 C.2   115  LYS115      0.2260
     99  O         -2.9370  -25.2800   22.5860 O.2   115  LYS115     -0.2867
    100  CB        -2.5360  -24.2470   19.5320 C.3   115  LYS115      0.0271
    101  CG        -2.2540  -22.9370   18.8430 C.3   115  LYS115      0.0035
    102  CD        -3.5220  -22.1320   18.6690 C.3   115  LYS115      0.0206
    103  CE        -3.2020  -20.6730   18.4420 C.3   115  LYS115      0.1093
    104  NZ        -4.3260  -19.8100   18.8660 N.3   115  LYS115     -0.1314
    105  N          8.4290  -13.1170   10.8870 N.3   175  SER175     -0.1202
    106  CA         7.7630  -12.5450   12.0550 C.3   175  SER175      0.2020
    107  C          7.1880  -13.5660   13.0300 C.2   175  SER175      0.2618
    108  O          7.2090  -13.3380   14.2380 O.2   175  SER175     -0.2717
    109  CB         6.6630  -11.5690   11.6160 C.3   175  SER175      0.2103
    110  OG         5.5270  -12.2560   11.1090 O.3   175  SER175     -0.2182
    111  N          6.6840  -14.6890   12.5120 N.am  176  GLU176     -0.1979
    112  CA         6.0260  -15.6880   13.3590 C.3   176  GLU176      0.1602
    113  C          7.0060  -16.4300   14.2660 C.2   176  GLU176      0.2287
    114  O          6.6380  -16.8440   15.3730 O.2   176  GLU176     -0.2864
    115  CB         5.1900  -16.6810   12.5330 C.3   176  GLU176      0.0415
    116  CG         4.1780  -17.4810   13.3820 C.3   176  GLU176      0.1163
    117  CD         3.3400  -18.4720   12.5890 C.2   176  GLU176      0.3649
    118  OE1        2.9460  -18.1510   11.4440 O.co2 176  GLU176     -0.2457
    119  OE2        3.0550  -19.5690   13.1270 O.co2 176  GLU176     -0.2457
    120  N          7.3260  -14.5410   17.3150 N.3   179  ALA179     -0.1245
    121  CA         6.1000  -14.6930   18.1120 C.3   179  ALA179      0.1562
    122  C          6.2260  -15.8110   19.1450 C.2   179  ALA179      0.2260
    123  O          5.7470  -15.6770   20.2790 O.2   179  ALA179     -0.2867
    124  CB         4.8830  -14.9210   17.2120 C.3   179  ALA179      0.0290
@<TRIPOS>BOND
     1    45    44    1
     2    46    44    1
     3    76    75    2
     4    78    77    1
     5    78    79    1
     6    44    41    1
     7    77    74    1
     8    16    15    2
     9    41    40    1
    10    41    42    1
    11    74    75    1
    12    74    73    1
    13    43    42    2
    14    79    80    1
    15    42    47   am
    16    71    70    1
    17    15    17   am
    18    15    14    1
    19    80    81    2
    20    72    70    1
    21    47    48    1
    22    70    67    1
    23    11    10    1
    24    11    14    1
    25    11    12    1
    26    27    28    1
    27    13    12    2
    28    82    81    1
    29    81    83    1
    30   105   106    1
    31    67    68    1
    32    67    66    1
    33    28    29    1
    34    28    31    1
    35    68    69    2
    36   110   109    1
    37    48    49    1
    38    48    51    1
    39    12    18   am
    40    50    49    2
    41   118   117   ar
    42    30    29    2
    43    29    32   am
    44   109   106    1
    45    34    35    2
    46    34    33    1
    47   106   107    1
    48    32    33    1
    49    18    19    1
    50   111   107   am
    51   111   112    1
    52    51    52    1
    53   115   112    1
    54   115   116    1
    55   117   119   ar
    56   117   116    1
    57     3     4    2
    58     3     2    1
    59    20    21    2
    60    20    19    1
    61    33    36    1
    62   107   108    2
    63    19    22    1
    64   112   113    1
    65    52    54   ar
    66    52    53   ar
    67    54    56   ar
    68    36    38    1
    69    36    37    1
    70     2     1    1
    71     2     5    1
    72   113   114    2
    73    88    89    1
    74    88    85    1
    75    53    55   ar
    76    91    89   ar
    77    91    93   ar
    78    22    23    1
    79    89    90   ar
    80    84    85    1
    81    56    55   ar
    82    93    94   ar
    83    37    39    1
    84     5     6    1
    85    90    92   ar
    86    85    86    1
    87    94    92   ar
    88    94    95    1
    89    23    24    1
    90    86    87    2
    91    62    61    1
    92    62    63    1
    93     6     7    1
    94    60    59    2
    95    61    58    1
    96    24    25    1
    97   124   121    1
    98    59    58    1
    99   120   121    1
   100     8     7   ar
   101    63    64   ar
   102    63    65   ar
   103     7     9   ar
   104    58    57    1
   105   121   122    1
   106    25    26    1
   107   103   102    1
   108   103   104    1
   109   102   101    1
   110   101   100    1
   111   122   123    2
   112   100    97    1
   113    96    97    1
   114    97    98    1
   115    98    99    2
