@<TRIPOS>MOLECULE
tmp/4e5jC00.pdb
 164 156 0 0 0
SMALL
GASTEIGER

@<TRIPOS>ATOM
      1  N         -5.1970   -4.3600   23.3560 N.3    24  TYR24      -0.1241
      2  CA        -3.9650   -4.8270   23.9820 C.3    24  TYR24       0.1605
      3  C         -2.8390   -3.8070   23.7900 C.2    24  TYR24       0.2264
      4  O         -1.6590   -4.1200   23.9830 O.2    24  TYR24      -0.2867
      5  CB        -3.5690   -6.2160   23.4570 C.3    24  TYR24       0.0534
      6  CG        -4.3120   -7.3770   24.1140 C.ar   24  TYR24      -0.0201
      7  CD1       -5.3850   -8.0040   23.4690 C.ar   24  TYR24      -0.0009
      8  CD2       -3.9330   -7.8530   25.3780 C.ar   24  TYR24      -0.0009
      9  CE1       -6.0700   -9.0770   24.0660 C.ar   24  TYR24       0.0417
     10  CE2       -4.6080   -8.9250   25.9840 C.ar   24  TYR24       0.0417
     11  CZ        -5.6740   -9.5320   25.3230 C.ar   24  TYR24       0.1957
     12  OH        -6.3420  -10.5850   25.9180 O.3    24  TYR24      -0.2866
     13  N          1.8250   -8.1830   12.3680 N.3    34  LYS34      -0.1245
     14  CA         0.8150   -8.6610   13.3070 C.3    34  LYS34       0.1561
     15  C         -0.5910   -8.2430   12.8550 C.2    34  LYS34       0.2260
     16  O         -1.5300   -9.0340   12.8990 O.2    34  LYS34      -0.2867
     17  CB         1.1010   -8.1570   14.7220 C.3    34  LYS34       0.0271
     18  CG         0.1160   -8.6570   15.7660 C.3    34  LYS34       0.0035
     19  CD         0.6080   -8.3500   17.1700 C.3    34  LYS34       0.0206
     20  CE        -0.4090   -8.8290   18.1930 C.3    34  LYS34       0.1093
     21  NZ         0.2600   -9.1080   19.5000 N.3    34  LYS34      -0.1314
     22  N         -6.4090  -14.2350   10.1920 N.3    41  HIS41      -0.1241
     23  CA        -7.0450  -15.1210   11.1540 C.3    41  HIS41       0.1621
     24  C         -8.5310  -14.7820   11.2720 C.2    41  HIS41       0.2264
     25  O         -9.3940  -15.6640   11.2240 O.2    41  HIS41      -0.2867
     26  CB        -6.3520  -15.0370   12.5330 C.3    41  HIS41       0.0745
     27  CG        -7.0210  -15.8600   13.5990 C.ar   41  HIS41       0.0817
     28  ND1       -7.8950  -15.3240   14.5160 N.ar   41  HIS41      -0.2268
     29  CD2       -6.9270  -17.1750   13.9040 C.ar   41  HIS41       0.1154
     30  CE1       -8.3200  -16.2700   15.3330 C.ar   41  HIS41       0.1986
     31  NE2       -7.7430  -17.4060   14.9870 N.ar   41  HIS41      -0.2212
     32  N        -14.6900  -15.3410   18.4120 N.3    61  GLU61      -0.1245
     33  CA       -13.6430  -14.4390   17.9690 C.3    61  GLU61       0.1567
     34  C        -14.2320  -13.1920   17.2840 C.2    61  GLU61       0.2260
     35  O        -15.2870  -13.2580   16.6360 O.2    61  GLU61      -0.2867
     36  CB       -12.7020  -15.1840   17.0040 C.3    61  GLU61       0.0388
     37  CG       -11.5370  -14.3590   16.4260 C.3    61  GLU61       0.1160
     38  CD       -10.4950  -13.9770   17.4750 C.2    61  GLU61       0.3649
     39  OE1       -9.5570  -14.7800   17.7590 O.co2  61  GLU61      -0.2457
     40  OE2      -10.6260  -12.8640   18.0190 O.co2  61  GLU61      -0.2457
     41  N        -10.1900  -18.1750   25.6570 N.3    87  LEU87      -0.1231
     42  CA       -11.2040  -17.8680   24.6380 C.3    87  LEU87       0.1678
     43  C        -10.9500  -18.6180   23.3290 C.2    87  LEU87       0.2434
     44  O         -9.9670  -18.3680   22.6560 O.2    87  LEU87      -0.2733
     45  CB       -11.2830  -16.3640   24.3560 C.3    87  LEU87       0.0284
     46  CG       -12.0800  -15.4490   25.2850 C.3    87  LEU87       0.0019
     47  CD1      -12.0450  -14.0290   24.7360 C.3    87  LEU87       0.0001
     48  CD2      -13.5390  -15.9280   25.4430 C.3    87  LEU87       0.0001
     49  N        -11.8410  -19.5520   22.9730 N.am   88  PRO88      -0.2718
     50  CA       -11.7590  -20.1790   21.6460 C.3    88  PRO88       0.1535
     51  C        -12.2580  -19.2540   20.5390 C.2    88  PRO88       0.2598
     52  O        -12.6050  -18.0950   20.7940 O.2    88  PRO88      -0.2715
     53  CB       -12.6760  -21.3950   21.7790 C.3    88  PRO88       0.0310
     54  CG       -13.6620  -21.0020   22.8470 C.3    88  PRO88       0.0237
     55  CD       -12.9680  -20.0630   23.7740 C.3    88  PRO88       0.0939
     56  N        -12.3050  -19.7630   19.3200 N.am   89  ASP89      -0.1972
     57  CA       -12.7330  -18.9460   18.2000 C.3    89  ASP89       0.1709
     58  C        -14.2120  -19.1250   17.8820 C.2    89  ASP89       0.2293
     59  O        -14.8590  -18.1870   17.4540 O.2    89  ASP89      -0.2864
     60  CB       -11.8680  -19.2290   16.9710 C.3    89  ASP89       0.1436
     61  CG       -10.4190  -18.8080   17.1770 C.2    89  ASP89       0.3671
     62  OD1      -10.2030  -17.6660   17.6290 O.co2  89  ASP89      -0.2456
     63  OD2       -9.4990  -19.6080   16.8810 O.co2  89  ASP89      -0.2456
     64  N        -10.8200  -24.0390   18.2640 N.3   100  GLU100     -0.1231
     65  CA        -9.7330  -23.0790   18.1680 C.3   100  GLU100      0.1699
     66  C         -9.1720  -23.1680   16.7850 C.2   100  GLU100      0.2592
     67  O         -8.8580  -24.2530   16.3170 O.2   100  GLU100     -0.2718
     68  CB        -8.6170  -23.4000   19.1580 C.3   100  GLU100      0.0402
     69  CG        -7.3520  -22.5660   18.9450 C.3   100  GLU100      0.1161
     70  CD        -7.6080  -21.0920   19.1530 C.2   100  GLU100      0.3649
     71  OE1       -7.0690  -20.2620   18.3890 O.co2 100  GLU100     -0.2457
     72  OE2       -8.3900  -20.7760   20.0790 O.co2 100  GLU100     -0.2457
     73  N         -9.0320  -22.0260   16.1350 N.am  101  ILE101     -0.1966
     74  CA        -8.5560  -21.9850   14.7770 C.3   101  ILE101      0.1727
     75  C         -7.2060  -21.3150   14.7490 C.2   101  ILE101      0.2616
     76  O         -7.0240  -20.2490   15.3290 O.2   101  ILE101     -0.2715
     77  CB        -9.5800  -21.3080   13.8490 C.3   101  ILE101      0.0290
     78  CG1      -10.7100  -22.3140   13.5820 C.3   101  ILE101      0.0022
     79  CG2       -8.9190  -20.8520   12.5450 C.3   101  ILE101      0.0023
     80  CD1      -11.8000  -21.8340   12.7180 C.3   101  ILE101      0.0001
     81  N         -6.2470  -21.9650   14.0970 N.am  102  GLY102     -0.1955
     82  CA        -4.9140  -21.3940   13.9570 C.3   102  GLY102      0.1869
     83  C         -4.5580  -21.2340   12.5140 C.2   102  GLY102      0.2309
     84  O         -5.0120  -22.0000   11.6770 O.2   102  GLY102     -0.2863
     85  N          2.3650  -19.5160    9.2260 N.3   105  ARG105     -0.1231
     86  CA         3.3240  -19.4760    8.1320 C.3   105  ARG105      0.1694
     87  C          4.4600  -20.4940    8.3560 C.2   105  ARG105      0.2591
     88  O          5.3760  -20.5890    7.5330 O.2   105  ARG105     -0.2718
     89  CB         3.9200  -18.0740    8.0070 C.3   105  ARG105      0.0321
     90  CG         2.9070  -16.9610    7.7870 C.3   105  ARG105      0.0489
     91  CD         3.2230  -15.7470    8.6540 C.3   105  ARG105      0.2205
     92  NE         2.4040  -15.7840    9.8480 N.pl3 105  ARG105     -0.0865
     93  CZ         2.4770  -14.9300   10.8610 C.cat 105  ARG105      0.5346
     94  NH1        3.3560  -13.9380   10.8580 N.pl3 105  ARG105      0.1354
     95  NH2        1.6600  -15.0910   11.8910 N.pl3 105  ARG105      0.1354
     96  N          4.3880  -21.1990    9.4810 N.am  106  ARG106     -0.1980
     97  CA         5.3300  -22.2480    9.8560 C.3   106  ARG106      0.1597
     98  C          4.6290  -23.5890    9.6870 C.2   106  ARG106      0.2287
     99  O          3.5240  -23.6480    9.1710 O.2   106  ARG106     -0.2864
    100  CB         5.7590  -22.1210   11.3150 C.3   106  ARG106      0.0334
    101  CG         6.5210  -20.8510   11.6340 C.3   106  ARG106      0.0492
    102  CD         6.9620  -20.8440   13.0830 C.3   106  ARG106      0.2205
    103  NE         5.8340  -21.0060   13.9900 N.pl3 106  ARG106     -0.0865
    104  CZ         5.9110  -21.5770   15.1860 C.cat 106  ARG106      0.5346
    105  NH1        7.0640  -22.0530   15.6240 N.pl3 106  ARG106      0.1354
    106  NH2        4.8290  -21.6790   15.9400 N.pl3 106  ARG106      0.1354
    107  N          2.8350  -25.7490   14.9720 N.3   111  TYR111     -0.1241
    108  CA         1.8040  -24.8610   15.4850 C.3   111  TYR111      0.1605
    109  C          0.6940  -25.6280   16.2030 C.2   111  TYR111      0.2264
    110  O          0.2770  -25.2330   17.2900 O.2   111  TYR111     -0.2867
    111  CB         1.2390  -23.9940   14.3450 C.3   111  TYR111      0.0534
    112  CG         0.5290  -22.7320   14.7910 C.ar  111  TYR111     -0.0201
    113  CD1        1.2340  -21.6790   15.3690 C.ar  111  TYR111     -0.0009
    114  CD2       -0.8450  -22.5840   14.6140 C.ar  111  TYR111     -0.0009
    115  CE1        0.5880  -20.5170   15.7790 C.ar  111  TYR111      0.0417
    116  CE2       -1.5140  -21.4100   15.0180 C.ar  111  TYR111      0.0417
    117  CZ        -0.7950  -20.3870   15.5970 C.ar  111  TYR111      0.1957
    118  OH        -1.4400  -19.2340   16.0020 O.3   111  TYR111     -0.2866
    119  N          1.9860  -26.4670   19.8330 N.3   114  GLU114     -0.1231
    120  CA         2.0780  -25.3000   20.7130 C.3   114  GLU114      0.1699
    121  C          0.6920  -24.9260   21.2300 C.2   114  GLU114      0.2592
    122  O          0.4880  -24.7130   22.4230 O.2   114  GLU114     -0.2718
    123  CB         2.6420  -24.1090   19.9620 C.3   114  GLU114      0.0402
    124  CG         3.9860  -24.3350   19.3310 C.3   114  GLU114      0.1161
    125  CD         4.4810  -23.1150   18.5760 C.2   114  GLU114      0.3649
    126  OE1        5.6650  -23.1130   18.1640 O.co2 114  GLU114     -0.2457
    127  OE2        3.6880  -22.1530   18.3960 O.co2 114  GLU114     -0.2457
    128  N         -0.2760  -24.8280   20.3290 N.am  115  LYS115     -0.1980
    129  CA        -1.6360  -24.4990   20.7370 C.3   115  LYS115      0.1596
    130  C         -2.2370  -25.5740   21.6270 C.2   115  LYS115      0.2287
    131  O         -2.9370  -25.2800   22.5860 O.2   115  LYS115     -0.2864
    132  CB        -2.5360  -24.2470   19.5320 C.3   115  LYS115      0.0298
    133  CG        -2.2540  -22.9370   18.8430 C.3   115  LYS115      0.0038
    134  CD        -3.5220  -22.1320   18.6690 C.3   115  LYS115      0.0206
    135  CE        -3.2020  -20.6730   18.4420 C.3   115  LYS115      0.1093
    136  NZ        -4.3260  -19.8100   18.8660 N.3   115  LYS115     -0.1314
    137  N         -0.5290  -25.5240   25.0980 N.3   118  LYS118     -0.1245
    138  CA        -0.9190  -24.2450   25.7030 C.3   118  LYS118      0.1561
    139  C         -2.3050  -24.2340   26.3590 C.2   118  LYS118      0.2260
    140  O         -2.4790  -23.7510   27.4720 O.2   118  LYS118     -0.2867
    141  CB        -0.8370  -23.1330   24.6610 C.3   118  LYS118      0.0271
    142  CG        -1.5910  -21.8790   25.0310 C.3   118  LYS118      0.0035
    143  CD        -1.5740  -20.8800   23.8890 C.3   118  LYS118      0.0206
    144  CE        -2.3780  -19.6390   24.2340 C.3   118  LYS118      0.1093
    145  NZ        -2.3320  -18.6240   23.1480 N.3   118  LYS118     -0.1314
    146  N          6.6840  -14.6890   12.5120 N.3   176  GLU176     -0.1245
    147  CA         6.0260  -15.6880   13.3590 C.3   176  GLU176      0.1567
    148  C          7.0060  -16.4300   14.2660 C.2   176  GLU176      0.2260
    149  O          6.6380  -16.8440   15.3730 O.2   176  GLU176     -0.2867
    150  CB         5.1900  -16.6810   12.5330 C.3   176  GLU176      0.0388
    151  CG         4.1780  -17.4810   13.3820 C.3   176  GLU176      0.1160
    152  CD         3.3400  -18.4720   12.5890 C.2   176  GLU176      0.3649
    153  OE1        2.9460  -18.1510   11.4440 O.co2 176  GLU176     -0.2457
    154  OE2        3.0550  -19.5690   13.1270 O.co2 176  GLU176     -0.2457
    155  N          7.3260  -14.5410   17.3150 N.3   179  ALA179     -0.1231
    156  CA         6.1000  -14.6930   18.1120 C.3   179  ALA179      0.1694
    157  C          6.2260  -15.8110   19.1450 C.2   179  ALA179      0.2591
    158  O          5.7470  -15.6770   20.2790 O.2   179  ALA179     -0.2718
    159  CB         4.8830  -14.9210   17.2120 C.3   179  ALA179      0.0304
    160  N          6.8700  -16.9070   18.7480 N.am  180  ALA180     -0.1980
    161  CA         7.2690  -17.9490   19.6890 C.3   180  ALA180      0.1597
    162  C          8.4180  -17.4380   20.5680 C.2   180  ALA180      0.2287
    163  O          8.3020  -17.4020   21.8000 O.2   180  ALA180     -0.2864
    164  CB         7.6840  -19.2100   18.9370 C.3   180  ALA180      0.0319
@<TRIPOS>BOND
     1    88    87    2
     2    90    89    1
     3    90    91    1
     4    89    86    1
     5    86    87    1
     6    86    85    1
     7    87    96   am
     8    91    92    1
     9    99    98    2
    10    96    97    1
    11    98    97    1
    12    92    93    2
    13    97   100    1
    14    22    23    1
    15    94    93    1
    16    93    95    1
    17    23    24    1
    18    23    26    1
    19    25    24    2
    20   100   101    1
    21   153   152   ar
    22   101   102    1
    23    84    83    2
    24    13    14    1
    25   146   147    1
    26    83    82    1
    27    26    27    1
    28   150   147    1
    29   150   151    1
    30    79    77    1
    31   152   154   ar
    32   152   151    1
    33    80    78    1
    34    15    16    2
    35    15    14    1
    36   102   103    1
    37    14    17    1
    38   147   148    1
    39    78    77    1
    40    27    29   ar
    41    27    28   ar
    42    77    74    1
    43    29    31   ar
    44    82    81    1
    45   103   104    2
    46    81    75   am
    47   148   149    2
    48   111   112    1
    49   111   108    1
    50    28    30   ar
    51   114   112   ar
    52   114   116   ar
    53    17    18    1
    54    75    74    1
    55    75    76    2
    56    74    73    1
    57   112   113   ar
    58   107   108    1
    59    31    30   ar
    60   116   117   ar
    61   104   105    1
    62   104   106    1
    63   113   115   ar
    64   108   109    1
    65   117   115   ar
    66   117   118    1
    67    18    19    1
    68    73    66   am
    69   109   110    2
    70    67    66    2
    71    37    36    1
    72    37    38    1
    73    35    34    2
    74    66    65    1
    75    63    61   ar
    76    60    61    1
    77    60    57    1
    78    36    33    1
    79    19    20    1
    80    61    62   ar
    81   159   156    1
    82    34    33    1
    83   155   156    1
    84    59    58    2
    85    38    39   ar
    86    38    40   ar
    87    58    57    1
    88    33    32    1
    89   156   157    1
    90   126   125   ar
    91    65    64    1
    92    65    68    1
    93    20    21    1
    94    57    56    1
    95    71    70   ar
    96   127   125   ar
    97   135   134    1
    98   135   136    1
    99   125   124    1
   100   134   133    1
   101   160   157   am
   102   160   161    1
   103   133   132    1
   104   164   161    1
   105    69    70    1
   106    69    68    1
   107   157   158    2
   108    70    72   ar
   109    56    51   am
   110   124   123    1
   111   132   129    1
   112   161   162    1
   113   119   120    1
   114   123   120    1
   115   128   129    1
   116   128   121   am
   117    51    52    2
   118    51    50    1
   119   162   163    2
   120   120   121    1
   121   129   130    1
   122   121   122    2
   123   130   131    2
   124    50    53    1
   125    50    49    1
   126    53    54    1
   127    44    43    2
   128    54    55    1
   129    49    43   am
   130    49    55    1
   131   145   144    1
   132    43    42    1
   133     1     2    1
   134     5     2    1
   135     5     6    1
   136     7     9   ar
   137     7     6   ar
   138     3     2    1
   139     3     4    2
   140   143   144    1
   141   143   142    1
   142     9    11   ar
   143     6     8   ar
   144    45    42    1
   145    45    46    1
   146    42    41    1
   147   141   142    1
   148   141   138    1
   149    47    46    1
   150   137   138    1
   151    46    48    1
   152    11    12    1
   153    11    10   ar
   154     8    10   ar
   155   138   139    1
   156   139   140    2
