@<TRIPOS>MOLECULE
tmp/4e5lD00.pdb
 112 108 0 0 0
SMALL
GASTEIGER

@<TRIPOS>ATOM
      1  N        -53.9370   -4.4890   26.1060 N.3    24  TYR24      -0.1241
      2  CA       -54.5090   -5.0260   27.3460 C.3    24  TYR24       0.1605
      3  C        -54.5470   -3.9910   28.4630 C.2    24  TYR24       0.2264
      4  O        -55.1740   -4.2110   29.5040 O.2    24  TYR24      -0.2867
      5  CB       -53.7640   -6.2900   27.8080 C.3    24  TYR24       0.0534
      6  CG       -54.1140   -7.5430   27.0200 C.ar   24  TYR24      -0.0201
      7  CD1      -53.2700   -8.0160   26.0160 C.ar   24  TYR24      -0.0009
      8  CD2      -55.2910   -8.2560   27.2830 C.ar   24  TYR24      -0.0009
      9  CE1      -53.5870   -9.1620   25.2880 C.ar   24  TYR24       0.0417
     10  CE2      -55.6180   -9.4080   26.5600 C.ar   24  TYR24       0.0417
     11  CZ       -54.7610   -9.8530   25.5640 C.ar   24  TYR24       0.1957
     12  OH       -55.0710  -10.9870   24.8440 O.3    24  TYR24      -0.2866
     13  N        -40.5210  -13.8500   24.4340 N.3    41  HIS41      -0.1241
     14  CA       -41.4210  -14.8370   23.8360 C.3    41  HIS41       0.1621
     15  C        -41.5400  -14.6740   22.3120 C.2    41  HIS41       0.2264
     16  O        -41.4360  -15.6630   21.5630 O.2    41  HIS41      -0.2867
     17  CB       -42.7830  -14.8060   24.5390 C.3    41  HIS41       0.0745
     18  CG       -43.8010  -15.7160   23.9300 C.ar   41  HIS41       0.0817
     19  ND1      -44.7650  -15.2720   23.0560 N.ar   41  HIS41      -0.2268
     20  CD2      -44.0210  -17.0410   24.0810 C.ar   41  HIS41       0.1154
     21  CE1      -45.5260  -16.2830   22.6830 C.ar   41  HIS41       0.1986
     22  NE2      -45.0890  -17.3730   23.2820 N.ar   41  HIS41      -0.2212
     23  N        -48.1070  -15.7270   16.0010 N.3    61  GLU61      -0.1245
     24  CA       -47.7490  -14.7490   17.0170 C.3    61  GLU61       0.1567
     25  C        -47.2510  -13.4520   16.3900 C.2    61  GLU61       0.2260
     26  O        -46.7000  -13.4580   15.2930 O.2    61  GLU61      -0.2867
     27  CB       -46.6860  -15.3310   17.9490 C.3    61  GLU61       0.0388
     28  CG       -46.2790  -14.4120   19.0810 C.3    61  GLU61       0.1160
     29  CD       -47.4440  -14.0350   19.9630 C.2    61  GLU61       0.3649
     30  OE1      -48.0800  -14.9450   20.5280 O.co2  61  GLU61      -0.2457
     31  OE2      -47.7260  -12.8290   20.0920 O.co2  61  GLU61      -0.2457
     32  N        -55.4450  -18.6390   20.9320 N.3    87  LEU87      -0.1231
     33  CA       -54.5380  -18.4190   19.8360 C.3    87  LEU87       0.1678
     34  C        -53.2570  -19.1770   20.0810 C.2    87  LEU87       0.2434
     35  O        -52.6140  -18.9960   21.1190 O.2    87  LEU87      -0.2733
     36  CB       -54.2290  -16.9440   19.6610 C.3    87  LEU87       0.0284
     37  CG       -55.1580  -16.0390   18.8460 C.3    87  LEU87       0.0019
     38  CD1      -54.5430  -14.6360   18.8590 C.3    87  LEU87       0.0001
     39  CD2      -55.3900  -16.5270   17.3990 C.3    87  LEU87       0.0001
     40  N        -52.8760  -20.0330   19.1210 N.am   88  PRO88      -0.2718
     41  CA       -51.5880  -20.6970   19.1800 C.3    88  PRO88       0.1535
     42  C        -50.4980  -19.7210   18.7150 C.2    88  PRO88       0.2598
     43  O        -50.8090  -18.5650   18.3840 O.2    88  PRO88      -0.2715
     44  CB       -51.7490  -21.8530   18.1920 C.3    88  PRO88       0.0310
     45  CG       -52.9210  -21.4880   17.3130 C.3    88  PRO88       0.0237
     46  CD       -53.5670  -20.2610   17.8420 C.3    88  PRO88       0.0939
     47  N        -49.2440  -20.1780   18.6910 N.am   89  ASP89      -0.1972
     48  CA       -48.1320  -19.3340   18.2660 C.3    89  ASP89       0.1709
     49  C        -47.6970  -19.5560   16.8080 C.2    89  ASP89       0.2293
     50  O        -47.2140  -18.6320   16.1590 O.2    89  ASP89      -0.2864
     51  CB       -46.9460  -19.5430   19.1830 C.3    89  ASP89       0.1436
     52  CG       -47.2170  -19.0800   20.5750 C.2    89  ASP89       0.3671
     53  OD1      -47.4520  -17.8790   20.7480 O.co2  89  ASP89      -0.2456
     54  OD2      -47.1900  -19.9120   21.5050 O.co2  89  ASP89      -0.2456
     55  N        -47.9400  -24.3780   20.4680 N.3   100  GLU100     -0.1231
     56  CA       -47.9530  -23.3630   21.4980 C.3   100  GLU100      0.1699
     57  C        -46.5640  -23.3690   22.0950 C.2   100  GLU100      0.2592
     58  O        -46.0470  -24.4120   22.4990 O.2   100  GLU100     -0.2718
     59  CB       -49.0390  -23.6580   22.5380 C.3   100  GLU100      0.0402
     60  CG       -49.0790  -22.7390   23.7600 C.3   100  GLU100      0.1161
     61  CD       -49.0380  -21.2400   23.4510 C.2   100  GLU100      0.3649
     62  OE1      -48.1690  -20.5600   24.0180 O.co2 100  GLU100     -0.2457
     63  OE2      -49.8620  -20.7320   22.6580 O.co2 100  GLU100     -0.2457
     64  N        -45.9440  -22.1970   22.1130 N.am  101  ILE101     -0.1966
     65  CA       -44.5790  -22.0770   22.5490 C.3   101  ILE101      0.1727
     66  C        -44.5820  -21.4390   23.9150 C.2   101  ILE101      0.2617
     67  O        -45.2330  -20.4270   24.1100 O.2   101  ILE101     -0.2715
     68  CB       -43.7660  -21.2640   21.5210 C.3   101  ILE101      0.0290
     69  CG1      -43.4910  -22.1340   20.2840 C.3   101  ILE101      0.0022
     70  CG2      -42.4390  -20.7500   22.1140 C.3   101  ILE101      0.0023
     71  CD1      -43.0030  -21.3700   19.1030 C.3   101  ILE101      0.0001
     72  N        -43.8680  -22.0220   24.8710 N.am  102  GLY102     -0.1940
     73  CA       -43.7780  -21.4040   26.1900 C.3   102  GLY102      0.2014
     74  C        -42.3650  -21.0280   26.5490 C.2   102  GLY102      0.2638
     75  O        -41.4270  -21.7310   26.1890 O.2   102  GLY102     -0.2714
     76  N        -42.2050  -19.9150   27.2550 N.am  103  VAL103     -0.1977
     77  CA       -40.8990  -19.5190   27.7540 C.3   103  VAL103      0.1596
     78  C        -41.0640  -19.1700   29.2190 C.2   103  VAL103      0.2287
     79  O        -41.8800  -18.3090   29.5600 O.2   103  VAL103     -0.2864
     80  CB       -40.3080  -18.3010   26.9740 C.3   103  VAL103      0.0276
     81  CG1      -39.1270  -17.7270   27.7010 C.3   103  VAL103      0.0022
     82  CG2      -39.8970  -18.6930   25.5510 C.3   103  VAL103      0.0022
     83  N        -44.8410  -25.4080   34.5880 N.3   111  TYR111     -0.1241
     84  CA       -45.2660  -24.5400   33.4940 C.3   111  TYR111      0.1605
     85  C        -45.9000  -25.3400   32.3580 C.2   111  TYR111      0.2264
     86  O        -46.9740  -24.9590   31.8730 O.2   111  TYR111     -0.2867
     87  CB       -44.1260  -23.6290   33.0000 C.3   111  TYR111      0.0534
     88  CG       -44.5990  -22.5410   32.0530 C.ar  111  TYR111     -0.0201
     89  CD1      -45.3400  -21.4570   32.5270 C.ar  111  TYR111     -0.0009
     90  CD2      -44.3120  -22.5970   30.6860 C.ar  111  TYR111     -0.0009
     91  CE1      -45.7870  -20.4650   31.6750 C.ar  111  TYR111      0.0417
     92  CE2      -44.7480  -21.5880   29.8140 C.ar  111  TYR111      0.0417
     93  CZ       -45.4910  -20.5350   30.3220 C.ar  111  TYR111      0.1957
     94  OH       -45.9480  -19.5410   29.4980 O.3   111  TYR111     -0.2866
     95  N        -49.9660  -24.9660   30.9550 N.3   115  LYS115     -0.1245
     96  CA       -50.2250  -24.8280   29.5290 C.3   115  LYS115      0.1561
     97  C        -50.9790  -26.0020   28.9110 C.2   115  LYS115      0.2260
     98  O        -51.8820  -25.8060   28.1080 O.2   115  LYS115     -0.2867
     99  CB       -48.9380  -24.5340   28.7600 C.3   115  LYS115      0.0271
    100  CG       -48.5370  -23.0720   28.8200 C.3   115  LYS115      0.0035
    101  CD       -47.6270  -22.6910   27.6770 C.3   115  LYS115      0.0206
    102  CE       -47.5130  -21.1900   27.5610 C.3   115  LYS115      0.1093
    103  NZ       -48.8460  -20.5810   27.3460 N.3   115  LYS115     -0.1314
    104  N        -54.4680  -25.6800   30.1950 N.3   118  LYS118     -0.1245
    105  CA       -55.1550  -24.4780   29.6870 C.3   118  LYS118      0.1561
    106  C        -55.8780  -24.7420   28.3550 C.2   118  LYS118      0.2260
    107  O        -57.0220  -24.3250   28.1570 O.2   118  LYS118     -0.2867
    108  CB       -54.1860  -23.2910   29.5390 C.3   118  LYS118      0.0271
    109  CG       -54.8630  -21.9730   29.1430 C.3   118  LYS118      0.0035
    110  CD       -53.8780  -20.8750   28.7250 C.3   118  LYS118      0.0206
    111  CE       -54.6340  -19.6230   28.2280 C.3   118  LYS118      0.1093
    112  NZ       -53.7550  -18.5560   27.6420 N.3   118  LYS118     -0.1314
@<TRIPOS>BOND
     1    26    25    2
     2    23    24    1
     3    50    49    2
     4    25    24    1
     5    49    48    1
     6    24    27    1
     7    45    46    1
     8    45    44    1
     9    39    37    1
    10    46    40    1
    11    27    28    1
    12    44    41    1
    13    48    47    1
    14    48    51    1
    15    43    42    2
    16    47    42   am
    17    42    41    1
    18    37    38    1
    19    37    36    1
    20    28    29    1
    21    71    69    1
    22    40    41    1
    23    40    34   am
    24    51    52    1
    25    36    33    1
    26    33    34    1
    27    33    32    1
    28    29    31   ar
    29    29    30   ar
    30    34    35    2
    31    69    68    1
    32    55    56    1
    33    52    53   ar
    34    52    54   ar
    35    56    57    1
    36    56    59    1
    37    68    70    1
    38    68    65    1
    39    16    15    2
    40    57    64   am
    41    57    58    2
    42    64    65    1
    43    15    14    1
    44    59    60    1
    45    65    66    1
    46    63    61   ar
    47    21    19   ar
    48    21    22   ar
    49    19    18   ar
    50    22    20   ar
    51    61    60    1
    52    61    62   ar
    53    14    13    1
    54    14    17    1
    55    66    67    2
    56    66    72   am
    57    18    20   ar
    58    18    17    1
    59    12    11    1
    60    72    73    1
    61     9    11   ar
    62     9     7   ar
    63    82    80    1
    64    11    10   ar
    65     7     6   ar
    66     1     2    1
    67    75    74    2
    68    73    74    1
    69    74    76   am
    70    10     8   ar
    71    80    81    1
    72    80    77    1
    73     6     8   ar
    74     6     5    1
    75    76    77    1
    76   103   102    1
    77     2     5    1
    78     2     3    1
    79   102   101    1
    80   112   111    1
    81   101   100    1
    82    77    78    1
    83    98    97    2
    84   107   106    2
    85   111   110    1
    86   106   105    1
    87     3     4    2
    88   110   109    1
    89    99   100    1
    90    99    96    1
    91    97    96    1
    92   109   108    1
    93    78    79    2
    94    94    93    1
    95    96    95    1
    96   108   105    1
    97   105   104    1
    98    92    93   ar
    99    92    90   ar
   100    93    91   ar
   101    90    88   ar
   102    91    89   ar
   103    86    85    2
   104    88    89   ar
   105    88    87    1
   106    85    84    1
   107    87    84    1
   108    84    83    1
