@<TRIPOS>MOLECULE
tmp/4e5oF01.pdb
 162 157 0 0 0
SMALL
GASTEIGER

@<TRIPOS>ATOM
      1  N         84.5570  -32.9120  -14.2080 N.3    25  THR25      -0.1218
      2  CA        85.2190  -32.2170  -13.0770 C.3    25  THR25       0.1862
      3  C         85.1160  -32.9790  -11.7700 C.2    25  THR25       0.2287
      4  O         86.1450  -33.4020  -11.2210 O.2    25  THR25      -0.2866
      5  CB        84.7820  -30.7260  -12.8160 C.3    25  THR25       0.1770
      6  OG1       83.3930  -30.6490  -12.4450 O.3    25  THR25      -0.2211
      7  CG2       85.1070  -29.8020  -14.0070 C.3    25  THR25       0.0375
      8  N         95.4560  -12.5210  -22.8300 N.3    61  GLU61      -0.1245
      9  CA        95.3310  -13.8600  -23.4100 C.3    61  GLU61       0.1567
     10  C         95.2040  -13.7970  -24.9330 C.2    61  GLU61       0.2260
     11  O         95.8370  -14.5480  -25.6430 O.2    61  GLU61      -0.2867
     12  CB        94.1690  -14.6110  -22.7610 C.3    61  GLU61       0.0388
     13  CG        93.9980  -16.0430  -23.4230 C.3    61  GLU61       0.1160
     14  CD        92.7370  -16.6880  -23.0270 C.2    61  GLU61       0.3649
     15  OE1       91.7180  -16.0840  -23.3080 O.co2  61  GLU61      -0.2457
     16  OE2       92.7530  -17.8010  -22.4660 O.co2  61  GLU61      -0.2457
     17  N         97.6420  -15.5130  -27.7620 N.3    65  PHE65      -0.1241
     18  CA        97.2290  -16.3590  -28.8920 C.3    65  PHE65       0.1605
     19  C         97.8170  -15.8640  -30.2140 C.2    65  PHE65       0.2264
     20  O         98.3170  -16.6620  -31.0640 O.2    65  PHE65      -0.2867
     21  CB        95.6940  -16.3830  -29.0890 C.3    65  PHE65       0.0534
     22  CG        94.9060  -17.0790  -27.9890 C.ar   65  PHE65      -0.0203
     23  CD1       95.4240  -18.1190  -27.2680 C.ar   65  PHE65      -0.0042
     24  CD2       93.6180  -16.6900  -27.7280 C.ar   65  PHE65      -0.0042
     25  CE1       94.6900  -18.7620  -26.2890 C.ar   65  PHE65      -0.0003
     26  CE2       92.8780  -17.3310  -26.7540 C.ar   65  PHE65      -0.0003
     27  CZ        93.4300  -18.3400  -26.0100 C.ar   65  PHE65      -0.0000
     28  N         95.7480  -17.9150  -15.9500 N.3    82  ILE82      -0.1231
     29  CA        94.6060  -18.7700  -16.2730 C.3    82  ILE82       0.1692
     30  C         95.0660  -20.1220  -16.8470 C.2    82  ILE82       0.2592
     31  O         94.3850  -21.1360  -16.6560 O.2    82  ILE82      -0.2718
     32  CB        93.5300  -18.0190  -17.1360 C.3    82  ILE82       0.0266
     33  CG1       94.0890  -17.4850  -18.4550 C.3    82  ILE82       0.0019
     34  CG2       92.8510  -16.8660  -16.3300 C.3    82  ILE82       0.0020
     35  CD1       93.2800  -16.2850  -19.0220 C.3    82  ILE82       0.0001
     36  N         96.2170  -20.1500  -17.5120 N.am   83  TRP83      -0.1976
     37  CA        96.7370  -21.3970  -18.1240 C.3    83  TRP83       0.1640
     38  C         97.8530  -22.0860  -17.2850 C.2    83  TRP83       0.2290
     39  O         98.4470  -23.0840  -17.7020 O.2    83  TRP83      -0.2864
     40  CB        97.2730  -21.1140  -19.5190 C.3    83  TRP83       0.0576
     41  CG        96.2310  -20.8270  -20.5520 C.ar   83  TRP83       0.0006
     42  CD1       95.6790  -19.5980  -20.8710 C.ar   83  TRP83       0.0946
     43  CD2       95.6170  -21.7870  -21.4290 C.ar   83  TRP83       0.0152
     44  NE1       94.7490  -19.7460  -21.8960 N.ar   83  TRP83      -0.2442
     45  CE2       94.6880  -21.0800  -22.2470 C.ar   83  TRP83       0.0810
     46  CE3       95.7640  -23.1760  -21.6020 C.ar   83  TRP83       0.0012
     47  CZ2       93.9330  -21.7210  -23.2530 C.ar   83  TRP83       0.0191
     48  CZ3       94.9920  -23.8150  -22.5910 C.ar   83  TRP83       0.0001
     49  CH2       94.0910  -23.0750  -23.3960 C.ar   83  TRP83       0.0015
     50  N         97.3890  -25.9160  -15.9300 N.3    86  ASN86      -0.1240
     51  CA        97.4750  -26.7020  -17.1530 C.3    86  ASN86       0.1653
     52  C         98.8910  -26.8480  -17.7270 C.2    86  ASN86       0.2266
     53  O         99.1670  -27.7950  -18.4800 O.2    86  ASN86      -0.2867
     54  CB        96.5030  -26.1320  -18.1900 C.3    86  ASN86       0.1155
     55  CG        95.0450  -26.4380  -17.8390 C.2    86  ASN86       0.2627
     56  OD1       94.2240  -25.5380  -17.6460 O.2    86  ASN86      -0.2716
     57  ND2       94.7320  -27.7270  -17.7370 N.am   86  ASN86      -0.0877
     58  N         95.5730  -22.9720  -28.8430 N.3   109  TYR109     -0.1241
     59  CA        94.9640  -22.0330  -29.7950 C.3   109  TYR109      0.1605
     60  C         95.9810  -21.3540  -30.6700 C.2   109  TYR109      0.2264
     61  O         95.8940  -21.3470  -31.9190 O.2   109  TYR109     -0.2867
     62  CB        94.1260  -20.9390  -29.0880 C.3   109  TYR109      0.0534
     63  CG        92.8360  -21.4550  -28.4460 C.ar  109  TYR109     -0.0201
     64  CD1       91.7350  -21.7780  -29.2240 C.ar  109  TYR109     -0.0009
     65  CD2       92.7370  -21.5980  -27.0770 C.ar  109  TYR109     -0.0009
     66  CE1       90.5830  -22.2300  -28.6570 C.ar  109  TYR109      0.0417
     67  CE2       91.5990  -22.0550  -26.4920 C.ar  109  TYR109      0.0417
     68  CZ        90.5260  -22.3820  -27.2780 C.ar  109  TYR109      0.1957
     69  OH        89.3950  -22.7920  -26.6420 O.3   109  TYR109     -0.2866
     70  N         94.7730  -29.2660  -22.7220 N.3   166  LEU166     -0.1245
     71  CA        93.2990  -29.2290  -22.5440 C.3   166  LEU166      0.1561
     72  C         92.7010  -29.0720  -23.9250 C.2   166  LEU166      0.2260
     73  O         93.2360  -28.2890  -24.7100 O.2   166  LEU166     -0.2867
     74  CB        92.8800  -27.9740  -21.7380 C.3   166  LEU166      0.0270
     75  CG        92.8050  -27.9740  -20.2200 C.3   166  LEU166      0.0019
     76  CD1       92.0260  -26.7670  -19.8060 C.3   166  LEU166      0.0001
     77  CD2       92.1270  -29.2670  -19.7060 C.3   166  LEU166      0.0001
     78  N         87.6820  -25.1480  -25.7270 N.3   169  CYS169     -0.1221
     79  CA        86.2620  -24.8410  -25.6160 C.3   169  CYS169      0.1808
     80  C         85.7560  -24.0990  -26.8140 C.2   169  CYS169      0.2601
     81  O         84.5960  -24.2620  -27.1930 O.2   169  CYS169     -0.2717
     82  CB        85.8770  -24.0930  -24.2990 C.3   169  CYS169      0.0970
     83  SG        86.1330  -25.0630  -22.7900 S.3   169  CYS169     -0.0800
     84  N         86.6200  -23.3170  -27.4580 N.am  170  HIS170     -0.1975
     85  CA        86.1760  -22.5450  -28.5940 C.3   170  HIS170      0.1656
     86  C         86.6480  -23.1950  -29.8500 C.2   170  HIS170      0.2291
     87  O         87.7670  -22.9480  -30.3380 O.2   170  HIS170     -0.2864
     88  CB        86.6980  -21.1400  -28.4400 C.3   170  HIS170      0.0771
     89  CG        86.3830  -20.5960  -27.0880 C.ar  170  HIS170      0.0820
     90  ND1       85.0810  -20.4300  -26.6450 N.ar  170  HIS170     -0.2267
     91  CD2       87.1880  -20.2140  -26.0580 C.ar  170  HIS170      0.1154
     92  CE1       85.0970  -20.0050  -25.3960 C.ar  170  HIS170      0.1986
     93  NE2       86.3610  -19.8350  -25.0250 N.ar  170  HIS170     -0.2212
     94  N         80.9500  -22.6790  -19.0590 N.3   192  ASP192     -0.1239
     95  CA        80.6440  -22.4580  -17.6420 C.3   192  ASP192      0.1674
     96  C         80.0180  -21.0640  -17.5930 C.2   192  ASP192      0.2266
     97  O         80.7190  -20.0200  -17.7800 O.2   192  ASP192     -0.2867
     98  CB        81.9690  -22.5180  -16.8510 C.3   192  ASP192      0.1410
     99  CG        81.8190  -22.1630  -15.3930 C.2   192  ASP192      0.3668
    100  OD1       80.8980  -21.4000  -15.0410 O.co2 192  ASP192     -0.2456
    101  OD2       82.6470  -22.6730  -14.5750 O.co2 192  ASP192     -0.2456
    102  N         81.5080  -18.4320  -14.6250 N.3   195  LEU195     -0.1231
    103  CA        82.9140  -17.9760  -14.6130 C.3   195  LEU195      0.1693
    104  C         83.5630  -17.8760  -15.9920 C.2   195  LEU195      0.2592
    105  O         84.4780  -17.0460  -16.2040 O.2   195  LEU195     -0.2718
    106  CB        83.7400  -18.8630  -13.6840 C.3   195  LEU195      0.0284
    107  CG        83.6480  -18.7930  -12.1250 C.3   195  LEU195      0.0019
    108  CD1       82.3320  -18.2920  -11.5170 C.3   195  LEU195      0.0001
    109  CD2       84.0010  -20.1610  -11.4760 C.3   195  LEU195      0.0001
    110  N         83.1200  -18.7210  -16.9250 N.am  196  GLY196     -0.1957
    111  CA        83.7010  -18.7310  -18.2570 C.3   196  GLY196      0.1869
    112  C         83.0750  -17.8520  -19.3060 C.2   196  GLY196      0.2309
    113  O         83.8060  -17.1030  -19.9780 O.2   196  GLY196     -0.2863
    114  N         83.8410  -13.9660  -19.9620 N.3   199  PHE199     -0.1227
    115  CA        85.2080  -13.6810  -20.3960 C.3   199  PHE199      0.1736
    116  C         85.2780  -14.0450  -21.8690 C.2   199  PHE199      0.2595
    117  O         85.8580  -13.3190  -22.6560 O.2   199  PHE199     -0.2718
    118  CB        86.1470  -14.5730  -19.5680 C.3   199  PHE199      0.0547
    119  CG        87.6210  -14.3710  -19.8320 C.ar  199  PHE199     -0.0202
    120  CD1       88.2470  -14.9520  -20.9500 C.ar  199  PHE199     -0.0042
    121  CD2       88.4180  -13.7200  -18.8750 C.ar  199  PHE199     -0.0042
    122  CE1       89.6320  -14.8030  -21.1550 C.ar  199  PHE199     -0.0003
    123  CE2       89.7910  -13.6070  -19.0360 C.ar  199  PHE199     -0.0003
    124  CZ        90.4180  -14.0970  -20.1740 C.ar  199  PHE199     -0.0000
    125  N         84.6130  -15.1540  -22.2390 N.am  200  ASN200     -0.1974
    126  CA        84.6610  -15.6500  -23.6140 C.3   200  ASN200      0.1688
    127  C         83.9630  -14.7030  -24.6090 C.2   200  ASN200      0.2292
    128  O         84.4080  -14.5410  -25.7680 O.2   200  ASN200     -0.2864
    129  CB        84.0550  -17.0560  -23.7010 C.3   200  ASN200      0.1181
    130  CG        84.7400  -18.0360  -22.8050 C.2   200  ASN200      0.2629
    131  OD1       84.0650  -18.9150  -22.2440 O.2   200  ASN200     -0.2716
    132  ND2       86.0480  -17.8690  -22.5950 N.am  200  ASN200     -0.0877
    133  N         86.3870  -11.9510  -25.1430 N.3   203  SER203     -0.1202
    134  CA        87.5330  -12.3130  -26.0270 C.3   203  SER203      0.2020
    135  C         87.1960  -12.1660  -27.4990 C.2   203  SER203      0.2618
    136  O         87.9540  -11.5940  -28.3010 O.2   203  SER203     -0.2717
    137  CB        88.0690  -13.7190  -25.7390 C.3   203  SER203      0.2103
    138  OG        88.5440  -13.8430  -24.4030 O.3   203  SER203     -0.2182
    139  N         86.0900  -12.7570  -27.8970 N.am  204  TYR204     -0.1975
    140  CA        85.7830  -12.8270  -29.3350 C.3   204  TYR204      0.1639
    141  C         85.2110  -11.5430  -29.8310 C.2   204  TYR204      0.2290
    142  O         85.4180  -11.1590  -30.9860 O.2   204  TYR204     -0.2864
    143  CB        84.9030  -14.1110  -29.6610 C.3   204  TYR204      0.0560
    144  CG        85.8010  -15.3070  -29.6580 C.ar  204  TYR204     -0.0198
    145  CD1       86.1380  -15.9590  -28.4570 C.ar  204  TYR204     -0.0009
    146  CD2       86.3990  -15.7520  -30.8370 C.ar  204  TYR204     -0.0009
    147  CE1       87.0650  -17.0110  -28.4220 C.ar  204  TYR204      0.0417
    148  CE2       87.2890  -16.8350  -30.8180 C.ar  204  TYR204      0.0417
    149  CZ        87.6110  -17.4370  -29.6500 C.ar  204  TYR204      0.1957
    150  OH        88.4780  -18.4690  -29.6860 O.3   204  TYR204     -0.2866
    151  N         77.7170  -24.6280  -12.7810 N.3   232  TYR232     -0.1241
    152  CA        78.2180  -25.5640  -11.7750 C.3   232  TYR232      0.1605
    153  C         77.3370  -25.3920  -10.5190 C.2   232  TYR232      0.2264
    154  O         76.8300  -24.3000  -10.1990 O.2   232  TYR232     -0.2867
    155  CB        79.7270  -25.3570  -11.5050 C.3   232  TYR232      0.0534
    156  CG        80.6300  -25.9620  -12.5780 C.ar  232  TYR232     -0.0201
    157  CD1       80.8400  -27.3280  -12.6720 C.ar  232  TYR232     -0.0009
    158  CD2       81.2330  -25.1670  -13.5020 C.ar  232  TYR232     -0.0009
    159  CE1       81.6720  -27.8800  -13.6850 C.ar  232  TYR232      0.0417
    160  CE2       82.0620  -25.6960  -14.5030 C.ar  232  TYR232      0.0417
    161  CZ        82.2950  -27.0480  -14.5800 C.ar  232  TYR232      0.1957
    162  OH        83.1250  -27.5080  -15.6070 O.3   232  TYR232     -0.2866
@<TRIPOS>BOND
     1    61    60    2
     2    20    19    2
     3   142   141    2
     4   146   148   ar
     5   146   144   ar
     6   148   149   ar
     7    60    59    1
     8    87    86    2
     9    19    18    1
    10    86    85    1
    11   141   140    1
    12    59    62    1
    13    59    58    1
    14   150   149    1
    15   143   144    1
    16   143   140    1
    17   144   145   ar
    18   149   147   ar
    19   140   139    1
    20    64    66   ar
    21    64    63   ar
    22    21    18    1
    23    21    22    1
    24    62    63    1
    25    18    17    1
    26    66    68   ar
    27    85    88    1
    28    85    84    1
    29   145   147   ar
    30    63    65   ar
    31    88    89    1
    32   136   135    2
    33    22    24   ar
    34    22    23   ar
    35   139   135   am
    36    24    26   ar
    37   135   134    1
    38    84    80   am
    39    68    69    1
    40    68    67   ar
    41    23    25   ar
    42    81    80    2
    43    89    90   ar
    44    89    91   ar
    45    65    67   ar
    46    80    79    1
    47    26    27   ar
    48    90    92   ar
    49    25    27   ar
    50    91    93   ar
    51   134   137    1
    52   134   133    1
    53   128   127    2
    54   137   138    1
    55    78    79    1
    56    11    10    2
    57    79    82    1
    58    92    93   ar
    59    10     9    1
    60    73    72    2
    61   127   126    1
    62    82    83    1
    63    72    71    1
    64   129   126    1
    65   129   130    1
    66   126   125    1
    67    13    14    1
    68    13    12    1
    69     9     8    1
    70     9    12    1
    71    49    47   ar
    72    49    48   ar
    73    15    14   ar
    74    47    45   ar
    75    14    16   ar
    76   130   132   am
    77   130   131    2
    78    70    71    1
    79   117   116    2
    80    48    46   ar
    81    71    74    1
    82    45    44   ar
    83    45    43   ar
    84   125   116   am
    85    44    42   ar
    86   116   115    1
    87    74    75    1
    88    46    43   ar
    89    43    41   ar
    90   122   120   ar
    91   122   124   ar
    92   120   119   ar
    93    42    41   ar
    94    41    40    1
    95   115   114    1
    96   115   118    1
    97    75    76    1
    98    75    77    1
    99   124   123   ar
   100   113   112    2
   101   119   118    1
   102   119   121   ar
   103    40    37    1
   104   112   111    1
   105    94    95    1
   106   123   121   ar
   107    35    33    1
   108    53    52    2
   109    33    32    1
   110   111   110    1
   111    54    55    1
   112    54    51    1
   113    37    36    1
   114    37    38    1
   115    55    57   am
   116    55    56    2
   117    97    96    2
   118    52    51    1
   119    39    38    2
   120    95    96    1
   121    95    98    1
   122    36    30   am
   123    51    50    1
   124    32    34    1
   125    32    29    1
   126   110   104   am
   127    98    99    1
   128    30    31    2
   129    30    29    1
   130    29    28    1
   131   105   104    2
   132   104   103    1
   133   162   161    1
   134    99   100   ar
   135    99   101   ar
   136   102   103    1
   137   103   106    1
   138   161   160   ar
   139   161   159   ar
   140   160   158   ar
   141     1     2    1
   142     7     5    1
   143   159   157   ar
   144   106   107    1
   145   158   156   ar
   146     2     5    1
   147     2     3    1
   148     5     6    1
   149   151   152    1
   150   157   156   ar
   151   156   155    1
   152   107   108    1
   153   107   109    1
   154   152   155    1
   155   152   153    1
   156     3     4    2
   157   153   154    2
