@<TRIPOS>MOLECULE
tmp/4e5wB00.pdb
 156 147 0 0 0
SMALL
GASTEIGER

@<TRIPOS>ATOM
      1  N         14.7990    6.4580   -5.8950 N.3    17  LEU17      -0.1231
      2  CA        14.1410    5.9020   -4.7080 C.3    17  LEU17       0.1693
      3  C         13.8750    6.9710   -3.6450 C.2    17  LEU17       0.2593
      4  O         13.0580    6.7660   -2.7440 O.2    17  LEU17      -0.2718
      5  CB        14.9370    4.7090   -4.1170 C.3    17  LEU17       0.0284
      6  CG        15.0830    3.4650   -5.0130 C.3    17  LEU17       0.0019
      7  CD1       16.0620    2.4650   -4.3890 C.3    17  LEU17       0.0001
      8  CD2       13.7360    2.8140   -5.3260 C.3    17  LEU17       0.0001
      9  N         14.5240    8.1210   -3.7840 N.am   18  GLY18      -0.1942
     10  CA        14.3230    9.2310   -2.8670 C.3    18  GLY18       0.2014
     11  C         15.4820   10.1940   -2.7970 C.2    18  GLY18       0.2639
     12  O         16.6450    9.7900   -2.8950 O.2    18  GLY18      -0.2714
     13  N         15.1560   11.4750   -2.5950 N.am   19  GLU19      -0.1963
     14  CA        16.1140   12.5630   -2.4820 C.3    19  GLU19       0.1733
     15  C         16.3520   12.8570   -1.0110 C.2    19  GLU19       0.2617
     16  O         15.4000   13.0950   -0.2670 O.2    19  GLU19      -0.2715
     17  CB        15.5620   13.8310   -3.1630 C.3    19  GLU19       0.0429
     18  CG        15.7780   13.8840   -4.6700 C.3    19  GLU19       0.1163
     19  CD        15.3660   15.1870   -5.3260 C.2    19  GLU19       0.3649
     20  OE1       15.7280   16.2610   -4.7920 O.co2  19  GLU19      -0.2457
     21  OE2       14.7040   15.1400   -6.3880 O.co2  19  GLU19      -0.2457
     22  N         17.6090   12.8620   -0.6110 N.am   20  GLY20      -0.1940
     23  CA        17.9960   13.1850    0.7550 C.3    20  GLY20       0.2014
     24  C         18.4950   14.6090    0.8700 C.2    20  GLY20       0.2638
     25  O         18.2140   15.4410    0.0020 O.2    20  GLY20      -0.2714
     26  N         19.2730   14.8890    1.9190 N.am   21  HIS21      -0.1973
     27  CA        19.8040   16.2290    2.1560 C.3    21  HIS21       0.1656
     28  C         20.9990   16.5220    1.2350 C.2    21  HIS21       0.2291
     29  O         20.9100   17.4220    0.3970 O.2    21  HIS21      -0.2864
     30  CB        20.1240   16.4330    3.6480 C.3    21  HIS21       0.0771
     31  CG        20.5410   17.8260    3.9850 C.ar   21  HIS21       0.0820
     32  ND1       19.7550   18.9210    3.6550 N.ar   21  HIS21      -0.2267
     33  CD2       21.6550   18.2610    4.6150 C.ar   21  HIS21       0.1154
     34  CE1       20.4230   19.9800    4.0770 C.ar   21  HIS21       0.1986
     35  NE2       21.5700   19.6360    4.6600 N.ar   21  HIS21      -0.2212
     36  N         19.1420    8.6570   -3.6040 N.3    25  VAL25      -0.1245
     37  CA        19.2140    7.2080   -3.7200 C.3    25  VAL25       0.1561
     38  C         18.5160    6.7510   -4.9960 C.2    25  VAL25       0.2260
     39  O         17.3970    7.1920   -5.2910 O.2    25  VAL25      -0.2867
     40  CB        18.6870    6.4920   -2.4520 C.3    25  VAL25       0.0252
     41  CG1       18.8510    4.9710   -2.5600 C.3    25  VAL25       0.0019
     42  CG2       19.4050    7.0150   -1.2070 C.3    25  VAL25       0.0019
     43  N         20.4690   -0.4920   -3.9890 N.3    42  ALA42      -0.1245
     44  CA        20.1250    0.9150   -3.7450 C.3    42  ALA42       0.1562
     45  C         21.4660    1.6550   -3.6680 C.2    42  ALA42       0.2260
     46  O         22.3620    1.2580   -2.9160 O.2    42  ALA42      -0.2867
     47  CB        19.3540    1.0630   -2.4450 C.3    42  ALA42       0.0290
     48  N         18.9450   -0.9780    7.6040 N.3    70  VAL70      -0.1245
     49  CA        19.2340   -1.3380    6.2080 C.3    70  VAL70       0.1561
     50  C         20.7060   -1.7630    6.0670 C.2    70  VAL70       0.2260
     51  O         21.5910   -1.1400    6.6680 O.2    70  VAL70      -0.2867
     52  CB        18.7950   -0.2570    5.1740 C.3    70  VAL70       0.0252
     53  CG1       19.7260    0.9630    5.1750 C.3    70  VAL70       0.0019
     54  CG2       18.6880   -0.8520    3.7740 C.3    70  VAL70       0.0019
     55  N         23.8110   -0.1210   -0.9310 N.3    85  MET85      -0.1230
     56  CA        22.9700   -0.7700    0.0650 C.3    85  MET85       0.1702
     57  C         22.0960   -1.8370   -0.5780 C.2    85  MET85       0.2592
     58  O         21.8680   -1.8130   -1.7950 O.2    85  MET85      -0.2718
     59  CB        22.0400    0.2640    0.7360 C.3    85  MET85       0.0401
     60  CG        22.7810    1.3420    1.5360 C.3    85  MET85       0.0596
     61  SD        21.7120    2.7230    1.9870 S.3    85  MET85      -0.1393
     62  CE        21.5160    3.5390    0.3660 C.3    85  MET85       0.0692
     63  N         21.5290   -2.7280    0.2500 N.am   86  GLU86      -0.1966
     64  CA        20.5410   -3.7100   -0.2290 C.3    86  GLU86       0.1733
     65  C         19.2880   -2.9380   -0.6600 C.2    86  GLU86       0.2616
     66  O         19.0110   -1.8480   -0.1260 O.2    86  GLU86      -0.2715
     67  CB        20.1790   -4.7360    0.8620 C.3    86  GLU86       0.0429
     68  CG        19.6160   -4.1080    2.1380 C.3    86  GLU86       0.1163
     69  CD        19.0850   -5.0550    3.1930 C.2    86  GLU86       0.3649
     70  OE1       18.9160   -6.2600    2.8950 O.co2  86  GLU86      -0.2457
     71  OE2       18.8410   -4.5860    4.3280 O.co2  86  GLU86      -0.2457
     72  N         18.5620   -3.4860   -1.6410 N.am   87  PHE87      -0.1960
     73  CA        17.3340   -2.8770   -2.1550 C.3    87  PHE87       0.1771
     74  C         16.1270   -3.5910   -1.5870 C.2    87  PHE87       0.2619
     75  O         16.0550   -4.8300   -1.6390 O.2    87  PHE87      -0.2715
     76  CB        17.3090   -2.9140   -3.7040 C.3    87  PHE87       0.0574
     77  CG        15.9800   -2.5390   -4.3210 C.ar   87  PHE87      -0.0200
     78  CD1       15.4220   -1.2840   -4.1060 C.ar   87  PHE87      -0.0042
     79  CD2       15.3200   -3.4180   -5.1750 C.ar   87  PHE87      -0.0042
     80  CE1       14.1830   -0.9440   -4.6680 C.ar   87  PHE87      -0.0003
     81  CE2       14.0860   -3.0730   -5.7430 C.ar   87  PHE87      -0.0003
     82  CZ        13.5360   -1.8340   -5.5030 C.ar   87  PHE87      -0.0000
     83  N         15.1850   -2.8220   -1.0490 N.am   88  LEU88      -0.1977
     84  CA        13.9360   -3.3390   -0.4730 C.3    88  LEU88       0.1596
     85  C         12.7790   -2.9750   -1.3990 C.2    88  LEU88       0.2287
     86  O         12.3330   -1.8240   -1.4150 O.2    88  LEU88      -0.2864
     87  CB        13.7240   -2.8820    1.0010 C.3    88  LEU88       0.0297
     88  CG        14.4160   -3.7390    2.0980 C.3    88  LEU88       0.0022
     89  CD1       15.9350   -3.7700    1.9480 C.3    88  LEU88       0.0001
     90  CD2       14.1100   -3.1960    3.4770 C.3    88  LEU88       0.0001
     91  N          9.6760   -0.7940   -0.5950 N.3    91  GLY91      -0.1210
     92  CA         9.9480    0.6190   -0.3670 C.3    91  GLY91       0.1956
     93  C          9.7020    1.0530    1.0620 C.2    91  GLY91       0.2612
     94  O          9.8450    0.2520    1.9880 O.2    91  GLY91      -0.2717
     95  N          9.3190    2.3230    1.2420 N.am   92  SER92      -0.1952
     96  CA         9.1130    2.8930    2.5720 C.3    92  SER92       0.1924
     97  C          7.7120    2.6500    3.0950 C.2    92  SER92       0.2314
     98  O          6.8010    2.3730    2.3040 O.2    92  SER92      -0.2863
     99  CB         9.4000    4.3970    2.5560 C.3    92  SER92       0.2116
    100  OG         8.3660    5.1490    1.9320 O.3    92  SER92      -0.2180
    101  N          5.0040    4.6920    1.3740 N.3    95  GLU95      -0.1245
    102  CA         4.5050    4.1340    0.1280 C.3    95  GLU95       0.1567
    103  C          3.7020    2.8490    0.3900 C.2    95  GLU95       0.2260
    104  O          2.6970    2.5980   -0.2740 O.2    95  GLU95      -0.2867
    105  CB         5.6880    3.8150   -0.8210 C.3    95  GLU95       0.0388
    106  CG         6.5950    5.0060   -1.0920 C.3    95  GLU95       0.1160
    107  CD         7.9610    4.7440   -1.7110 C.2    95  GLU95       0.3649
    108  OE1        8.5100    3.6300   -1.5470 O.co2  95  GLU95      -0.2457
    109  OE2        8.5090    5.6900   -2.3220 O.co2  95  GLU95      -0.2457
    110  N         16.2540   12.4070   11.6210 N.3   132  ASP132     -0.1239
    111  CA        15.3340   12.3530   10.4740 C.3   132  ASP132      0.1674
    112  C         14.4360   11.1170   10.5430 C.2   132  ASP132      0.2266
    113  O         14.1170   10.5000    9.5200 O.2   132  ASP132     -0.2867
    114  CB        16.1530   12.3890    9.1710 C.3   132  ASP132      0.1410
    115  CG        15.4110   12.8480    7.9320 C.2   132  ASP132      0.3668
    116  OD1       14.2790   13.3860    8.0700 O.co2 132  ASP132     -0.2456
    117  OD2       15.9350   12.6430    6.8290 O.co2 132  ASP132     -0.2456
    118  N          8.7380    7.9510    6.0730 N.3   136  ARG136     -0.1231
    119  CA         9.3310    7.9830    4.7260 C.3   136  ARG136      0.1694
    120  C         10.7760    7.4570    4.7110 C.2   136  ARG136      0.2592
    121  O         11.3050    7.1660    3.6320 O.2   136  ARG136     -0.2718
    122  CB         9.2580    9.4030    4.1400 C.3   136  ARG136      0.0321
    123  CG        10.3590   10.3140    4.6360 C.3   136  ARG136      0.0489
    124  CD         9.8330   11.5430    5.3000 C.3   136  ARG136      0.2205
    125  NE        10.2490   12.7610    4.6220 N.pl3 136  ARG136     -0.0865
    126  CZ        11.2540   13.5360    5.0150 C.cat 136  ARG136      0.5346
    127  NH1       11.5260   14.6620    4.3630 N.pl3 136  ARG136      0.1354
    128  NH2       11.9850   13.2010    6.0750 N.pl3 136  ARG136      0.1354
    129  N         11.4040    7.3370    5.9020 N.am  137  ASN137     -0.1974
    130  CA        12.7740    6.8230    6.0430 C.3   137  ASN137      0.1688
    131  C         12.8330    5.3960    6.6070 C.2   137  ASN137      0.2292
    132  O         13.9220    4.8690    6.8530 O.2   137  ASN137     -0.2864
    133  CB        13.6340    7.7950    6.8590 C.3   137  ASN137      0.1181
    134  CG        13.9450    9.0560    6.1050 C.2   137  ASN137      0.2629
    135  OD1       14.0880    9.0560    4.8840 O.2   137  ASN137     -0.2716
    136  ND2       14.1210   10.1410    6.8120 N.am  137  ASN137     -0.0877
    137  N         11.9120    1.4760    5.8800 N.3   139  LEU139     -0.1245
    138  CA        11.6700    0.5720    4.7610 C.3   139  LEU139      0.1561
    139  C         10.9850   -0.6930    5.1860 C.2   139  LEU139      0.2260
    140  O         11.1580   -1.1340    6.3070 O.2   139  LEU139     -0.2867
    141  CB        12.9990    0.2170    4.0630 C.3   139  LEU139      0.0270
    142  CG        13.9510    1.3710    3.7250 C.3   139  LEU139      0.0019
    143  CD1       15.2650    0.8270    3.2000 C.3   139  LEU139      0.0001
    144  CD2       13.3110    2.3780    2.7520 C.3   139  LEU139      0.0001
    145  N         16.0150    3.1240    7.0130 N.3   149  GLY149     -0.1210
    146  CA        16.5870    3.1340    5.7000 C.3   149  GLY149      0.1956
    147  C         17.3590    4.3180    5.1480 C.2   149  GLY149      0.2611
    148  O         17.6920    4.2910    4.0110 O.2   149  GLY149     -0.2717
    149  N         17.6360    5.3210    5.9650 N.am  150  ASP150     -0.1973
    150  CA        18.4230    6.4750    5.5370 C.3   150  ASP150      0.1709
    151  C         19.0940    7.0750    6.7510 C.2   150  ASP150      0.2293
    152  O         18.4690    7.1560    7.8140 O.2   150  ASP150     -0.2864
    153  CB        17.5900    7.5340    4.7910 C.3   150  ASP150      0.1436
    154  CG        18.4790    8.5310    4.0750 C.2   150  ASP150      0.3671
    155  OD1       18.8940    8.2420    2.9230 O.co2 150  ASP150     -0.2456
    156  OD2       18.7710    9.5960    4.6660 O.co2 150  ASP150     -0.2456
@<TRIPOS>BOND
     1    21    19   ar
     2     1     2    1
     3    81    82   ar
     4    81    79   ar
     5    82    80   ar
     6    19    20   ar
     7    19    18    1
     8     8     6    1
     9    39    38    2
    10    79    77   ar
    11     6     7    1
    12     6     5    1
    13    38    37    1
    14     2     5    1
    15     2     3    1
    16    18    17    1
    17    80    78   ar
    18    77    78   ar
    19    77    76    1
    20    43    44    1
    21     9     3   am
    22     9    10    1
    23    44    45    1
    24    44    47    1
    25    37    36    1
    26    37    40    1
    27    76    73    1
    28    45    46    2
    29     3     4    2
    30    17    14    1
    31    12    11    2
    32    10    11    1
    33    11    13   am
    34    13    14    1
    35    41    40    1
    36    14    15    1
    37    40    42    1
    38   109   107   ar
    39    73    72    1
    40    73    74    1
    41    58    57    2
    42   107   108   ar
    43   107   106    1
    44    72    65   am
    45    75    74    2
    46    74    83   am
    47    86    85    2
    48    85    84    1
    49   106   105    1
    50    83    84    1
    51    15    22   am
    52    15    16    2
    53    55    56    1
    54   105   102    1
    55    65    64    1
    56    65    66    2
    57    22    23    1
    58    91    92    1
    59    57    56    1
    60    57    63   am
    61    84    87    1
    62    92    93    1
    63   104   103    2
    64    64    63    1
    65    64    67    1
    66    25    24    2
    67    56    59    1
    68   102   103    1
    69   102   101    1
    70    62    61    1
    71    29    28    2
    72    59    60    1
    73    23    24    1
    74    67    68    1
    75    24    26   am
    76    87    88    1
    77    93    95   am
    78    93    94    2
    79    28    27    1
    80    95    96    1
    81    60    61    1
    82    26    27    1
    83   100    99    1
    84    89    88    1
    85    88    90    1
    86    68    69    1
    87    27    30    1
    88    98    97    2
    89    99    96    1
    90    96    97    1
    91   144   142    1
    92    70    69   ar
    93   155   154   ar
    94    69    71   ar
    95   143   142    1
    96   121   120    2
    97    30    31    1
    98    32    31   ar
    99    32    34   ar
   100   142   141    1
   101    54    52    1
   102    31    33   ar
   103   148   147    2
   104   141   138    1
   105   154   156   ar
   106   154   153    1
   107    34    35   ar
   108   122   123    1
   109   122   119    1
   110   127   126    1
   111    33    35   ar
   112   125   126    2
   113   125   124    1
   114   123   124    1
   115   120   119    1
   116   120   129   am
   117   119   118    1
   118   138   139    1
   119   138   137    1
   120   153   150    1
   121   135   134    2
   122   126   128    1
   123   147   146    1
   124   147   149   am
   125    52    53    1
   126    52    49    1
   127   139   140    2
   128   150   149    1
   129   150   151    1
   130   146   145    1
   131   129   130    1
   132   130   131    1
   133   130   133    1
   134    50    49    1
   135    50    51    2
   136   134   136   am
   137   134   133    1
   138    49    48    1
   139   131   132    2
   140   151   152    2
   141   117   115   ar
   142   115   116   ar
   143   115   114    1
   144   114   111    1
   145   113   112    2
   146   111   112    1
   147   111   110    1
