@<TRIPOS>MOLECULE
tmp/4e67A00.pdb
 201 200 0 0 0
SMALL
GASTEIGER

@<TRIPOS>ATOM
      1  N        -12.4120   12.1360  -15.0490 N.3    39  SER39      -0.1202
      2  CA       -13.3740   12.9030  -15.8390 C.3    39  SER39       0.2020
      3  C        -13.4630   14.3690  -15.4100 C.2    39  SER39       0.2619
      4  O        -13.7900   15.2370  -16.2260 O.2    39  SER39      -0.2717
      5  CB       -14.7580   12.2530  -15.7670 C.3    39  SER39       0.2103
      6  OG       -15.1910   12.1360  -14.4240 O.3    39  SER39      -0.2182
      7  N        -13.1870   14.6290  -14.1300 N.am   40  LYS40      -0.1965
      8  CA       -13.2390   15.9750  -13.5440 C.3    40  LYS40       0.1728
      9  C        -12.2370   16.0890  -12.3920 C.2    40  LYS40       0.2616
     10  O        -11.8760   15.0830  -11.7810 O.2    40  LYS40      -0.2715
     11  CB       -14.6470   16.2830  -13.0030 C.3    40  LYS40       0.0311
     12  CG       -15.7880   16.0900  -13.9930 C.3    40  LYS40       0.0038
     13  CD       -17.1460   16.3570  -13.3680 C.3    40  LYS40       0.0206
     14  CE       -18.2590   16.0540  -14.3630 C.3    40  LYS40       0.1093
     15  NZ       -19.5710   16.5990  -13.9150 N.3    40  LYS40      -0.1314
     16  N        -11.7940   17.3090  -12.0950 N.am   41  TRP41      -0.1960
     17  CA       -10.9210   17.5550  -10.9410 C.3    41  TRP41       0.1771
     18  C        -11.0280   18.9840  -10.4080 C.2    41  TRP41       0.2620
     19  O        -11.4350   19.8960  -11.1280 O.2    41  TRP41      -0.2715
     20  CB        -9.4550   17.1900  -11.2380 C.3    41  TRP41       0.0590
     21  CG        -8.8540   17.9250  -12.3990 C.ar   41  TRP41       0.0006
     22  CD1       -8.8010   17.5030  -13.6960 C.ar   41  TRP41       0.0946
     23  CD2       -8.2190   19.2080  -12.3680 C.ar   41  TRP41       0.0152
     24  NE1       -8.1760   18.4450  -14.4770 N.ar   41  TRP41      -0.2442
     25  CE2       -7.8120   19.5040  -13.6880 C.ar   41  TRP41       0.0810
     26  CE3       -7.9560   20.1410  -11.3530 C.ar   41  TRP41       0.0012
     27  CZ2       -7.1460   20.6960  -14.0230 C.ar   41  TRP41       0.0191
     28  CZ3       -7.3000   21.3280  -11.6870 C.ar   41  TRP41       0.0001
     29  CH2       -6.9020   21.5910  -13.0110 C.ar   41  TRP41       0.0015
     30  N        -10.6800   19.1480   -9.1320 N.am   42  VAL42      -0.1963
     31  CA       -10.6130   20.4560   -8.4820 C.3    42  VAL42       0.1727
     32  C         -9.3300   20.5680   -7.6640 C.2    42  VAL42       0.2616
     33  O         -9.0800   19.7650   -6.7550 O.2    42  VAL42      -0.2715
     34  CB       -11.8520   20.7620   -7.5790 C.3    42  VAL42       0.0290
     35  CG1      -13.0890   21.0240   -8.4190 C.3    42  VAL42       0.0023
     36  CG2      -12.1130   19.6480   -6.5580 C.3    42  VAL42       0.0023
     37  N         -8.5070   21.5520   -8.0070 N.am   43  ASP43      -0.1957
     38  CA        -7.3070   21.8380   -7.2390 C.3    43  ASP43       0.1840
     39  C         -7.6360   22.8630   -6.1610 C.2    43  ASP43       0.2622
     40  O         -7.6900   24.0690   -6.4300 O.2    43  ASP43      -0.2715
     41  CB        -6.1890   22.3440   -8.1510 C.3    43  ASP43       0.1450
     42  CG        -4.8480   22.4670   -7.4350 C.2    43  ASP43       0.3671
     43  OD1       -4.7820   22.2750   -6.1980 O.co2  43  ASP43      -0.2456
     44  OD2       -3.8480   22.7500   -8.1250 O.co2  43  ASP43      -0.2456
     45  N         -7.8750   22.3630   -4.9510 N.am   44  TYR44      -0.1974
     46  CA        -8.1040   23.1960   -3.7760 C.3    44  TYR44       0.1639
     47  C         -7.0130   22.8850   -2.7460 C.2    44  TYR44       0.2290
     48  O         -7.2530   22.9280   -1.5360 O.2    44  TYR44      -0.2864
     49  CB        -9.4900   22.9090   -3.1830 C.3    44  TYR44       0.0560
     50  CG       -10.1660   24.0870   -2.4910 C.ar   44  TYR44      -0.0198
     51  CD1       -9.4320   25.1960   -2.0500 C.ar   44  TYR44      -0.0009
     52  CD2      -11.5420   24.0750   -2.2540 C.ar   44  TYR44      -0.0009
     53  CE1      -10.0570   26.2700   -1.4070 C.ar   44  TYR44       0.0417
     54  CE2      -12.1770   25.1410   -1.6080 C.ar   44  TYR44       0.0417
     55  CZ       -11.4250   26.2340   -1.1880 C.ar   44  TYR44       0.1957
     56  OH       -12.0460   27.2890   -0.5560 O.3    44  TYR44      -0.2866
     57  N         -4.3320   24.4810   -1.8500 N.3    46  ASP46      -0.1239
     58  CA        -3.9210   25.5950   -0.9890 C.3    46  ASP46       0.1674
     59  C         -4.5350   25.5260    0.4210 C.2    46  ASP46       0.2266
     60  O         -3.9730   26.0840    1.3670 O.2    46  ASP46      -0.2867
     61  CB        -4.2330   26.9440   -1.6460 C.3    46  ASP46       0.1410
     62  CG        -5.7110   27.1370   -1.9030 C.2    46  ASP46       0.3668
     63  OD1       -6.2400   28.2080   -1.5440 O.co2  46  ASP46      -0.2456
     64  OD2       -6.3440   26.2140   -2.4570 O.co2  46  ASP46      -0.2456
     65  N        -18.9170   18.3270   -0.5880 N.3   108  TYR108     -0.1227
     66  CA       -18.8060   19.6680   -1.1630 C.3   108  TYR108      0.1736
     67  C        -18.1180   19.6330   -2.5380 C.2   108  TYR108      0.2595
     68  O        -18.6500   20.1650   -3.5200 O.2   108  TYR108     -0.2718
     69  CB       -18.0760   20.5800   -0.1610 C.3   108  TYR108      0.0548
     70  CG       -17.6030   21.9410   -0.6510 C.ar  108  TYR108     -0.0200
     71  CD1      -16.2930   22.3560   -0.4140 C.ar  108  TYR108     -0.0009
     72  CD2      -18.4610   22.8220   -1.3150 C.ar  108  TYR108     -0.0009
     73  CE1      -15.8360   23.6010   -0.8410 C.ar  108  TYR108      0.0417
     74  CE2      -18.0120   24.0740   -1.7490 C.ar  108  TYR108      0.0417
     75  CZ       -16.6950   24.4520   -1.5040 C.ar  108  TYR108      0.1957
     76  OH       -16.2290   25.6780   -1.9190 O.3   108  TYR108     -0.2866
     77  N        -16.9560   18.9830   -2.5980 N.am  109  PHE109     -0.1976
     78  CA       -16.1850   18.8250   -3.8360 C.3   109  PHE109      0.1639
     79  C        -16.9910   18.0330   -4.8760 C.2   109  PHE109      0.2290
     80  O        -16.9670   18.3510   -6.0710 O.2   109  PHE109     -0.2864
     81  CB       -14.8590   18.0960   -3.5540 C.3   109  PHE109      0.0560
     82  CG       -13.8440   18.9010   -2.7560 C.ar  109  PHE109     -0.0200
     83  CD1      -14.1960   20.0790   -2.0890 C.ar  109  PHE109     -0.0042
     84  CD2      -12.5300   18.4450   -2.6480 C.ar  109  PHE109     -0.0042
     85  CE1      -13.2480   20.8000   -1.3440 C.ar  109  PHE109     -0.0003
     86  CE2      -11.5730   19.1550   -1.9080 C.ar  109  PHE109     -0.0003
     87  CZ       -11.9370   20.3370   -1.2550 C.ar  109  PHE109     -0.0000
     88  N        -19.8230   20.3700   -6.4090 N.3   112  TYR112     -0.1241
     89  CA       -19.2700   21.3080   -7.3790 C.3   112  TYR112      0.1605
     90  C        -18.9420   20.6210   -8.7030 C.2   112  TYR112      0.2264
     91  O        -19.3300   21.1070   -9.7630 O.2   112  TYR112     -0.2867
     92  CB       -18.0340   22.0270   -6.8430 C.3   112  TYR112      0.0534
     93  CG       -17.4650   23.0200   -7.8370 C.ar  112  TYR112     -0.0201
     94  CD1      -18.0900   24.2500   -8.0550 C.ar  112  TYR112     -0.0009
     95  CD2      -16.3170   22.7260   -8.5690 C.ar  112  TYR112     -0.0009
     96  CE1      -17.5840   25.1630   -8.9760 C.ar  112  TYR112      0.0417
     97  CE2      -15.7980   23.6340   -9.4890 C.ar  112  TYR112      0.0417
     98  CZ       -16.4380   24.8510   -9.6840 C.ar  112  TYR112      0.1957
     99  OH       -15.9350   25.7510  -10.5870 O.3   112  TYR112     -0.2866
    100  N        -21.0160   21.7270  -11.9680 N.3   116  HIS116     -0.1226
    101  CA       -20.3700   22.8470  -12.6560 C.3   116  HIS116      0.1752
    102  C        -19.2070   22.4850  -13.5860 C.2   116  HIS116      0.2596
    103  O        -18.6230   23.3710  -14.2170 O.2   116  HIS116     -0.2718
    104  CB       -19.9240   23.9010  -11.6340 C.3   116  HIS116      0.0759
    105  CG       -21.0420   24.4230  -10.7870 C.ar  116  HIS116      0.0818
    106  ND1      -22.0120   25.2680  -11.2780 N.ar  116  HIS116     -0.2268
    107  CD2      -21.3530   24.2060   -9.4870 C.ar  116  HIS116      0.1154
    108  CE1      -22.8690   25.5570  -10.3140 C.ar  116  HIS116      0.1986
    109  NE2      -22.4910   24.9260   -9.2170 N.ar  116  HIS116     -0.2212
    110  N        -18.8740   21.1980  -13.6770 N.am  117  LEU117     -0.1966
    111  CA       -17.7530   20.7640  -14.5130 C.3   117  LEU117      0.1728
    112  C        -18.1600   19.7430  -15.5740 C.2   117  LEU117      0.2616
    113  O        -19.0790   18.9530  -15.3770 O.2   117  LEU117     -0.2715
    114  CB       -16.6060   20.2140  -13.6540 C.3   117  LEU117      0.0311
    115  CG       -15.9510   21.1410  -12.6190 C.3   117  LEU117      0.0022
    116  CD1      -14.8630   20.4050  -11.8650 C.3   117  LEU117      0.0001
    117  CD2      -15.3960   22.4100  -13.2510 C.3   117  LEU117      0.0001
    118  N        -17.4500   19.7720  -16.6960 N.am  118  LEU118     -0.1977
    119  CA       -17.7260   18.9050  -17.8270 C.3   118  LEU118      0.1596
    120  C        -17.0960   17.5340  -17.6140 C.2   118  LEU118      0.2287
    121  O        -15.9710   17.4340  -17.1310 O.2   118  LEU118     -0.2864
    122  CB       -17.1630   19.5500  -19.0930 C.3   118  LEU118      0.0297
    123  CG       -17.5680   19.0990  -20.4950 C.3   118  LEU118      0.0022
    124  CD1      -19.0830   19.1610  -20.7270 C.3   118  LEU118      0.0001
    125  CD2      -16.8410   20.0030  -21.4720 C.3   118  LEU118      0.0001
    126  N        -15.1070   14.6170  -18.8030 N.3   120  ALA120     -0.1245
    127  CA       -14.1700   14.1980  -19.8390 C.3   120  ALA120      0.1562
    128  C        -14.4880   12.7700  -20.2860 C.2   120  ALA120      0.2260
    129  O        -14.7900   11.9060  -19.4600 O.2   120  ALA120     -0.2867
    130  CB       -12.7350   14.3060  -19.3460 C.3   120  ALA120      0.0290
    131  N          1.2080   19.6940  -11.3860 N.3   135  ARG135     -0.1245
    132  CA         0.7170   20.6330  -12.3710 C.3   135  ARG135      0.1563
    133  C          1.8990   21.4020  -12.9620 C.2   135  ARG135      0.2260
    134  O          2.8190   21.7920  -12.2400 O.2   135  ARG135     -0.2867
    135  CB        -0.2640   21.5750  -11.6750 C.3   135  ARG135      0.0307
    136  CG        -1.0000   22.5590  -12.5510 C.3   135  ARG135      0.0489
    137  CD        -2.1860   23.1600  -11.7980 C.3   135  ARG135      0.2205
    138  NE        -1.9310   23.3650  -10.3670 N.pl3 135  ARG135     -0.0865
    139  CZ        -1.3970   24.4650   -9.8350 C.cat 135  ARG135      0.5346
    140  NH1       -1.2170   24.5420   -8.5230 N.pl3 135  ARG135      0.1354
    141  NH2       -1.0410   25.4860  -10.6050 N.pl3 135  ARG135      0.1354
    142  N         -3.7420   16.0060  -18.8900 N.3   152  ASN152     -0.1225
    143  CA        -4.7040   16.9540  -19.4530 C.3   152  ASN152      0.1785
    144  C         -4.0190   18.2760  -19.7950 C.2   152  ASN152      0.2597
    145  O         -3.4920   18.9500  -18.9100 O.2   152  ASN152     -0.2718
    146  CB        -5.8320   17.2300  -18.4500 C.3   152  ASN152      0.1169
    147  CG        -6.8240   16.0800  -18.3170 C.2   152  ASN152      0.2627
    148  OD1       -6.5730   14.9520  -18.7490 O.2   152  ASN152     -0.2716
    149  ND2       -7.9680   16.3720  -17.6980 N.am  152  ASN152     -0.0877
    150  N         -4.0350   18.6530  -21.0690 N.am  153  PHE153     -0.1962
    151  CA        -3.4360   19.9220  -21.4960 C.3   153  PHE153      0.1771
    152  C         -4.4370   21.0730  -21.3720 C.2   153  PHE153      0.2619
    153  O         -5.5500   20.9940  -21.8980 O.2   153  PHE153     -0.2715
    154  CB        -2.8800   19.8030  -22.9190 C.3   153  PHE153      0.0574
    155  CG        -1.7790   18.7800  -23.0590 C.ar  153  PHE153     -0.0200
    156  CD1       -2.0740   17.4540  -23.3730 C.ar  153  PHE153     -0.0042
    157  CD2       -0.4490   19.1410  -22.8700 C.ar  153  PHE153     -0.0042
    158  CE1       -1.0590   16.5090  -23.4990 C.ar  153  PHE153     -0.0003
    159  CE2        0.5730   18.2010  -22.9950 C.ar  153  PHE153     -0.0003
    160  CZ         0.2680   16.8850  -23.3080 C.ar  153  PHE153     -0.0000
    161  N         -4.0430   22.1310  -20.6610 N.am  154  PHE154     -0.1974
    162  CA        -4.9620   23.2300  -20.3240 C.3   154  PHE154      0.1639
    163  C         -5.4320   24.0400  -21.5300 C.2   154  PHE154      0.2290
    164  O         -6.6200   24.3340  -21.6670 O.2   154  PHE154     -0.2864
    165  CB        -4.3260   24.1970  -19.3130 C.3   154  PHE154      0.0560
    166  CG        -3.9140   23.5600  -18.0050 C.ar  154  PHE154     -0.0200
    167  CD1       -2.6700   23.8450  -17.4510 C.ar  154  PHE154     -0.0042
    168  CD2       -4.7710   22.7040  -17.3170 C.ar  154  PHE154     -0.0042
    169  CE1       -2.2800   23.2870  -16.2400 C.ar  154  PHE154     -0.0003
    170  CE2       -4.3860   22.1340  -16.1020 C.ar  154  PHE154     -0.0003
    171  CZ        -3.1400   22.4240  -15.5660 C.ar  154  PHE154     -0.0000
    172  N         -7.1920   21.7110  -24.4120 N.3   157  HIS157     -0.1241
    173  CA        -8.0920   20.6870  -23.8410 C.3   157  HIS157      0.1621
    174  C         -7.8500   19.2520  -24.3350 C.2   157  HIS157      0.2264
    175  O         -8.6630   18.3590  -24.0880 O.2   157  HIS157     -0.2867
    176  CB        -9.5700   21.0900  -24.0120 C.3   157  HIS157      0.0745
    177  CG        -9.8720   22.4720  -23.5190 C.ar  157  HIS157      0.0817
    178  ND1       -9.9980   22.7730  -22.1810 N.ar  157  HIS157     -0.2268
    179  CD2      -10.0480   23.6380  -24.1850 C.ar  157  HIS157      0.1154
    180  CE1      -10.2520   24.0620  -22.0420 C.ar  157  HIS157      0.1986
    181  NE2      -10.2870   24.6100  -23.2440 N.ar  157  HIS157     -0.2212
    182  N         -6.0780   15.5460  -24.3430 N.3   159  LYS159     -0.1245
    183  CA        -5.7550   14.6770  -23.2030 C.3   159  LYS159      0.1561
    184  C         -5.1800   13.3240  -23.6170 C.2   159  LYS159      0.2260
    185  O         -5.5820   12.7470  -24.6360 O.2   159  LYS159     -0.2867
    186  CB        -6.9920   14.4480  -22.3200 C.3   159  LYS159      0.0271
    187  CG        -7.7260   15.7140  -21.8870 C.3   159  LYS159      0.0035
    188  CD        -8.9990   15.3800  -21.1190 C.3   159  LYS159      0.0206
    189  CE        -9.7500   16.6440  -20.7190 C.3   159  LYS159      0.1093
    190  NZ       -10.1900   17.4200  -21.9130 N.3   159  LYS159     -0.1314
    191  N        -12.8310   16.5680  -29.0960 N.3   176  ARG176     -0.1245
    192  CA       -13.2880   15.5440  -28.1310 C.3   176  ARG176      0.1563
    193  C        -13.5260   14.1760  -28.7710 C.2   176  ARG176      0.2260
    194  O        -14.2570   13.3380  -28.2350 O.2   176  ARG176     -0.2867
    195  CB       -14.5180   16.0100  -27.3380 C.3   176  ARG176      0.0307
    196  CG       -14.2570   17.2210  -26.4530 C.3   176  ARG176      0.0489
    197  CD       -15.5220   17.6810  -25.7590 C.3   176  ARG176      0.2205
    198  NE       -15.3490   19.0080  -25.1810 N.pl3 176  ARG176     -0.0865
    199  CZ       -16.3340   19.8720  -24.9590 C.cat 176  ARG176      0.5346
    200  NH1      -17.5870   19.5610  -25.2680 N.pl3 176  ARG176      0.1354
    201  NH2      -16.0620   21.0580  -24.4350 N.pl3 176  ARG176      0.1354
@<TRIPOS>BOND
     1   191   192    1
     2   193   194    2
     3   193   192    1
     4   192   195    1
     5   195   196    1
     6   196   197    1
     7   197   198    1
     8   200   199    1
     9   198   199    2
    10   199   201    1
    11   185   184    2
    12   172   173    1
    13   182   183    1
    14   174   175    2
    15   174   173    1
    16   179   177   ar
    17   179   181   ar
    18   176   173    1
    19   176   177    1
    20   184   183    1
    21   177   178   ar
    22   158   156   ar
    23   158   160   ar
    24   156   155   ar
    25   160   159   ar
    26   181   180   ar
    27   183   186    1
    28   155   154    1
    29   155   157   ar
    30   159   157   ar
    31   154   151    1
    32   186   187    1
    33   178   180   ar
    34   190   189    1
    35   153   152    2
    36   187   188    1
    37   164   163    2
    38   163   162    1
    39   151   152    1
    40   151   150    1
    41   125   123    1
    42   152   161   am
    43   188   189    1
    44   150   144   am
    45   124   123    1
    46   161   162    1
    47   123   122    1
    48   162   165    1
    49   128   127    1
    50   128   129    2
    51   127   130    1
    52   127   126    1
    53   144   143    1
    54   144   145    2
    55   143   142    1
    56   143   146    1
    57   165   166    1
    58   122   119    1
    59   148   147    2
    60   146   147    1
    61   147   149   am
    62   166   167   ar
    63   166   168   ar
    64   119   120    1
    65   119   118    1
    66   120   121    2
    67   167   169   ar
    68   168   170   ar
    69   118   112   am
    70   169   171   ar
    71     4     3    2
    72   170   171   ar
    73     2     5    1
    74     2     3    1
    75     2     1    1
    76     5     6    1
    77   112   113    2
    78   112   111    1
    79     3     7   am
    80   111   110    1
    81   111   114    1
    82    24    22   ar
    83    24    25   ar
    84    14    15    1
    85    14    13    1
    86   103   102    2
    87     7     8    1
    88    27    25   ar
    89    27    29   ar
    90    12    13    1
    91    12    11    1
    92    22    21   ar
    93    25    23   ar
    94   110   102   am
    95   114   115    1
    96   102   101    1
    97     8    11    1
    98     8     9    1
    99   117   115    1
   100    29    28   ar
   101   133   132    1
   102   133   134    2
   103   101   100    1
   104   101   104    1
   105   115   116    1
   106   136   137    1
   107   136   135    1
   108    21    23   ar
   109    21    20    1
   110     9    16   am
   111     9    10    2
   112   132   135    1
   113   132   131    1
   114    23    26   ar
   115    16    17    1
   116   137   138    1
   117    28    26   ar
   118   104   105    1
   119   106   105   ar
   120   106   108   ar
   121    20    17    1
   122    19    18    2
   123    17    18    1
   124   105   107   ar
   125   141   139    1
   126    99    98    1
   127    18    30   am
   128   138   139    2
   129   108   109   ar
   130   139   140    1
   131    91    90    2
   132    98    97   ar
   133    98    96   ar
   134    97    95   ar
   135   107   109   ar
   136    30    31    1
   137    96    94   ar
   138    90    89    1
   139    95    93   ar
   140    31    32    1
   141    31    34    1
   142    35    34    1
   143    41    42    1
   144    41    38    1
   145    44    42   ar
   146    94    93   ar
   147    37    32   am
   148    37    38    1
   149    93    92    1
   150    32    33    2
   151    34    36    1
   152    42    43   ar
   153    89    92    1
   154    89    88    1
   155    38    39    1
   156    40    39    2
   157    39    45   am
   158    80    79    2
   159    45    46    1
   160    79    78    1
   161    78    81    1
   162    78    77    1
   163    46    49    1
   164    46    47    1
   165    81    82    1
   166    68    67    2
   167    49    50    1
   168    82    84   ar
   169    82    83   ar
   170    47    48    2
   171    84    86   ar
   172    77    67   am
   173    67    66    1
   174    50    52   ar
   175    50    51   ar
   176    64    62   ar
   177    52    54   ar
   178    83    85   ar
   179    51    53   ar
   180    76    75    1
   181    86    87   ar
   182    62    61    1
   183    62    63   ar
   184    57    58    1
   185    74    75   ar
   186    74    72   ar
   187    61    58    1
   188    54    55   ar
   189    75    73   ar
   190    53    55   ar
   191    85    87   ar
   192    72    70   ar
   193    55    56    1
   194    66    65    1
   195    66    69    1
   196    58    59    1
   197    73    71   ar
   198    70    71   ar
   199    70    69    1
   200    59    60    2
