@<TRIPOS>MOLECULE
tmp/4e6aA00.pdb
 152 146 0 0 0
SMALL
GASTEIGER

@<TRIPOS>ATOM
      1  N          2.0260    2.2000   -8.2550 N.3   164  PRO164     -0.2102
      2  CA         2.3440    1.9130   -6.8690 C.3   164  PRO164      0.1504
      3  C          1.9160    3.0450   -5.9130 C.2   164  PRO164      0.2575
      4  O          1.4200    2.7600   -4.7980 O.2   164  PRO164     -0.2718
      5  CB         3.8620    1.7080   -6.8590 C.3   164  PRO164      0.0282
      6  CG         4.3610    2.0790   -8.2590 C.3   164  PRO164      0.0208
      7  CD         3.2080    2.2070   -9.1480 C.3   164  PRO164      0.0893
      8  N          2.0500    4.2990   -6.3400 N.am  165  GLU165     -0.1980
      9  CA         1.6450    5.4020   -5.4760 C.3   165  GLU165      0.1602
     10  C          0.1110    5.5060   -5.1950 C.2   165  GLU165      0.2287
     11  O         -0.2940    6.0190   -4.1310 O.2   165  GLU165     -0.2864
     12  CB         2.3230    6.7270   -5.8990 C.3   165  GLU165      0.0415
     13  CG         1.8280    7.3990   -7.1770 C.3   165  GLU165      0.1163
     14  CD         2.3100    6.7330   -8.4790 C.2   165  GLU165      0.3649
     15  OE1        3.0120    5.6810   -8.4390 O.co2 165  GLU165     -0.2457
     16  OE2        1.9110    7.2490   -9.5450 O.co2 165  GLU165     -0.2457
     17  N         -0.6480    2.5690   -2.8150 N.3   168  LEU168     -0.1231
     18  CA        -0.0690    2.7220   -1.4720 C.3   168  LEU168      0.1693
     19  C         -0.5380    3.9350   -0.6810 C.2   168  LEU168      0.2592
     20  O         -0.0230    4.2140    0.3900 O.2   168  LEU168     -0.2718
     21  CB         1.4550    2.7200   -1.5310 C.3   168  LEU168      0.0284
     22  CG         2.1450    1.3830   -1.7810 C.3   168  LEU168      0.0019
     23  CD1        3.5810    1.5360   -1.2980 C.3   168  LEU168      0.0001
     24  CD2        1.4300    0.2050   -1.0780 C.3   168  LEU168      0.0001
     25  N         -1.5140    4.6450   -1.2320 N.am  169  ASN169     -0.1960
     26  CA        -2.1380    5.8010   -0.5710 C.3   169  ASN169      0.1819
     27  C         -1.2100    7.0370   -0.4960 C.2   169  ASN169      0.2621
     28  O         -1.3890    7.8910    0.3690 O.2   169  ASN169     -0.2715
     29  CB        -2.6370    5.3940    0.8370 C.3   169  ASN169      0.1195
     30  CG        -3.7590    6.2690    1.3550 C.2   169  ASN169      0.2630
     31  OD1       -4.4540    6.9660    0.5890 O.2   169  ASN169     -0.2716
     32  ND2       -3.9660    6.2230    2.6840 N.am  169  ASN169     -0.0877
     33  N         -0.2370    7.1360   -1.4020 N.am  170  TRP170     -0.1960
     34  CA         0.7200    8.2530   -1.3690 C.3   170  TRP170      0.1771
     35  C          0.1300    9.4810   -2.0360 C.2   170  TRP170      0.2619
     36  O         -0.4150    9.4000   -3.1510 O.2   170  TRP170     -0.2715
     37  CB         2.0100    7.8530   -2.0660 C.3   170  TRP170      0.0590
     38  CG         3.1980    8.7280   -1.7820 C.ar  170  TRP170      0.0006
     39  CD1        3.3880    9.5560   -0.6940 C.ar  170  TRP170      0.0946
     40  CD2        4.3920    8.8250   -2.5800 C.ar  170  TRP170      0.0152
     41  NE1        4.6330   10.1530   -0.7720 N.ar  170  TRP170     -0.2442
     42  CE2        5.2600    9.7410   -1.9260 C.ar  170  TRP170      0.0810
     43  CE3        4.8030    8.2480   -3.8060 C.ar  170  TRP170      0.0012
     44  CZ2        6.5230   10.0870   -2.4530 C.ar  170  TRP170      0.0191
     45  CZ3        6.0590    8.5880   -4.3270 C.ar  170  TRP170      0.0001
     46  CH2        6.9010    9.5010   -3.6530 C.ar  170  TRP170      0.0015
     47  N          0.2420   10.6220   -1.3770 N.am  171  MET171     -0.1977
     48  CA        -0.3650   11.8260   -1.9130 C.3   171  MET171      0.1605
     49  C          0.4850   12.4400   -3.0330 C.2   171  MET171      0.2287
     50  O         -0.0140   13.2700   -3.7850 O.2   171  MET171     -0.2864
     51  CB        -0.6780   12.8270   -0.7890 C.3   171  MET171      0.0413
     52  CG         0.5120   13.6530   -0.2910 C.3   171  MET171      0.0598
     53  SD        -0.0640   15.0440    0.7310 S.3   171  MET171     -0.1393
     54  CE        -0.8500   16.0950   -0.5070 C.3   171  MET171      0.0692
     55  N          4.1280   -5.0560   -4.8910 N.3   205  LEU205     -0.1245
     56  CA         5.2290   -4.0670   -4.8400 C.3   205  LEU205      0.1561
     57  C          6.5910   -4.7330   -5.0400 C.2   205  LEU205      0.2260
     58  O          7.4770   -4.1920   -5.7090 O.2   205  LEU205     -0.2867
     59  CB         5.2080   -3.2770   -3.5380 C.3   205  LEU205      0.0270
     60  CG         6.1320   -2.0330   -3.5530 C.3   205  LEU205      0.0019
     61  CD1        5.4290   -0.8600   -4.2250 C.3   205  LEU205      0.0001
     62  CD2        6.5290   -1.6430   -2.1160 C.3   205  LEU205      0.0001
     63  N          9.2540   -3.6120   -7.8450 N.3   209  LEU209     -0.1245
     64  CA        10.6120   -3.1180   -7.5390 C.3   209  LEU209      0.1561
     65  C         11.7020   -3.9940   -8.1490 C.2   209  LEU209      0.2260
     66  O         12.7820   -3.5020   -8.5240 O.2   209  LEU209     -0.2867
     67  CB        10.8330   -2.9610   -6.0370 C.3   209  LEU209      0.0270
     68  CG         9.8880   -1.9610   -5.3210 C.3   209  LEU209      0.0019
     69  CD1       10.3660   -1.7480   -3.9090 C.3   209  LEU209      0.0001
     70  CD2        9.8770   -0.6500   -6.0220 C.3   209  LEU209      0.0001
     71  N         13.7530    2.4620   -4.6090 N.3   215  PRO215     -0.2116
     72  CA        13.8710    3.9040   -4.8610 C.3   215  PRO215      0.1372
     73  C         15.3040    4.4270   -4.6710 C.2   215  PRO215      0.2244
     74  O         15.9810    4.0090   -3.7220 O.2   215  PRO215     -0.2868
     75  CB        12.9470    4.5250   -3.8210 C.3   215  PRO215      0.0268
     76  CG        12.0260    3.4510   -3.3930 C.3   215  PRO215      0.0207
     77  CD        12.5630    2.1170   -3.8200 C.3   215  PRO215      0.0892
     78  N         14.4170    9.8910   -5.1100 N.3   219  LEU219     -0.1245
     79  CA        12.9950    9.6600   -4.8880 C.3   219  LEU219      0.1561
     80  C         12.7490    9.6350   -3.3680 C.2   219  LEU219      0.2260
     81  O         11.7460   10.1800   -2.9040 O.2   219  LEU219     -0.2867
     82  CB        12.4910    8.3810   -5.6090 C.3   219  LEU219      0.0270
     83  CG        11.0710    7.9180   -5.2800 C.3   219  LEU219      0.0019
     84  CD1       10.0210    9.0460   -5.5330 C.3   219  LEU219      0.0001
     85  CD2       10.6880    6.6060   -6.0210 C.3   219  LEU219      0.0001
     86  N          9.7770   11.5910    0.2020 N.3   223  ILE223     -0.1231
     87  CA         8.9760   10.8010    1.1090 C.3   223  ILE223      0.1692
     88  C          8.9680   11.4460    2.4940 C.2   223  ILE223      0.2593
     89  O          9.9930   11.4760    3.1700 O.2   223  ILE223     -0.2718
     90  CB         9.5320    9.3730    1.2040 C.3   223  ILE223      0.0266
     91  CG1        9.3980    8.6890   -0.1490 C.3   223  ILE223      0.0019
     92  CG2        8.8180    8.5710    2.3190 C.3   223  ILE223      0.0020
     93  CD1       10.2160    7.4300   -0.2190 C.3   223  ILE223      0.0001
     94  N          7.7950   11.9010    2.9170 N.am  224  SER224     -0.1938
     95  CA         7.6460   12.6880    4.1440 C.3   224  SER224      0.2055
     96  C          7.4970   11.9080    5.4670 C.2   224  SER224      0.2643
     97  O          7.6470   12.4870    6.5510 O.2   224  SER224     -0.2714
     98  CB         6.4510   13.6160    3.9860 C.3   224  SER224      0.2130
     99  OG         5.8710   13.8690    5.2500 O.3   224  SER224     -0.2179
    100  N          7.1870   10.6150    5.3880 N.am  225  SER225     -0.1949
    101  CA         6.9830    9.7880    6.5700 C.3   225  SER225      0.1924
    102  C          8.2270    8.9900    6.9250 C.2   225  SER225      0.2314
    103  O          8.7650    8.2650    6.0900 O.2   225  SER225     -0.2863
    104  CB         5.8070    8.8420    6.3240 C.3   225  SER225      0.2116
    105  OG         5.8980    7.6630    7.1250 O.3   225  SER225     -0.2180
    106  N          8.5250    6.4440    8.9760 N.3   227  SER227     -0.1202
    107  CA         8.3000    4.9980    9.0360 C.3   227  SER227      0.2020
    108  C          8.3010    4.4510    7.6080 C.2   227  SER227      0.2618
    109  O          8.9390    3.4320    7.3350 O.2   227  SER227     -0.2717
    110  CB         7.0420    4.6340    9.8270 C.3   227  SER227      0.2103
    111  OG         5.9040    5.2560    9.2810 O.3   227  SER227     -0.2182
    112  N          7.6670    5.1850    6.6870 N.am  228  ALA228     -0.1979
    113  CA         7.7290    4.8490    5.2640 C.3   228  ALA228      0.1597
    114  C          9.1690    4.8290    4.7380 C.2   228  ALA228      0.2287
    115  O          9.5590    3.8950    4.0320 O.2   228  ALA228     -0.2864
    116  CB         6.8910    5.8090    4.4560 C.3   228  ALA228      0.0319
    117  N         11.0220    1.8260    6.2740 N.3   231  TYR231     -0.1227
    118  CA        10.4900    0.6500    5.6060 C.3   231  TYR231      0.1736
    119  C         11.1780    0.3810    4.2900 C.2   231  TYR231      0.2595
    120  O         11.7050   -0.7040    4.0770 O.2   231  TYR231     -0.2718
    121  CB         9.0170    0.8410    5.3130 C.3   231  TYR231      0.0548
    122  CG         8.3280   -0.3840    4.7660 C.ar  231  TYR231     -0.0200
    123  CD1        8.4690   -1.6350    5.3950 C.ar  231  TYR231     -0.0009
    124  CD2        7.5010   -0.2980    3.6520 C.ar  231  TYR231     -0.0009
    125  CE1        7.8080   -2.7790    4.9060 C.ar  231  TYR231      0.0417
    126  CE2        6.8320   -1.4290    3.1540 C.ar  231  TYR231      0.0417
    127  CZ         6.9860   -2.6680    3.7840 C.ar  231  TYR231      0.1957
    128  OH         6.3120   -3.7860    3.2990 O.3   231  TYR231     -0.2866
    129  N         11.1440    1.3780    3.4080 N.am  232  ILE232     -0.1980
    130  CA        11.7410    1.2920    2.0790 C.3   232  ILE232      0.1595
    131  C         13.2170    0.9130    2.1610 C.2   232  ILE232      0.2287
    132  O         13.6270   -0.0780    1.5670 O.2   232  ILE232     -0.2864
    133  CB        11.5410    2.6200    1.2960 C.3   232  ILE232      0.0276
    134  CG1       10.1110    2.7060    0.7600 C.3   232  ILE232      0.0022
    135  CG2       12.5250    2.7520    0.1500 C.3   232  ILE232      0.0022
    136  CD1        9.5490    4.1020    0.8050 C.3   232  ILE232      0.0001
    137  N         14.4060   -2.6340    2.9480 N.3   235  LEU235     -0.1245
    138  CA        14.3610   -3.6510    1.8750 C.3   235  LEU235      0.1561
    139  C         15.7500   -3.8840    1.2440 C.2   235  LEU235      0.2260
    140  O         16.6350   -3.0020    1.2750 O.2   235  LEU235     -0.2867
    141  CB        13.3740   -3.2760    0.7710 C.3   235  LEU235      0.0270
    142  CG        11.9550   -2.8040    1.0620 C.3   235  LEU235      0.0019
    143  CD1       11.4580   -2.0250   -0.1450 C.3   235  LEU235      0.0001
    144  CD2       11.0210   -3.9470    1.3930 C.3   235  LEU235      0.0001
    145  N          9.1660    4.6530  -11.4080 N.3   264  LEU264     -0.1245
    146  CA         8.5880    4.7510  -10.0750 C.3   264  LEU264      0.1561
    147  C          8.2350    6.2060   -9.6840 C.2   264  LEU264      0.2260
    148  O          7.1520    6.4650   -9.1700 O.2   264  LEU264     -0.2867
    149  CB         9.5820    4.1430   -9.0930 C.3   264  LEU264      0.0270
    150  CG         9.1040    3.5520   -7.8070 C.3   264  LEU264      0.0019
    151  CD1        8.0660    2.4680   -8.1000 C.3   264  LEU264      0.0001
    152  CD2       10.3460    3.0120   -7.0860 C.3   264  LEU264      0.0001
@<TRIPOS>BOND
     1   145   146    1
     2   146   147    1
     3   146   149    1
     4   147   148    2
     5    16    14   ar
     6     7     6    1
     7     7     1    1
     8   149   150    1
     9    66    65    2
    10    14    15   ar
    11    14    13    1
    12     6     5    1
    13     1     2    1
    14    65    64    1
    15   151   150    1
    16    63    64    1
    17   150   152    1
    18    64    67    1
    19    13    12    1
    20     2     5    1
    21     2     3    1
    22     8     3   am
    23     8     9    1
    24    67    68    1
    25    70    68    1
    26    85    83    1
    27     3     4    2
    28    12     9    1
    29    58    57    2
    30    82    83    1
    31    82    79    1
    32    84    83    1
    33     9    10    1
    34    68    69    1
    35    10    11    2
    36    78    79    1
    37    57    56    1
    38    55    56    1
    39    79    80    1
    40    72    73    1
    41    72    71    1
    42    72    75    1
    43    56    59    1
    44    73    74    2
    45    71    77    1
    46    45    43   ar
    47    45    46   ar
    48    61    60    1
    49    75    76    1
    50    77    76    1
    51    43    40   ar
    52    50    49    2
    53    46    44   ar
    54    60    59    1
    55    60    62    1
    56    80    81    2
    57    36    35    2
    58    49    48    1
    59    17    18    1
    60    40    42   ar
    61    40    38   ar
    62    44    42   ar
    63    37    38    1
    64    37    34    1
    65    35    47   am
    66    35    34    1
    67    42    41   ar
    68    48    47    1
    69    48    51    1
    70    38    39   ar
    71    22    21    1
    72    22    23    1
    73    22    24    1
    74    21    18    1
    75    18    19    1
    76    33    34    1
    77    33    27   am
    78    25    19   am
    79    25    26    1
    80    51    52    1
    81    41    39   ar
    82    19    20    2
    83    26    27    1
    84    26    29    1
    85    54    53    1
    86    27    28    2
    87    52    53    1
    88    93    91    1
    89    91    90    1
    90   143   142    1
    91   135   133    1
    92    86    87    1
    93    31    30    2
    94   134   136    1
    95   134   133    1
    96   141   142    1
    97   141   138    1
    98    29    30    1
    99   142   144    1
   100    87    90    1
   101    87    88    1
   102    90    92    1
   103   139   140    2
   104   139   138    1
   105   133   130    1
   106    30    32   am
   107   132   131    2
   108   138   137    1
   109   130   131    1
   110   130   129    1
   111    88    94   am
   112    88    89    2
   113    94    95    1
   114   126   124   ar
   115   126   127   ar
   116   128   127    1
   117   129   119   am
   118   124   122   ar
   119   127   125   ar
   120    98    95    1
   121    98    99    1
   122   115   114    2
   123   120   119    2
   124    95    96    1
   125   119   118    1
   126   116   113    1
   127   114   113    1
   128   122   121    1
   129   122   123   ar
   130   125   123   ar
   131   113   112    1
   132   121   118    1
   133   100    96   am
   134   100   101    1
   135    96    97    2
   136   118   117    1
   137   103   102    2
   138   104   101    1
   139   104   105    1
   140   101   102    1
   141   112   108   am
   142   109   108    2
   143   108   107    1
   144   106   107    1
   145   107   110    1
   146   111   110    1
