@<TRIPOS>MOLECULE
tmp/4e6cA00.pdb
 124 118 0 0 0
SMALL
GASTEIGER

@<TRIPOS>ATOM
      1  N          1.8550    2.3010   -8.3210 N.3   170  PRO170     -0.2102
      2  CA         2.1930    1.9600   -6.9500 C.3   170  PRO170      0.1504
      3  C          1.9980    3.0870   -5.9530 C.2   170  PRO170      0.2575
      4  O          2.0360    2.8250   -4.7550 O.2   170  PRO170     -0.2718
      5  CB         3.6900    1.6400   -7.0080 C.3   170  PRO170      0.0282
      6  CG         4.0690    1.7170   -8.4460 C.3   170  PRO170      0.0208
      7  CD         3.0660    2.5360   -9.1210 C.3   170  PRO170      0.0893
      8  N          1.8290    4.3260   -6.4170 N.am  171  GLU171     -0.1980
      9  CA         1.5640    5.4220   -5.4900 C.3   171  GLU171      0.1602
     10  C          0.0700    5.4570   -5.1750 C.2   171  GLU171      0.2287
     11  O         -0.2950    5.8340   -4.0710 O.2   171  GLU171     -0.2864
     12  CB         2.1270    6.7850   -5.9700 C.3   171  GLU171      0.0415
     13  CG         1.4910    7.3370   -7.2440 C.3   171  GLU171      0.1163
     14  CD         2.0840    6.7820   -8.5500 C.2   171  GLU171      0.3649
     15  OE1        2.9400    5.8390   -8.5560 O.co2 171  GLU171     -0.2457
     16  OE2        1.6580    7.2950   -9.5900 O.co2 171  GLU171     -0.2457
     17  N         -0.6530    2.4980   -2.8180 N.3   174  LEU174     -0.1231
     18  CA        -0.0940    2.6690   -1.4450 C.3   174  LEU174      0.1693
     19  C         -0.5550    3.9310   -0.6750 C.2   174  LEU174      0.2592
     20  O          0.0120    4.3000    0.3440 O.2   174  LEU174     -0.2718
     21  CB         1.4530    2.6180   -1.4920 C.3   174  LEU174      0.0284
     22  CG         2.0810    1.3760   -2.1300 C.3   174  LEU174      0.0019
     23  CD1        3.6080    1.5080   -2.1550 C.3   174  LEU174      0.0001
     24  CD2        1.6240    0.0870   -1.4070 C.3   174  LEU174      0.0001
     25  N         -1.5970    4.5790   -1.1710 N.am  175  ASN175     -0.1960
     26  CA        -2.0520    5.8770   -0.6360 C.3   175  ASN175      0.1819
     27  C         -1.0780    7.0640   -0.5890 C.2   175  ASN175      0.2621
     28  O         -1.2530    7.9400    0.2440 O.2   175  ASN175     -0.2715
     29  CB        -2.7550    5.7110    0.7180 C.3   175  ASN175      0.1195
     30  CG        -4.2470    5.8370    0.5890 C.2   175  ASN175      0.2630
     31  OD1       -4.8100    6.9280    0.8030 O.2   175  ASN175     -0.2716
     32  ND2       -4.9070    4.7410    0.1710 N.am  175  ASN175     -0.0877
     33  N         -0.1010    7.0910   -1.5000 N.am  176  TRP176     -0.1974
     34  CA         0.9300    8.1510   -1.6190 C.3   176  TRP176      0.1640
     35  C          0.3330    9.4300   -2.2360 C.2   176  TRP176      0.2290
     36  O         -0.2130    9.3940   -3.3490 O.2   176  TRP176     -0.2864
     37  CB         2.1130    7.5920   -2.4490 C.3   176  TRP176      0.0576
     38  CG         3.4800    8.3160   -2.4870 C.ar  176  TRP176      0.0006
     39  CD1        4.4290    8.2430   -3.5150 C.ar  176  TRP176      0.0946
     40  CD2        4.0610    9.1660   -1.4810 C.ar  176  TRP176      0.0152
     41  NE1        5.5350    9.0110   -3.1990 N.ar  176  TRP176     -0.2442
     42  CE2        5.3370    9.5840   -1.9640 C.ar  176  TRP176      0.0810
     43  CE3        3.6320    9.6170   -0.2240 C.ar  176  TRP176      0.0012
     44  CZ2        6.1830   10.4400   -1.2190 C.ar  176  TRP176      0.0191
     45  CZ3        4.4880   10.4730    0.5360 C.ar  176  TRP176      0.0001
     46  CH2        5.7370   10.8840    0.0260 C.ar  176  TRP176      0.0015
     47  N          4.2000   -4.9840   -4.9760 N.3   211  LEU211     -0.1245
     48  CA         5.2540   -3.9910   -4.8450 C.3   211  LEU211      0.1561
     49  C          6.6060   -4.6370   -5.0740 C.2   211  LEU211      0.2260
     50  O          7.4590   -4.0750   -5.7620 O.2   211  LEU211     -0.2867
     51  CB         5.1830   -3.2970   -3.4790 C.3   211  LEU211      0.0270
     52  CG         6.2870   -2.2340   -3.2800 C.3   211  LEU211      0.0019
     53  CD1        6.1770   -1.0660   -4.3020 C.3   211  LEU211      0.0001
     54  CD2        6.3980   -1.7270   -1.8170 C.3   211  LEU211      0.0001
     55  N          9.2370   -3.5780   -7.8040 N.3   215  LEU215     -0.1245
     56  CA        10.5940   -3.1200   -7.4670 C.3   215  LEU215      0.1561
     57  C         11.6990   -3.9880   -8.0540 C.2   215  LEU215      0.2260
     58  O         12.7640   -3.4650   -8.3790 O.2   215  LEU215     -0.2867
     59  CB        10.7900   -2.9450   -5.9520 C.3   215  LEU215      0.0270
     60  CG         9.9340   -1.8660   -5.3020 C.3   215  LEU215      0.0019
     61  CD1       10.2650   -1.8450   -3.7970 C.3   215  LEU215      0.0001
     62  CD2       10.0390   -0.4770   -5.9880 C.3   215  LEU215      0.0001
     63  N         13.6230    2.3410   -4.5870 N.3   221  PRO221     -0.2116
     64  CA        13.7760    3.7910   -4.7500 C.3   221  PRO221      0.1372
     65  C         15.2040    4.2680   -4.4420 C.2   221  PRO221      0.2244
     66  O         15.8250    3.8200   -3.4670 O.2   221  PRO221     -0.2868
     67  CB        12.7780    4.3880   -3.7460 C.3   221  PRO221      0.0268
     68  CG        11.8750    3.2580   -3.3440 C.3   221  PRO221      0.0207
     69  CD        12.5880    1.9780   -3.6010 C.3   221  PRO221      0.0892
     70  N         14.3870    9.8930   -5.0740 N.3   225  LEU225     -0.1245
     71  CA        12.9700    9.6410   -4.7570 C.3   225  LEU225      0.1561
     72  C         12.7040    9.5470   -3.2370 C.2   225  LEU225      0.2260
     73  O         11.6250    9.9320   -2.7490 O.2   225  LEU225     -0.2867
     74  CB        12.4540    8.3750   -5.4830 C.3   225  LEU225      0.0270
     75  CG        10.9730    8.0060   -5.2970 C.3   225  LEU225      0.0019
     76  CD1       10.1080    9.0390   -5.9480 C.3   225  LEU225      0.0001
     77  CD2       10.6250    6.6430   -5.8290 C.3   225  LEU225      0.0001
     78  N          9.7030   11.5150    0.2450 N.3   229  ILE229     -0.1245
     79  CA         8.9310   10.7630    1.2290 C.3   229  ILE229      0.1561
     80  C          9.0060   11.3550    2.6440 C.2   229  ILE229      0.2260
     81  O         10.0660   11.3850    3.2690 O.2   229  ILE229     -0.2867
     82  CB         9.3300    9.2540    1.2660 C.3   229  ILE229      0.0252
     83  CG1        9.2190    8.6150   -0.1190 C.3   229  ILE229      0.0019
     84  CG2        8.4730    8.4750    2.3280 C.3   229  ILE229      0.0019
     85  CD1        9.8740    7.2780   -0.1440 C.3   229  ILE229      0.0001
     86  N          7.0310   10.5300    5.5580 N.3   231  SER231     -0.1217
     87  CA         6.8740    9.5910    6.6770 C.3   231  SER231      0.1889
     88  C          8.1980    8.8990    6.9420 C.2   231  SER231      0.2288
     89  O          8.8230    8.3690    6.0190 O.2   231  SER231     -0.2866
     90  CB         5.7820    8.5420    6.3770 C.3   231  SER231      0.2089
     91  OG         5.4830    7.6560    7.4800 O.3   231  SER231     -0.2183
     92  N          7.8000    5.1390    6.8600 N.3   234  ALA234     -0.1245
     93  CA         7.7200    4.7610    5.4440 C.3   234  ALA234      0.1562
     94  C          9.1090    4.6690    4.8490 C.2   234  ALA234      0.2260
     95  O          9.4220    3.7060    4.1550 O.2   234  ALA234     -0.2867
     96  CB         6.9020    5.7670    4.6610 C.3   234  ALA234      0.0290
     97  N         11.0540    1.6480    6.3240 N.3   237  TYR237     -0.1227
     98  CA        10.5340    0.4550    5.6540 C.3   237  TYR237      0.1736
     99  C         11.2030    0.2450    4.2980 C.2   237  TYR237      0.2595
    100  O         11.7620   -0.8140    4.0230 O.2   237  TYR237     -0.2718
    101  CB         9.0430    0.6180    5.4500 C.3   237  TYR237      0.0548
    102  CG         8.3290   -0.6050    4.9140 C.ar  237  TYR237     -0.0200
    103  CD1        7.6660   -1.4530    5.7860 C.ar  237  TYR237     -0.0009
    104  CD2        8.2880   -0.9000    3.5440 C.ar  237  TYR237     -0.0009
    105  CE1        6.9810   -2.5630    5.3400 C.ar  237  TYR237      0.0417
    106  CE2        7.6180   -2.0330    3.0770 C.ar  237  TYR237      0.0417
    107  CZ         6.9510   -2.8700    3.9980 C.ar  237  TYR237      0.1957
    108  OH         6.2290   -4.0250    3.6330 O.3   237  TYR237     -0.2866
    109  N         11.1410    1.2850    3.4740 N.am  238  ILE238     -0.1980
    110  CA        11.6760    1.2880    2.1280 C.3   238  ILE238      0.1595
    111  C         13.1680    0.9060    2.1020 C.2   238  ILE238      0.2287
    112  O         13.5790    0.0650    1.3020 O.2   238  ILE238     -0.2864
    113  CB        11.3450    2.6510    1.4120 C.3   238  ILE238      0.0276
    114  CG1        9.8640    2.6800    1.0090 C.3   238  ILE238      0.0022
    115  CG2       12.2270    2.8920    0.1750 C.3   238  ILE238      0.0022
    116  CD1        9.2850    4.0690    0.8160 C.3   238  ILE238      0.0001
    117  N          8.9920    4.7920  -11.3720 N.3   270  LEU270     -0.1245
    118  CA         8.4260    4.8880  -10.0120 C.3   270  LEU270      0.1561
    119  C          8.1100    6.3450   -9.6090 C.2   270  LEU270      0.2260
    120  O          7.0070    6.6280   -9.1910 O.2   270  LEU270     -0.2867
    121  CB         9.3710    4.2140   -9.0220 C.3   270  LEU270      0.0270
    122  CG         8.7580    3.5980   -7.7720 C.3   270  LEU270      0.0019
    123  CD1        7.7170    2.5240   -8.1170 C.3   270  LEU270      0.0001
    124  CD2        9.9490    3.0710   -6.9000 C.3   270  LEU270      0.0001
@<TRIPOS>BOND
     1   117   118    1
     2   118   119    1
     3   118   121    1
     4   119   120    2
     5    16    14   ar
     6     7     6    1
     7     7     1    1
     8   121   122    1
     9    15    14   ar
    10    14    13    1
    11     6     5    1
    12    58    57    2
    13     1     2    1
    14   123   122    1
    15    57    56    1
    16    55    56    1
    17   122   124    1
    18    56    59    1
    19    13    12    1
    20     5     2    1
    21     2     3    1
    22     8     3   am
    23     8     9    1
    24    62    60    1
    25    12     9    1
    26     3     4    2
    27    59    60    1
    28    76    75    1
    29    77    75    1
    30    50    49    2
    31     9    10    1
    32    74    75    1
    33    74    71    1
    34    60    61    1
    35    10    11    2
    36    70    71    1
    37    49    48    1
    38    47    48    1
    39    48    51    1
    40    71    72    1
    41    64    63    1
    42    64    65    1
    43    64    67    1
    44    63    69    1
    45    65    66    2
    46    53    52    1
    47    67    68    1
    48    69    68    1
    49    39    41   ar
    50    39    38   ar
    51    51    52    1
    52    36    35    2
    53    52    54    1
    54    72    73    2
    55    41    42   ar
    56    17    18    1
    57    38    37    1
    58    38    40   ar
    59    37    34    1
    60    35    34    1
    61    23    22    1
    62    22    21    1
    63    22    24    1
    64    42    40   ar
    65    42    44   ar
    66    34    33    1
    67    33    27   am
    68    21    18    1
    69    40    43   ar
    70    18    19    1
    71    44    46   ar
    72    25    19   am
    73    25    26    1
    74    19    20    2
    75    26    27    1
    76    26    29    1
    77    27    28    2
    78    43    45   ar
    79    85    83    1
    80    83    82    1
    81    46    45   ar
    82    32    30   am
    83   115   113    1
    84    78    79    1
    85    30    29    1
    86    30    31    2
    87   116   114    1
    88   114   113    1
    89    79    82    1
    90    79    80    1
    91    82    84    1
    92   112   111    2
    93   113   110    1
    94   111   110    1
    95   110   109    1
    96    80    81    2
    97   106   104   ar
    98   106   107   ar
    99   109    99   am
   100   104   102   ar
   101   108   107    1
   102   107   105   ar
   103   100    99    2
   104    95    94    2
   105    99    98    1
   106    96    93    1
   107    94    93    1
   108   102   101    1
   109   102   103   ar
   110   105   103   ar
   111    93    92    1
   112   101    98    1
   113    86    87    1
   114    98    97    1
   115    89    88    2
   116    90    87    1
   117    90    91    1
   118    87    88    1
