@<TRIPOS>MOLECULE
tmp/4e6dB00.pdb
 148 139 0 0 0
SMALL
GASTEIGER

@<TRIPOS>ATOM
      1  N          2.0120  -36.9990   14.1520 N.3    16  LEU16      -0.1231
      2  CA         1.1390  -37.0690   15.3230 C.3    16  LEU16       0.1693
      3  C         -0.3090  -36.7230   14.9710 C.2    16  LEU16       0.2593
      4  O         -1.2430  -37.2480   15.5810 O.2    16  LEU16      -0.2718
      5  CB         1.6520  -36.1400   16.4420 C.3    16  LEU16       0.0284
      6  CG         2.9560  -36.5350   17.1500 C.3    16  LEU16       0.0019
      7  CD1        3.4440  -35.4120   18.0970 C.3    16  LEU16       0.0001
      8  CD2        2.6970  -37.8070   17.9390 C.3    16  LEU16       0.0001
      9  N         -0.4900  -35.8450   13.9830 N.am   17  GLY17      -0.1942
     10  CA        -1.8340  -35.4790   13.5550 C.3    17  GLY17       0.2014
     11  C         -1.7650  -34.5450   12.3670 C.2    17  GLY17       0.2639
     12  O         -0.6790  -34.1790   11.9180 O.2    17  GLY17      -0.2714
     13  N         -2.9260  -34.1230   11.8870 N.am   18  LYS18      -0.1963
     14  CA        -2.9750  -33.1520   10.7980 C.3    18  LYS18       0.1728
     15  C         -4.2070  -32.2630   10.9610 C.2    18  LYS18       0.2616
     16  O         -5.2040  -32.6880   11.5430 O.2    18  LYS18      -0.2715
     17  CB        -3.0270  -33.8790    9.4540 C.3    18  LYS18       0.0311
     18  CG        -4.1380  -34.8970    9.3820 C.3    18  LYS18       0.0038
     19  CD        -4.2390  -35.5270    7.9790 C.3    18  LYS18       0.0206
     20  CE        -3.2070  -36.6700    7.7560 C.3    18  LYS18       0.1093
     21  NZ        -3.3450  -37.3670    6.4130 N.3    18  LYS18      -0.1314
     22  N         -4.1200  -31.0290   10.4630 N.am   19  GLY19      -0.1955
     23  CA        -5.2660  -30.1380   10.3690 C.3    19  GLY19       0.1869
     24  C         -5.5690  -29.9410    8.8820 C.2    19  GLY19       0.2309
     25  O         -5.1060  -30.7220    8.0400 O.2    19  GLY19      -0.2863
     26  N         -2.1650  -28.0230    7.8590 N.3    22  GLY22      -0.1210
     27  CA        -1.0090  -28.2120    8.7020 C.3    22  GLY22       0.1956
     28  C         -0.9880  -29.6010    9.3000 C.2    22  GLY22       0.2613
     29  O         -1.9740  -30.3530    9.1990 O.2    22  GLY22      -0.2717
     30  N          0.1490  -29.9290    9.9220 N.am   23  SER23      -0.1938
     31  CA         0.3220  -31.2050   10.5910 C.3    23  SER23       0.2055
     32  C          1.3480  -31.0450   11.7060 C.2    23  SER23       0.2642
     33  O          2.1570  -30.1130   11.7140 O.2    23  SER23      -0.2714
     34  CB         0.8140  -32.2820    9.6230 C.3    23  SER23       0.2130
     35  OG         2.1290  -31.9780    9.1900 O.3    23  SER23      -0.2179
     36  N          1.3200  -31.9880   12.6290 N.am   24  VAL24      -0.1977
     37  CA         2.2150  -31.9660   13.7700 C.3    24  VAL24       0.1596
     38  C          3.0010  -33.2770   13.7780 C.2    24  VAL24       0.2287
     39  O          2.4290  -34.3730   13.6270 O.2    24  VAL24      -0.2864
     40  CB         1.4030  -31.8420   15.0620 C.3    24  VAL24       0.0276
     41  CG1        2.3170  -31.9590   16.2900 C.3    24  VAL24       0.0022
     42  CG2        0.6030  -30.5290   15.0280 C.3    24  VAL24       0.0022
     43  N          7.3630  -31.7710   19.8010 N.3    41  ALA41      -0.1245
     44  CA         6.3190  -31.7600   18.7940 C.3    41  ALA41       0.1562
     45  C          6.5750  -30.6020   17.8550 C.2    41  ALA41       0.2260
     46  O          6.8230  -29.4650   18.3010 O.2    41  ALA41      -0.2867
     47  CB         4.9170  -31.6280   19.4660 C.3    41  ALA41       0.0290
     48  N          5.0480  -28.4190   14.6610 N.3    43  LYS43      -0.1245
     49  CA         3.8990  -28.1280   13.8230 C.3    43  LYS43       0.1561
     50  C          4.3950  -27.3900   12.5760 C.2    43  LYS43       0.2260
     51  O          5.1970  -26.4630   12.6720 O.2    43  LYS43      -0.2867
     52  CB         2.8710  -27.2730   14.5900 C.3    43  LYS43       0.0271
     53  CG         1.7200  -26.7980   13.6980 C.3    43  LYS43       0.0035
     54  CD         0.4610  -26.5980   14.4740 C.3    43  LYS43       0.0206
     55  CE        -0.7070  -26.2380   13.5570 C.3    43  LYS43       0.1093
     56  NZ        -1.9130  -25.9120   14.3920 N.3    43  LYS43      -0.1314
     57  N         -0.5990  -26.2040   26.3260 N.3    72  VAL72      -0.1245
     58  CA         0.6230  -26.8750   25.8560 C.3    72  VAL72       0.1561
     59  C          1.7540  -25.8260   25.7360 C.2    72  VAL72       0.2260
     60  O          1.4960  -24.6580   25.4040 O.2    72  VAL72      -0.2867
     61  CB         0.3960  -27.6560   24.5130 C.3    72  VAL72       0.0252
     62  CG1        0.2170  -26.6810   23.3570 C.3    72  VAL72       0.0019
     63  CG2        1.5680  -28.6010   24.2190 C.3    72  VAL72       0.0019
     64  N          6.8720  -27.3630   20.0430 N.3    85  MET85      -0.1230
     65  CA         6.1660  -27.3980   21.3410 C.3    85  MET85       0.1702
     66  C          6.6060  -28.6250   22.1130 C.2    85  MET85       0.2592
     67  O          7.2090  -29.5440   21.5400 O.2    85  MET85      -0.2718
     68  CB         4.6560  -27.5170   21.1230 C.3    85  MET85       0.0401
     69  CG         4.0880  -26.4780   20.1550 C.3    85  MET85       0.0596
     70  SD         2.3800  -26.8370   19.6900 S.3    85  MET85      -0.1393
     71  CE         2.6170  -27.8360   18.1990 C.3    85  MET85       0.0692
     72  N          6.2850  -28.6810   23.3980 N.am   86  GLU86      -0.1966
     73  CA         6.6230  -29.8770   24.1660 C.3    86  GLU86       0.1733
     74  C          5.7970  -31.0220   23.6110 C.2    86  GLU86       0.2616
     75  O          4.6980  -30.8260   23.0710 O.2    86  GLU86      -0.2715
     76  CB         6.2700  -29.6850   25.6460 C.3    86  GLU86       0.0429
     77  CG         4.7600  -29.4860   25.8660 C.3    86  GLU86       0.1163
     78  CD         4.3790  -29.3960   27.3680 C.2    86  GLU86       0.3649
     79  OE1        3.2990  -28.8470   27.6910 O.co2  86  GLU86      -0.2457
     80  OE2        5.1640  -29.8670   28.2100 O.co2  86  GLU86      -0.2457
     81  N          6.3050  -32.2240   23.7830 N.am   87  PHE87      -0.1960
     82  CA         5.6560  -33.4170   23.2840 C.3    87  PHE87       0.1771
     83  C          4.9080  -34.0460   24.4370 C.2    87  PHE87       0.2619
     84  O          5.4900  -34.2090   25.5020 O.2    87  PHE87      -0.2715
     85  CB         6.7550  -34.3800   22.8230 C.3    87  PHE87       0.0574
     86  CG         6.2570  -35.7470   22.5290 C.ar   87  PHE87      -0.0200
     87  CD1        5.1670  -35.9180   21.6890 C.ar   87  PHE87      -0.0042
     88  CD2        6.8640  -36.8630   23.0940 C.ar   87  PHE87      -0.0042
     89  CE1        4.6770  -37.1860   21.4150 C.ar   87  PHE87      -0.0003
     90  CE2        6.3790  -38.1310   22.8320 C.ar   87  PHE87      -0.0003
     91  CZ         5.2830  -38.2980   21.9880 C.ar   87  PHE87      -0.0000
     92  N          3.6220  -34.3610   24.2540 N.am   88  LEU88      -0.1977
     93  CA         2.8810  -35.0860   25.2940 C.3    88  LEU88       0.1596
     94  C          2.5200  -36.4840   24.7820 C.2    88  LEU88       0.2287
     95  O          1.5680  -36.6460   24.0230 O.2    88  LEU88      -0.2864
     96  CB         1.6140  -34.3380   25.7420 C.3    88  LEU88       0.0297
     97  CG         1.6800  -32.8820   26.2640 C.3    88  LEU88       0.0022
     98  CD1        0.5410  -32.6200   27.2240 C.3    88  LEU88       0.0001
     99  CD2        2.9680  -32.5930   26.9310 C.3    88  LEU88       0.0001
    100  N         -0.8200  -38.1880   24.2210 N.3    91  GLY91      -0.1210
    101  CA        -1.6040  -37.7390   23.0770 C.3    91  GLY91       0.1956
    102  C         -2.9670  -37.1750   23.4590 C.2    91  GLY91       0.2612
    103  O         -3.1710  -36.6780   24.5860 O.2    91  GLY91      -0.2717
    104  N         -3.9100  -37.2980   22.5330 N.am   92  SER92      -0.1952
    105  CA        -5.1940  -36.6040   22.6030 C.3    92  SER92       0.1924
    106  C         -6.1200  -37.1340   23.7000 C.2    92  SER92       0.2314
    107  O         -6.2540  -38.3410   23.8650 O.2    92  SER92      -0.2863
    108  CB        -5.9420  -36.7880   21.2560 C.3    92  SER92       0.2116
    109  OG        -7.2850  -36.3000   21.3900 O.3    92  SER92      -0.2180
    110  N        -10.4230  -33.5830   20.5890 N.3   136  ARG136     -0.1231
    111  CA        -9.2950  -33.9740   19.7420 C.3   136  ARG136      0.1694
    112  C         -8.1700  -32.9220   19.8510 C.2   136  ARG136      0.2592
    113  O         -7.0080  -33.1840   19.5100 O.2   136  ARG136     -0.2718
    114  CB        -9.7710  -34.1550   18.2970 C.3   136  ARG136      0.0321
    115  CG       -10.1400  -32.8210   17.6170 C.3   136  ARG136      0.0489
    116  CD       -10.5860  -32.9740   16.0920 C.3   136  ARG136      0.2205
    117  NE       -10.5360  -31.6480   15.4390 N.pl3 136  ARG136     -0.0865
    118  CZ       -11.5020  -30.7100   15.4490 C.cat 136  ARG136      0.5346
    119  NH1      -12.6820  -30.9110   16.0460 N.pl3 136  ARG136      0.1354
    120  NH2      -11.2860  -29.5470   14.8410 N.pl3 136  ARG136      0.1354
    121  N         -8.5090  -31.7280   20.3380 N.am  137  ASN137     -0.1974
    122  CA        -7.5060  -30.6910   20.5550 C.3   137  ASN137      0.1688
    123  C         -7.0430  -30.5180   22.0170 C.2   137  ASN137      0.2292
    124  O         -6.3820  -29.5050   22.3550 O.2   137  ASN137     -0.2864
    125  CB        -8.0410  -29.3600   20.0380 C.3   137  ASN137      0.1181
    126  CG        -8.0580  -29.3240   18.5210 C.2   137  ASN137      0.2629
    127  OD1       -7.2540  -30.0050   17.8820 O.2   137  ASN137     -0.2716
    128  ND2       -8.9900  -28.5660   17.9390 N.am  137  ASN137     -0.0877
    129  N         -4.7820  -32.2260   25.0700 N.3   139  LEU139     -0.1245
    130  CA        -3.7630  -33.2670   25.2220 C.3   139  LEU139      0.1561
    131  C         -3.7600  -33.7830   26.6560 C.2   139  LEU139      0.2260
    132  O         -4.1490  -33.0420   27.5890 O.2   139  LEU139     -0.2867
    133  CB        -2.3790  -32.7250   24.8380 C.3   139  LEU139      0.0270
    134  CG        -2.1060  -32.4610   23.3430 C.3   139  LEU139      0.0019
    135  CD1       -0.9380  -31.4710   23.1550 C.3   139  LEU139      0.0001
    136  CD2       -1.8630  -33.7970   22.5460 C.3   139  LEU139      0.0001
    137  N         -4.2290  -28.0970   23.4250 N.3   149  GLY149     -0.1210
    138  CA        -3.0600  -28.5460   22.6660 C.3   149  GLY149      0.1956
    139  C         -2.9470  -28.0340   21.2370 C.2   149  GLY149      0.2611
    140  O         -2.0870  -28.4800   20.4840 O.2   149  GLY149     -0.2717
    141  N         -3.8080  -27.1010   20.8380 N.am  150  ASP150     -0.1973
    142  CA        -3.6990  -26.5760   19.4700 C.3   150  ASP150      0.1709
    143  C         -4.3610  -25.2130   19.3600 C.2   150  ASP150      0.2293
    144  O         -5.3960  -24.9740   20.0020 O.2   150  ASP150     -0.2864
    145  CB        -4.3930  -27.5060   18.4700 C.3   150  ASP150      0.1436
    146  CG        -4.0650  -27.1270   16.9930 C.2   150  ASP150      0.3671
    147  OD1       -3.0450  -27.6060   16.4300 O.co2 150  ASP150     -0.2456
    148  OD2       -4.8380  -26.3460   16.4080 O.co2 150  ASP150     -0.2456
@<TRIPOS>BOND
     1    21    20    1
     2    20    19    1
     3    26    27    1
     4    19    18    1
     5    25    24    2
     6    27    28    1
     7    24    23    1
     8    35    34    1
     9    29    28    2
    10    28    30   am
    11    18    17    1
    12    17    14    1
    13    34    31    1
    14    30    31    1
    15    23    22    1
    16    22    15   am
    17    31    32    1
    18    14    15    1
    19    14    13    1
    20    15    16    2
    21    32    33    2
    22    32    36   am
    23    13    11   am
    24    12    11    2
    25    11    10    1
    26    50    51    2
    27    50    49    1
    28    36    37    1
    29    10     9    1
    30    55    56    1
    31    55    54    1
    32    39    38    2
    33    53    54    1
    34    53    52    1
    35    37    38    1
    36    37    40    1
    37    49    52    1
    38    49    48    1
    39     9     3   am
    40     1     2    1
    41   120   118    1
    42     3     2    1
    43     3     4    2
    44    42    40    1
    45    40    41    1
    46     2     5    1
    47   117   118    2
    48   117   116    1
    49   118   119    1
    50   116   115    1
    51   148   146   ar
    52   147   146   ar
    53     5     6    1
    54   146   145    1
    55     6     8    1
    56     6     7    1
    57   115   114    1
    58    45    46    2
    59    45    44    1
    60   127   126    2
    61   128   126   am
    62    71    70    1
    63   114   111    1
    64   145   142    1
    65   126   125    1
    66    44    47    1
    67    44    43    1
    68   143   142    1
    69   143   144    2
    70   142   141    1
    71   113   112    2
    72    70    69    1
    73   111   112    1
    74   111   110    1
    75   112   121   am
    76   125   122    1
    77    64    65    1
    78    69    68    1
    79   121   122    1
    80   140   139    2
    81   122   123    1
    82   141   139   am
    83    68    65    1
    84   139   138    1
    85   108   109    1
    86   108   105    1
    87    65    66    1
    88    89    87   ar
    89    89    91   ar
    90    67    66    2
    91    87    86   ar
    92    91    90   ar
    93   123   124    2
    94    66    72   am
    95    86    85    1
    96    86    88   ar
    97   104   105    1
    98   104   102   am
    99   136   134    1
   100   105   106    1
   101   138   137    1
   102    85    82    1
   103    90    88   ar
   104    75    74    2
   105   101   102    1
   106   101   100    1
   107   135   134    1
   108    82    81    1
   109    82    83    1
   110   134   133    1
   111    62    61    1
   112    72    73    1
   113   102   103    2
   114    74    81   am
   115    74    73    1
   116   106   107    2
   117    95    94    2
   118    73    76    1
   119    63    61    1
   120    92    83   am
   121    92    93    1
   122    83    84    2
   123    61    58    1
   124    94    93    1
   125   133   130    1
   126   129   130    1
   127   130   131    1
   128    93    96    1
   129    60    59    2
   130    76    77    1
   131    59    58    1
   132    96    97    1
   133    58    57    1
   134    77    78    1
   135    97    99    1
   136    97    98    1
   137   131   132    2
   138    78    79   ar
   139    78    80   ar
