@<TRIPOS>MOLECULE
tmp/4e6mA00.pdb
 132 126 0 0 0
SMALL
GASTEIGER

@<TRIPOS>ATOM
      1  N         93.5510   18.3030   54.7230 N.3    24  TYR24      -0.1241
      2  CA        93.1710   18.0890   53.3790 C.3    24  TYR24       0.1605
      3  C         94.1730   17.2250   52.5550 C.2    24  TYR24       0.2264
      4  O         95.3510   17.4230   52.5820 O.2    24  TYR24      -0.2867
      5  CB        93.0520   19.4670   52.7940 C.3    24  TYR24       0.0534
      6  CG        91.9640   19.6640   51.8520 C.ar   24  TYR24      -0.0201
      7  CD1       90.6470   19.6610   52.2650 C.ar   24  TYR24      -0.0009
      8  CD2       92.2280   19.8940   50.5200 C.ar   24  TYR24      -0.0009
      9  CE1       89.6320   19.8620   51.3610 C.ar   24  TYR24       0.0417
     10  CE2       91.2180   20.0990   49.6230 C.ar   24  TYR24       0.0417
     11  CZ        89.9290   20.0880   50.0520 C.ar   24  TYR24       0.1957
     12  OH        88.9540   20.2660   49.1410 O.3    24  TYR24      -0.2866
     13  N         88.7420   15.2120   52.1970 N.3    47  TYR47      -0.1241
     14  CA        88.4530   15.6000   53.5800 C.3    47  TYR47       0.1605
     15  C         87.8100   14.4070   54.3040 C.2    47  TYR47       0.2264
     16  O         87.4280   13.4360   53.6560 O.2    47  TYR47      -0.2867
     17  CB        87.5150   16.8060   53.5800 C.3    47  TYR47       0.0534
     18  CG        86.2610   16.5670   52.7770 C.ar   47  TYR47      -0.0201
     19  CD1       86.2430   16.7420   51.3830 C.ar   47  TYR47      -0.0009
     20  CD2       85.0900   16.1490   53.4000 C.ar   47  TYR47      -0.0009
     21  CE1       85.0830   16.5040   50.6490 C.ar   47  TYR47       0.0417
     22  CE2       83.9250   15.9260   52.6770 C.ar   47  TYR47       0.0417
     23  CZ        83.9250   16.0910   51.3050 C.ar   47  TYR47       0.1957
     24  OH        82.7530   15.8460   50.6120 O.3    47  TYR47      -0.2866
     25  N         80.6090   27.3260   51.6980 N.3   135  GLN135     -0.1245
     26  CA        81.0620   27.1730   53.0650 C.3   135  GLN135      0.1566
     27  C         81.6400   28.4020   53.7710 C.2   135  GLN135      0.2260
     28  O         82.7350   28.4050   54.2090 O.2   135  GLN135     -0.2867
     29  CB        81.9870   26.0090   53.2170 C.3   135  GLN135      0.0367
     30  CG        81.5790   24.7490   52.4910 C.3   135  GLN135      0.0905
     31  CD        80.3830   24.0320   53.0740 C.2   135  GLN135      0.2608
     32  OE1       79.7600   24.4710   53.9880 O.2   135  GLN135     -0.2717
     33  NE2       80.0820   22.9000   52.5110 N.am  135  GLN135     -0.0878
     34  N         83.7680   29.2470   57.0440 N.3   138  PHE138     -0.1241
     35  CA        85.2300   29.2770   57.0290 C.3   138  PHE138      0.1605
     36  C         85.7770   30.5540   56.3920 C.2   138  PHE138      0.2264
     37  O         86.9590   30.6130   56.0220 O.2   138  PHE138     -0.2867
     38  CB        85.7800   28.0490   56.3170 C.3   138  PHE138      0.0534
     39  CG        85.3720   26.7520   56.9640 C.ar  138  PHE138     -0.0203
     40  CD1       85.6850   26.5040   58.2990 C.ar  138  PHE138     -0.0042
     41  CD2       84.6720   25.7910   56.2420 C.ar  138  PHE138     -0.0042
     42  CE1       85.3190   25.3110   58.9030 C.ar  138  PHE138     -0.0003
     43  CE2       84.2940   24.6000   56.8450 C.ar  138  PHE138     -0.0003
     44  CZ        84.6210   24.3670   58.1770 C.ar  138  PHE138     -0.0000
     45  N         77.6290   24.1760   62.2380 N.3   174  GLU174     -0.1245
     46  CA        78.9240   23.4720   62.3080 C.3   174  GLU174      0.1567
     47  C         79.8860   23.9840   63.3910 C.2   174  GLU174      0.2260
     48  O         80.5250   23.2070   64.0990 O.2   174  GLU174     -0.2867
     49  CB        79.6110   23.5230   60.9380 C.3   174  GLU174      0.0388
     50  CG        81.0710   23.0860   60.9610 C.3   174  GLU174      0.1160
     51  CD        81.6270   22.7890   59.5930 C.2   174  GLU174      0.3649
     52  OE1       81.0380   23.2410   58.5890 O.co2 174  GLU174     -0.2457
     53  OE2       82.6490   22.0680   59.5280 O.co2 174  GLU174     -0.2457
     54  N         84.5600   22.4760   65.8360 N.3   181  ASP181     -0.1239
     55  CA        83.9650   22.0380   64.5750 C.3   181  ASP181      0.1674
     56  C         83.1410   20.7470   64.7640 C.2   181  ASP181      0.2266
     57  O         83.6960   19.6440   64.9120 O.2   181  ASP181     -0.2867
     58  CB        85.0870   21.8390   63.5480 C.3   181  ASP181      0.1410
     59  CG        84.5790   21.4700   62.1660 C.2   181  ASP181      0.3668
     60  OD1       83.3770   21.1870   61.9780 O.co2 181  ASP181     -0.2456
     61  OD2       85.4120   21.4370   61.2450 O.co2 181  ASP181     -0.2456
     62  N         81.4300   18.9310   62.8280 N.3   183  VAL183     -0.1231
     63  CA        81.5610   17.8940   61.8050 C.3   183  VAL183      0.1692
     64  C         82.6480   16.8630   62.1420 C.2   183  VAL183      0.2592
     65  O         82.4840   15.6740   61.8350 O.2   183  VAL183     -0.2718
     66  CB        81.8080   18.5050   60.4060 C.3   183  VAL183      0.0266
     67  CG1       82.1040   17.4250   59.3750 C.3   183  VAL183      0.0020
     68  CG2       80.6070   19.3340   59.9730 C.3   183  VAL183      0.0020
     69  N         83.7280   17.3020   62.7920 N.am  184  PHE184     -0.1976
     70  CA        84.8730   16.4450   63.0380 C.3   184  PHE184      0.1639
     71  C         85.2880   16.2840   64.4950 C.2   184  PHE184      0.2290
     72  O         86.2470   15.5890   64.7840 O.2   184  PHE184     -0.2864
     73  CB        86.0550   16.9320   62.2000 C.3   184  PHE184      0.0560
     74  CG        85.8420   16.7590   60.7260 C.ar  184  PHE184     -0.0200
     75  CD1       85.6130   15.4940   60.2000 C.ar  184  PHE184     -0.0042
     76  CD2       85.8430   17.8530   59.8700 C.ar  184  PHE184     -0.0042
     77  CE1       85.3960   15.3150   58.8370 C.ar  184  PHE184     -0.0003
     78  CE2       85.6380   17.6800   58.5070 C.ar  184  PHE184     -0.0003
     79  CZ        85.4170   16.4140   57.9920 C.ar  184  PHE184     -0.0000
     80  N         75.3750   19.4150   56.7520 N.3   225  HIS225     -0.1241
     81  CA        76.4020   18.3800   56.8460 C.3   225  HIS225      0.1621
     82  C         75.8930   17.1280   57.5490 C.2   225  HIS225      0.2264
     83  O         76.6550   16.4730   58.2230 O.2   225  HIS225     -0.2867
     84  CB        77.6600   18.8920   57.5810 C.3   225  HIS225      0.0745
     85  CG        78.5380   19.7940   56.7470 C.ar  225  HIS225      0.0817
     86  ND1       78.6830   21.1140   57.0110 N.ar  225  HIS225     -0.2268
     87  CD2       79.3480   19.5210   55.6400 C.ar  225  HIS225      0.1154
     88  CE1       79.5330   21.6640   56.1160 C.ar  225  HIS225      0.1986
     89  NE2       79.9460   20.6860   55.2800 N.ar  225  HIS225     -0.2212
     90  N         75.9390   14.3700   47.9710 N.3   275  GLU275     -0.1245
     91  CA        77.3850   14.1540   48.0070 C.3   275  GLU275      0.1567
     92  C         77.7420   12.8410   48.6990 C.2   275  GLU275      0.2260
     93  O         78.8210   12.3200   48.4620 O.2   275  GLU275     -0.2867
     94  CB        78.1260   15.3200   48.6190 C.3   275  GLU275      0.0388
     95  CG        78.1300   15.3750   50.1400 C.3   275  GLU275      0.1160
     96  CD        78.5530   16.7550   50.6310 C.2   275  GLU275      0.3649
     97  OE1       79.7170   16.9280   51.0860 O.co2 275  GLU275     -0.2457
     98  OE2       77.7170   17.6710   50.5450 O.co2 275  GLU275     -0.2457
     99  N         78.5730   18.3090   43.3810 N.3   325  HIS325     -0.1241
    100  CA        79.3590   18.5920   44.5690 C.3   325  HIS325      0.1621
    101  C         80.8260   18.6500   44.2010 C.2   325  HIS325      0.2264
    102  O         81.3700   17.7030   43.6240 O.2   325  HIS325     -0.2867
    103  CB        79.1050   17.5510   45.6550 C.3   325  HIS325      0.0745
    104  CG        80.0000   17.7130   46.8460 C.ar  325  HIS325      0.0817
    105  ND1       81.1970   17.1090   46.9350 N.ar  325  HIS325     -0.2268
    106  CD2       79.8650   18.4910   47.9920 C.ar  325  HIS325      0.1154
    107  CE1       81.7920   17.4580   48.0900 C.ar  325  HIS325      0.1986
    108  NE2       80.9830   18.3090   48.7350 N.ar  325  HIS325     -0.2212
    109  N         84.4210   19.5820   46.0590 N.3   327  CYS327     -0.1235
    110  CA        85.3000   19.9170   47.1880 C.3   327  CYS327      0.1677
    111  C         86.5090   19.0060   47.1920 C.2   327  CYS327      0.2270
    112  O         86.5630   18.0020   47.9210 O.2   327  CYS327     -0.2867
    113  CB        84.5600   19.8080   48.5240 C.3   327  CYS327      0.0956
    114  SG        85.4770   20.5730   49.8860 S.3   327  CYS327     -0.0801
    115  N         83.9130   26.2600   46.1890 N.3   352  HIS352     -0.1241
    116  CA        84.4070   26.1560   47.5570 C.3   352  HIS352      0.1621
    117  C         85.4220   27.1970   47.9300 C.2   352  HIS352      0.2264
    118  O         86.2410   27.6300   47.1070 O.2   352  HIS352     -0.2867
    119  CB        84.9520   24.7600   47.8190 C.3   352  HIS352      0.0745
    120  CG        85.1470   24.4550   49.2750 C.ar  352  HIS352      0.0817
    121  ND1       84.2630   23.7260   49.9900 N.ar  352  HIS352     -0.2268
    122  CD2       86.1610   24.8200   50.1550 C.ar  352  HIS352      0.1154
    123  CE1       84.6940   23.6340   51.2570 C.ar  352  HIS352      0.1986
    124  NE2       85.8610   24.2960   51.3530 N.ar  352  HIS352     -0.2212
    125  N         88.0450   26.9900   49.6280 N.3   354  ASN354     -0.1240
    126  CA        89.4160   26.4480   49.5000 C.3   354  ASN354      0.1653
    127  C         89.9450   26.4260   48.0730 C.2   354  ASN354      0.2266
    128  O         91.1390   26.2200   47.8640 O.2   354  ASN354     -0.2867
    129  CB        89.4700   24.9820   49.9890 C.3   354  ASN354      0.1155
    130  CG        89.5310   24.8510   51.5030 C.2   354  ASN354      0.2627
    131  OD1       89.6560   25.8420   52.2280 O.2   354  ASN354     -0.2716
    132  ND2       89.4450   23.6100   51.9900 N.am  354  ASN354     -0.0877
@<TRIPOS>BOND
     1    99   100    1
     2   102   101    2
     3   101   100    1
     4   100   103    1
     5   103   104    1
     6   109   110    1
     7   115   116    1
     8   104   105   ar
     9   104   106   ar
    10   105   107   ar
    11   118   117    2
    12   110   111    1
    13   110   113    1
    14   111   112    2
    15   116   119    1
    16   116   117    1
    17   119   120    1
    18   128   127    2
    19    90    91    1
    20   106   108   ar
    21    91    94    1
    22    91    92    1
    23   127   126    1
    24   107   108   ar
    25    93    92    2
    26   113   114    1
    27    94    95    1
    28    12    11    1
    29   120   121   ar
    30   120   122   ar
    31   126   125    1
    32   126   129    1
    33    10    11   ar
    34    10     8   ar
    35   129   130    1
    36   121   123   ar
    37    11     9   ar
    38    95    96    1
    39   122   124   ar
    40     8     6   ar
    41    98    96   ar
    42    24    23    1
    43    96    97   ar
    44    21    23   ar
    45    21    19   ar
    46   123   124   ar
    47    23    22   ar
    48     9     7   ar
    49    19    18   ar
    50   130   132   am
    51   130   131    2
    52    25    26    1
    53     6     7   ar
    54     6     5    1
    55    13    14    1
    56    30    31    1
    57    30    29    1
    58    33    31   am
    59     3     4    2
    60     3     2    1
    61    22    20   ar
    62    18    20   ar
    63    18    17    1
    64     5     2    1
    65    26    29    1
    66    26    27    1
    67    31    32    2
    68     2     1    1
    69    14    17    1
    70    14    15    1
    71    16    15    2
    72    27    28    2
    73    89    87   ar
    74    89    88   ar
    75    87    85   ar
    76    37    36    2
    77    88    86   ar
    78    41    43   ar
    79    41    39   ar
    80    38    39    1
    81    38    35    1
    82    36    35    1
    83    85    86   ar
    84    85    84    1
    85    80    81    1
    86    43    44   ar
    87    81    82    1
    88    81    84    1
    89    39    40   ar
    90    35    34    1
    91    82    83    2
    92    79    78   ar
    93    79    77   ar
    94    44    42   ar
    95    40    42   ar
    96    78    76   ar
    97    52    51   ar
    98    77    75   ar
    99    67    66    1
   100    53    51   ar
   101    51    50    1
   102    76    74   ar
   103    68    66    1
   104    75    74   ar
   105    66    63    1
   106    74    73    1
   107    49    50    1
   108    49    46    1
   109    61    59   ar
   110    63    64    1
   111    63    62    1
   112    65    64    2
   113    60    59   ar
   114    64    69   am
   115    59    58    1
   116    73    70    1
   117    45    46    1
   118    46    47    1
   119    69    70    1
   120    70    71    1
   121    47    48    2
   122    58    55    1
   123    71    72    2
   124    55    56    1
   125    55    54    1
   126    56    57    2
