@<TRIPOS>MOLECULE
tmp/4e6nA00.pdb
 183 174 0 0 0
SMALL
GASTEIGER

@<TRIPOS>ATOM
      1  N        -17.3990  -28.6110    5.0700 N.3    42  PRO42      -0.2102
      2  CA       -17.5850  -27.3300    5.7510 C.3    42  PRO42       0.1504
      3  C        -16.4020  -26.9940    6.6520 C.2    42  PRO42       0.2576
      4  O        -15.6350  -27.8990    6.9770 O.2    42  PRO42      -0.2718
      5  CB       -18.8440  -27.5790    6.5980 C.3    42  PRO42       0.0282
      6  CG       -18.7520  -29.0390    6.9590 C.3    42  PRO42       0.0208
      7  CD       -18.0950  -29.7180    5.7640 C.3    42  PRO42       0.0893
      8  N        -16.2450  -25.7210    7.0240 N.am   43  THR43      -0.1939
      9  CA       -15.3420  -25.3480    8.1040 C.3    43  THR43       0.2028
     10  C        -15.9040  -25.8730    9.4470 C.2    43  THR43       0.2642
     11  O        -17.0660  -26.2560    9.5320 O.2    43  THR43      -0.2714
     12  CB       -15.1560  -23.8290    8.1880 C.3    43  THR43       0.1808
     13  OG1      -14.1350  -23.5270    9.1430 O.3    43  THR43      -0.2208
     14  CG2      -16.4720  -23.1320    8.6220 C.3    43  THR43       0.0379
     15  N        -15.0800  -25.8950   10.4870 N.am   44  MET44      -0.1976
     16  CA       -15.4250  -26.5630   11.7420 C.3    44  MET44       0.1605
     17  C        -15.1290  -25.6650   12.9440 C.2    44  MET44       0.2287
     18  O        -14.1190  -24.9680   12.9710 O.2    44  MET44      -0.2864
     19  CB       -14.6580  -27.9060   11.8730 C.3    44  MET44       0.0413
     20  CG       -14.8870  -28.6460   13.2150 C.3    44  MET44       0.0598
     21  SD       -13.9540  -30.1960   13.4350 S.3    44  MET44      -0.1393
     22  CE       -14.3210  -30.9880   11.8760 C.3    44  MET44       0.0692
     23  N        -13.2940  -38.8640   17.5120 N.3    77  GLU77      -0.1231
     24  CA       -12.3760  -39.4110   16.5180 C.3    77  GLU77       0.1699
     25  C        -11.0660  -38.6320   16.5090 C.2    77  GLU77       0.2592
     26  O        -11.0540  -37.3930   16.6540 O.2    77  GLU77      -0.2718
     27  CB       -13.0090  -39.3710   15.1270 C.3    77  GLU77       0.0402
     28  CG       -14.4470  -39.8320   15.1070 C.3    77  GLU77       0.1161
     29  CD       -15.0620  -39.8180   13.7170 C.2    77  GLU77       0.3649
     30  OE1      -14.4710  -39.2030   12.8020 O.co2  77  GLU77      -0.2457
     31  OE2      -16.1510  -40.4120   13.5460 O.co2  77  GLU77      -0.2457
     32  N         -9.9610  -39.3540   16.3470 N.am   78  GLN78      -0.1966
     33  CA        -8.6710  -38.6930   16.2150 C.3    78  GLN78       0.1733
     34  C         -8.7510  -37.6560   15.1060 C.2    78  GLN78       0.2616
     35  O         -9.2700  -37.9470   14.0380 O.2    78  GLN78      -0.2715
     36  CB        -7.5600  -39.6990   15.9020 C.3    78  GLN78       0.0408
     37  CG        -6.3200  -39.0460   15.3320 C.3    78  GLN78       0.0908
     38  CD        -5.0770  -39.9010   15.4530 C.2    78  GLN78       0.2608
     39  OE1       -5.1590  -41.1280   15.5240 O.2    78  GLN78      -0.2717
     40  NE2       -3.9090  -39.2500   15.4830 N.am   78  GLN78      -0.0878
     41  N         -8.2750  -36.4450   15.3800 N.am   79  LYS79      -0.1963
     42  CA        -8.1910  -35.4050   14.3650 C.3    79  LYS79       0.1728
     43  C         -6.8740  -35.6090   13.6060 C.2    79  LYS79       0.2616
     44  O         -5.8050  -35.2460   14.0950 O.2    79  LYS79      -0.2715
     45  CB        -8.2470  -34.0120   15.0240 C.3    79  LYS79       0.0311
     46  CG        -8.5200  -32.8380   14.0690 C.3    79  LYS79       0.0038
     47  CD        -8.7680  -31.5410   14.8410 C.3    79  LYS79       0.0206
     48  CE        -9.3050  -30.4000   13.9430 C.3    79  LYS79       0.1093
     49  NZ        -8.3980  -29.8630   12.8230 N.3    79  LYS79      -0.1314
     50  N         -6.9410  -36.2300   12.4360 N.am   80  HIS80      -0.1973
     51  CA        -5.7270  -36.4590   11.6470 C.3    80  HIS80       0.1656
     52  C         -5.2200  -35.1270   11.1420 C.2    80  HIS80       0.2291
     53  O         -5.9940  -34.2790   10.7100 O.2    80  HIS80      -0.2864
     54  CB        -5.9790  -37.3810   10.4500 C.3    80  HIS80       0.0771
     55  CG        -6.6060  -38.6920   10.8080 C.ar   80  HIS80       0.0820
     56  ND1       -5.8930  -39.7320   11.3600 N.ar   80  HIS80      -0.2267
     57  CD2       -7.8820  -39.1320   10.6910 C.ar   80  HIS80       0.1154
     58  CE1       -6.6990  -40.7580   11.5660 C.ar   80  HIS80       0.1986
     59  NE2       -7.9120  -40.4200   11.1690 N.ar   80  HIS80      -0.2212
     60  N         -7.8760  -32.0800    4.1540 N.3    84  ARG84      -0.1245
     61  CA        -9.1620  -32.6680    3.7940 C.3    84  ARG84       0.1563
     62  C         -9.1790  -33.0450    2.3090 C.2    84  ARG84       0.2260
     63  O         -8.7900  -32.2600    1.4490 O.2    84  ARG84      -0.2867
     64  CB       -10.3280  -31.7190    4.1600 C.3    84  ARG84       0.0307
     65  CG       -11.6970  -32.1100    3.6020 C.3    84  ARG84       0.0489
     66  CD       -12.5750  -32.9320    4.5740 C.3    84  ARG84       0.2205
     67  NE       -12.9790  -32.1470    5.7310 N.pl3  84  ARG84      -0.0865
     68  CZ       -14.1620  -32.2100    6.3250 C.cat  84  ARG84       0.5346
     69  NH1      -15.1070  -33.0190    5.8850 N.pl3  84  ARG84       0.1354
     70  NH2      -14.3970  -31.4480    7.3780 N.pl3  84  ARG84       0.1354
     71  N        -10.5970  -28.9860   -0.1950 N.3   113  ARG113     -0.1245
     72  CA       -11.7070  -28.1960    0.3430 C.3   113  ARG113      0.1563
     73  C        -12.0470  -26.9780   -0.5350 C.2   113  ARG113      0.2260
     74  O        -13.1160  -26.3990   -0.4060 O.2   113  ARG113     -0.2867
     75  CB       -11.3970  -27.7340    1.7750 C.3   113  ARG113      0.0307
     76  CG       -10.0940  -26.8940    1.8540 C.3   113  ARG113      0.0489
     77  CD        -9.9490  -26.1930    3.1960 C.3   113  ARG113      0.2205
     78  NE       -10.9120  -25.1030    3.3070 N.pl3 113  ARG113     -0.0865
     79  CZ       -10.6340  -23.8300    3.0350 C.cat 113  ARG113      0.5346
     80  NH1       -9.4080  -23.4740    2.6510 N.pl3 113  ARG113      0.1354
     81  NH2      -11.5820  -22.9110    3.1560 N.pl3 113  ARG113      0.1354
     82  N         -9.0950  -37.4390    5.2530 N.3   155  GLU155     -0.1245
     83  CA        -7.8900  -36.6660    5.4750 C.3   155  GLU155      0.1567
     84  C         -6.7300  -37.3820    4.7890 C.2   155  GLU155      0.2260
     85  O         -6.6100  -38.5970    4.8710 O.2   155  GLU155     -0.2867
     86  CB        -7.6140  -36.4920    6.9690 C.3   155  GLU155      0.0388
     87  CG        -6.5780  -35.4060    7.2800 C.3   155  GLU155      0.1160
     88  CD        -7.1480  -33.9790    7.2480 C.2   155  GLU155      0.3649
     89  OE1       -8.3050  -33.7950    6.8110 O.co2 155  GLU155     -0.2457
     90  OE2       -6.4430  -33.0410    7.6840 O.co2 155  GLU155     -0.2457
     91  N        -13.3570  -40.6610    6.8900 N.3   241  PHE241     -0.1227
     92  CA       -14.1780  -40.6200    8.0980 C.3   241  PHE241      0.1736
     93  C        -15.6860  -40.5090    7.8390 C.2   241  PHE241      0.2595
     94  O        -16.4700  -40.6360    8.7700 O.2   241  PHE241     -0.2718
     95  CB       -13.6920  -39.5200    9.0710 C.3   241  PHE241      0.0547
     96  CG       -13.4340  -38.1850    8.4220 C.ar  241  PHE241     -0.0202
     97  CD1      -14.4810  -37.3500    8.0800 C.ar  241  PHE241     -0.0042
     98  CD2      -12.1370  -37.7480    8.1910 C.ar  241  PHE241     -0.0042
     99  CE1      -14.2430  -36.1030    7.4990 C.ar  241  PHE241     -0.0003
    100  CE2      -11.8890  -36.5120    7.6010 C.ar  241  PHE241     -0.0003
    101  CZ       -12.9440  -35.6940    7.2600 C.ar  241  PHE241     -0.0000
    102  N        -16.0850  -40.2450    6.5920 N.am  242  HIS242     -0.1975
    103  CA       -17.5030  -40.2630    6.2130 C.3   242  HIS242      0.1656
    104  C        -17.6950  -40.9610    4.8780 C.2   242  HIS242      0.2291
    105  O        -17.0070  -40.6630    3.9000 O.2   242  HIS242     -0.2864
    106  CB       -18.1130  -38.8550    6.0130 C.3   242  HIS242      0.0771
    107  CG       -17.9950  -37.9400    7.1860 C.ar  242  HIS242      0.0820
    108  ND1      -17.8680  -36.5740    7.0410 N.ar  242  HIS242     -0.2267
    109  CD2      -18.0180  -38.1780    8.5180 C.ar  242  HIS242      0.1154
    110  CE1      -17.7950  -36.0130    8.2360 C.ar  242  HIS242      0.1986
    111  NE2      -17.8830  -36.9640    9.1500 N.ar  242  HIS242     -0.2212
    112  N         -9.6600  -45.1350   11.6350 N.3   277  THR277     -0.1218
    113  CA        -9.5590  -44.0190   12.5550 C.3   277  THR277      0.1862
    114  C         -9.7960  -44.4520   13.9940 C.2   277  THR277      0.2287
    115  O        -10.8140  -45.0620   14.3090 O.2   277  THR277     -0.2866
    116  CB       -10.5470  -42.9160   12.1640 C.3   277  THR277      0.1770
    117  OG1      -10.1720  -42.4010   10.8800 O.3   277  THR277     -0.2211
    118  CG2      -10.5520  -41.7840   13.2020 C.3   277  THR277      0.0375
    119  N         -2.8530  -34.5330   16.9500 N.3   306  GLU306     -0.1245
    120  CA        -3.3450  -33.1490   17.0080 C.3   306  GLU306      0.1567
    121  C         -4.4300  -32.9230   18.0770 C.2   306  GLU306      0.2260
    122  O         -4.4640  -31.8760   18.7310 O.2   306  GLU306     -0.2867
    123  CB        -3.8890  -32.7030   15.6430 C.3   306  GLU306      0.0388
    124  CG        -4.5510  -31.3290   15.6950 C.3   306  GLU306      0.1160
    125  CD        -5.2330  -30.9160   14.3990 C.2   306  GLU306      0.3649
    126  OE1       -5.9250  -29.8750   14.4210 O.co2 306  GLU306     -0.2457
    127  OE2       -5.0800  -31.6140   13.3730 O.co2 306  GLU306     -0.2457
    128  N        -11.8680  -34.7960   16.9430 N.3   309  VAL309     -0.1245
    129  CA       -13.1040  -34.2050   16.4880 C.3   309  VAL309      0.1561
    130  C        -14.2340  -34.8720   17.2870 C.2   309  VAL309      0.2260
    131  O        -14.4050  -36.0950   17.2470 O.2   309  VAL309     -0.2867
    132  CB       -13.2960  -34.3900   14.9590 C.3   309  VAL309      0.0252
    133  CG1      -14.5610  -33.7140   14.4960 C.3   309  VAL309      0.0019
    134  CG2      -12.1050  -33.8000   14.1890 C.3   309  VAL309      0.0019
    135  N        -18.0340  -35.5450   17.6840 N.3   311  LYS311     -0.1245
    136  CA       -19.2470  -35.5320   16.8740 C.3   311  LYS311      0.1561
    137  C        -20.4520  -36.0940   17.6180 C.2   311  LYS311      0.2260
    138  O        -20.3270  -37.0410   18.4000 O.2   311  LYS311     -0.2867
    139  CB       -19.0400  -36.3200   15.5780 C.3   311  LYS311      0.0271
    140  CG       -17.8560  -35.8430   14.7420 C.3   311  LYS311      0.0035
    141  CD       -17.5970  -36.7940   13.5760 C.3   311  LYS311      0.0206
    142  CE       -16.2930  -36.4280   12.8450 C.3   311  LYS311      0.1093
    143  NZ       -16.1460  -37.1250   11.5360 N.3   311  LYS311     -0.1314
    144  N        -14.1100  -29.2870   17.3140 N.3   329  LYS329     -0.1245
    145  CA       -12.6990  -29.6480   17.3870 C.3   329  LYS329      0.1561
    146  C        -12.1810  -29.3700   18.7950 C.2   329  LYS329      0.2260
    147  O        -12.5960  -28.4240   19.4540 O.2   329  LYS329     -0.2867
    148  CB       -11.8660  -28.9240   16.3160 C.3   329  LYS329      0.0271
    149  CG       -11.8360  -27.4030   16.4530 C.3   329  LYS329      0.0035
    150  CD       -10.9920  -26.6790   15.3920 C.3   329  LYS329      0.0206
    151  CE       -11.6470  -26.6350   14.0150 C.3   329  LYS329      0.1093
    152  NZ       -10.7790  -25.8780   13.0430 N.3   329  LYS329     -0.1314
    153  N         -8.3650  -29.4910   20.4180 N.3   331  ARG331     -0.1245
    154  CA        -6.9760  -29.7540   20.0120 C.3   331  ARG331      0.1563
    155  C         -5.9820  -29.7990   21.1710 C.2   331  ARG331      0.2260
    156  O         -6.1880  -29.1520   22.2140 O.2   331  ARG331     -0.2867
    157  CB        -6.5350  -28.7290   18.9610 C.3   331  ARG331      0.0307
    158  CG        -7.4000  -28.7540   17.7130 C.3   331  ARG331      0.0489
    159  CD        -7.3150  -27.4690   16.9030 C.3   331  ARG331      0.2205
    160  NE        -7.9750  -26.3480   17.5700 N.pl3 331  ARG331     -0.0865
    161  CZ        -8.0010  -25.1130   17.0860 C.cat 331  ARG331      0.5346
    162  NH1       -7.4030  -24.8300   15.9350 N.pl3 331  ARG331      0.1354
    163  NH2       -8.6030  -24.1550   17.7570 N.pl3 331  ARG331      0.1354
    164  N          0.0280  -29.3060   20.2960 N.3   335  TYR335     -0.1241
    165  CA        -0.3010  -29.0030   18.9050 C.3   335  TYR335      0.1605
    166  C         -0.6170  -27.5160   18.6950 C.2   335  TYR335      0.2264
    167  O         -0.2630  -26.9320   17.6710 O.2   335  TYR335     -0.2867
    168  CB        -1.4820  -29.8510   18.3970 C.3   335  TYR335      0.0534
    169  CG        -2.0220  -29.3020   17.1030 C.ar  335  TYR335     -0.0201
    170  CD1       -1.4330  -29.6330   15.8810 C.ar  335  TYR335     -0.0009
    171  CD2       -3.0800  -28.3990   17.1030 C.ar  335  TYR335     -0.0009
    172  CE1       -1.9090  -29.0960   14.6990 C.ar  335  TYR335      0.0417
    173  CE2       -3.5490  -27.8550   15.9390 C.ar  335  TYR335      0.0417
    174  CZ        -2.9710  -28.2040   14.7390 C.ar  335  TYR335      0.1957
    175  OH        -3.4660  -27.6370   13.5880 O.3   335  TYR335     -0.2866
    176  N         -0.6910  -23.1150   16.1700 N.3   339  ILE339     -0.1245
    177  CA        -1.8360  -22.2670   15.8300 C.3   339  ILE339      0.1561
    178  C         -1.8300  -20.9140   16.5700 C.2   339  ILE339      0.2260
    179  O         -1.9670  -19.8520   15.9490 O.2   339  ILE339     -0.2867
    180  CB        -3.1740  -23.0030   16.1110 C.3   339  ILE339      0.0252
    181  CG1       -3.2450  -24.3300   15.3500 C.3   339  ILE339      0.0019
    182  CG2       -4.3720  -22.1170   15.7670 C.3   339  ILE339      0.0019
    183  CD1       -3.1320  -24.2080   13.8280 C.3   339  ILE339      0.0001
@<TRIPOS>BOND
     1    73    74    2
     2    73    72    1
     3    71    72    1
     4    72    75    1
     5    63    62    2
     6    75    76    1
     7    76    77    1
     8    62    61    1
     9    80    79    1
    10    79    81    1
    11    79    78    2
    12    77    78    1
    13    65    64    1
    14    65    66    1
    15    61    60    1
    16    61    64    1
    17   105   104    2
    18    66    67    1
    19    84    85    2
    20    84    83    1
    21   104   103    1
    22     1     2    1
    23     1     7    1
    24    82    83    1
    25    83    86    1
    26    67    68    2
    27     2     5    1
    28     2     3    1
    29     7     6    1
    30    69    68    1
    31   106   103    1
    32   106   107    1
    33   103   102    1
    34    68    70    1
    35   102    93   am
    36     5     6    1
    37     3     4    2
    38     3     8   am
    39    89    88   ar
    40    91    92    1
    41    86    87    1
    42     8     9    1
    43   108   107   ar
    44   108   110   ar
    45   107   109   ar
    46    88    87    1
    47    88    90   ar
    48   101    99   ar
    49   101   100   ar
    50    99    97   ar
    51   100    98   ar
    52    93    92    1
    53    93    94    2
    54    97    96   ar
    55    92    95    1
    56     9    12    1
    57     9    10    1
    58    12    14    1
    59    12    13    1
    60    98    96   ar
    61   110   111   ar
    62    96    95    1
    63   109   111   ar
    64    10    11    2
    65    10    15   am
    66    54    55    1
    67    54    51    1
    68    15    16    1
    69    57    55   ar
    70    57    59   ar
    71    53    52    2
    72    55    56   ar
    73   117   116    1
    74    52    51    1
    75    59    58   ar
    76    56    58   ar
    77   143   142    1
    78   112   113    1
    79    51    50    1
    80    16    19    1
    81    16    17    1
    82    19    20    1
    83    22    21    1
    84   116   113    1
    85   116   118    1
    86    50    43   am
    87   113   114    1
    88    30    29   ar
    89    49    48    1
    90   142   141    1
    91    17    18    2
    92   152   151    1
    93    20    21    1
    94   127   125   ar
    95    31    29   ar
    96   141   140    1
    97   175   174    1
    98    43    44    2
    99    43    42    1
   100    29    28    1
   101   183   181    1
   102    48    47    1
   103   114   115    2
   104   151   150    1
   105    35    34    2
   106    46    47    1
   107    46    45    1
   108   134   132    1
   109    42    45    1
   110    42    41    1
   111   125   126   ar
   112   125   124    1
   113   133   132    1
   114   172   174   ar
   115   172   170   ar
   116   174   173   ar
   117   140   139    1
   118   132   129    1
   119    34    41   am
   120    34    33    1
   121    28    27    1
   122    27    24    1
   123    37    38    1
   124    37    36    1
   125   181   180    1
   126   150   149    1
   127    38    40   am
   128    38    39    2
   129   139   136    1
   130   123   124    1
   131   123   120    1
   132   182   180    1
   133   177   180    1
   134   177   176    1
   135   177   178    1
   136   170   169   ar
   137    36    33    1
   138   162   161    1
   139   173   171   ar
   140   179   178    2
   141    33    32    1
   142   148   149    1
   143   148   145    1
   144    32    25   am
   145   129   128    1
   146   129   130    1
   147    25    24    1
   148    25    26    2
   149    24    23    1
   150   136   137    1
   151   136   135    1
   152   159   160    1
   153   159   158    1
   154   119   120    1
   155   120   121    1
   156   161   160    2
   157   161   163    1
   158   171   169   ar
   159   169   168    1
   160   131   130    2
   161   144   145    1
   162   145   146    1
   163   137   138    2
   164   167   166    2
   165   158   157    1
   166   121   122    2
   167   168   165    1
   168   166   165    1
   169   146   147    2
   170   165   164    1
   171   157   154    1
   172   154   153    1
   173   154   155    1
   174   155   156    2
