@<TRIPOS>MOLECULE
tmp/4e6qB00.pdb
 157 147 0 0 0
SMALL
GASTEIGER

@<TRIPOS>ATOM
      1  N         -1.5720   44.3180   26.3860 N.3    21  LEU21      -0.1231
      2  CA        -0.1290   44.3860   26.6430 C.3    21  LEU21       0.1693
      3  C          0.2520   45.2570   27.8570 C.2    21  LEU21       0.2593
      4  O          1.2240   44.9590   28.5590 O.2    21  LEU21      -0.2718
      5  CB         0.6950   44.8260   25.3910 C.3    21  LEU21       0.0284
      6  CG         0.5760   44.0190   24.0630 C.3    21  LEU21       0.0019
      7  CD1        1.0680   44.7690   22.8250 C.3    21  LEU21       0.0001
      8  CD2        1.2870   42.6760   24.1650 C.3    21  LEU21       0.0001
      9  N         -0.5130   46.3170   28.1090 N.am   22  GLY22      -0.1942
     10  CA        -0.2380   47.2690   29.1780 C.3    22  GLY22       0.2014
     11  C         -1.5630   47.9130   29.5860 C.2    22  GLY22       0.2639
     12  O         -2.4320   48.2110   28.7360 O.2    22  GLY22      -0.2714
     13  N         -1.7600   48.1480   30.8730 N.am   23  LYS23      -0.1963
     14  CA        -3.0250   48.7410   31.2760 C.3    23  LYS23       0.1728
     15  C         -2.8020   49.8430   32.2820 C.2    23  LYS23       0.2616
     16  O         -2.3030   49.6250   33.3860 O.2    23  LYS23      -0.2715
     17  CB        -4.0070   47.7210   31.8070 C.3    23  LYS23       0.0311
     18  CG        -5.4230   48.3020   31.9500 C.3    23  LYS23       0.0038
     19  CD        -6.4230   47.2440   32.3950 C.3    23  LYS23       0.0206
     20  CE        -7.8450   47.8070   32.3400 C.3    23  LYS23       0.1093
     21  NZ        -8.9240   46.8060   32.6900 N.3    23  LYS23      -0.1314
     22  N         -3.1600   51.0440   31.8780 N.am   24  GLY24      -0.1955
     23  CA        -3.0050   52.1810   32.7350 C.3    24  GLY24       0.1869
     24  C         -4.3700   52.7070   33.1260 C.2    24  GLY24       0.2309
     25  O         -5.4510   52.1840   32.7780 O.2    24  GLY24      -0.2863
     26  N         -5.2420   54.7000   29.7510 N.3    27  GLY27      -0.1210
     27  CA        -4.8730   54.1290   28.4730 C.3    27  GLY27       0.1956
     28  C         -4.5380   52.6620   28.5950 C.2    27  GLY27       0.2613
     29  O         -4.2700   52.1580   29.7150 O.2    27  GLY27      -0.2717
     30  N         -4.5790   51.9890   27.4520 N.am   28  SER28      -0.1938
     31  CA        -4.3210   50.5810   27.3700 C.3    28  SER28       0.2055
     32  C         -3.5930   50.3430   26.0330 C.2    28  SER28       0.2642
     33  O         -3.7740   51.1220   25.0990 O.2    28  SER28      -0.2714
     34  CB        -5.6820   49.8810   27.4140 C.3    28  SER28       0.2130
     35  OG        -5.5640   48.5270   27.0470 O.3    28  SER28      -0.2179
     36  N         -2.7380   49.3170   25.9440 N.am   29  VAL29      -0.1977
     37  CA        -2.1840   48.8450   24.6710 C.3    29  VAL29       0.1596
     38  C         -2.4690   47.3280   24.4940 C.2    29  VAL29       0.2287
     39  O         -2.1830   46.5310   25.3930 O.2    29  VAL29      -0.2864
     40  CB        -0.6740   49.1080   24.5420 C.3    29  VAL29       0.0276
     41  CG1       -0.2230   48.6080   23.1190 C.3    29  VAL29       0.0022
     42  CG2       -0.3630   50.6400   24.6780 C.3    29  VAL29       0.0022
     43  N          0.2040   46.5280   17.5270 N.3    46  ALA46      -0.1245
     44  CA        -0.1050   47.0520   18.8580 C.3    46  ALA46       0.1562
     45  C         -1.0680   48.2430   18.7160 C.2    46  ALA46       0.2260
     46  O         -0.8180   49.1220   17.9220 O.2    46  ALA46      -0.2867
     47  CB         1.1740   47.5010   19.5530 C.3    46  ALA46       0.0290
     48  N         -3.1200   51.2850   20.7450 N.3    48  LYS48      -0.1245
     49  CA        -3.2790   51.9980   21.9990 C.3    48  LYS48       0.1561
     50  C         -4.6680   52.6790   21.9940 C.2    48  LYS48       0.2260
     51  O         -5.0990   53.1950   20.9600 O.2    48  LYS48      -0.2867
     52  CB        -2.1870   53.0990   22.1650 C.3    48  LYS48       0.0271
     53  CG        -2.2660   53.7840   23.5220 C.3    48  LYS48       0.0035
     54  CD        -0.9310   54.5110   23.8040 C.3    48  LYS48       0.0206
     55  CE        -0.9860   55.4270   25.0370 C.3    48  LYS48       0.1093
     56  NZ         0.3180   56.1570   25.0370 N.3    48  LYS48      -0.1314
     57  N          9.7600   53.0710   18.1640 N.3    77  VAL77      -0.1245
     58  CA         8.6810   52.1510   17.6870 C.3    77  VAL77       0.1561
     59  C          8.0200   52.6980   16.3980 C.2    77  VAL77       0.2260
     60  O          7.7970   53.9010   16.2720 O.2    77  VAL77      -0.2867
     61  CB         7.6510   51.8630   18.8160 C.3    77  VAL77       0.0252
     62  CG1        6.7470   53.0400   19.0880 C.3    77  VAL77       0.0019
     63  CG2        6.8340   50.6010   18.5420 C.3    77  VAL77       0.0019
     64  N          0.5150   50.9360   16.2430 N.3    95  MET95      -0.1230
     65  CA         1.9690   50.8440   16.1000 C.3    95  MET95       0.1702
     66  C          2.4340   49.4130   15.6990 C.2    95  MET95       0.2592
     67  O          1.6660   48.4660   15.7860 O.2    95  MET95      -0.2718
     68  CB         2.6420   51.2500   17.3960 C.3    95  MET95       0.0401
     69  CG         2.1430   52.5670   17.9750 C.3    95  MET95       0.0596
     70  SD         2.6460   52.7380   19.7060 S.3    95  MET95      -0.1393
     71  CE         1.2740   51.9030   20.5460 C.3    95  MET95       0.0692
     72  N          3.6900   49.2610   15.2590 N.am   96  GLU96      -0.1966
     73  CA         4.2000   47.9330   14.9810 C.3    96  GLU96       0.1733
     74  C          4.1880   47.1030   16.2610 C.2    96  GLU96       0.2616
     75  O          4.3450   47.6440   17.3620 O.2    96  GLU96      -0.2715
     76  CB         5.6450   48.0030   14.4240 C.3    96  GLU96       0.0429
     77  CG         6.6810   48.6570   15.4050 C.3    96  GLU96       0.1163
     78  CD         8.1530   48.6410   14.8970 C.2    96  GLU96       0.3649
     79  OE1        8.9060   49.5910   15.2130 O.co2  96  GLU96      -0.2457
     80  OE2        8.5730   47.7010   14.2020 O.co2  96  GLU96      -0.2457
     81  N          4.0890   45.7690   16.1330 N.am   97  PHE97      -0.1960
     82  CA         4.1340   44.9260   17.3180 C.3    97  PHE97       0.1771
     83  C          5.5180   44.3490   17.4630 C.2    97  PHE97       0.2619
     84  O          6.0470   43.7210   16.4860 O.2    97  PHE97      -0.2715
     85  CB         3.1540   43.7490   17.1760 C.3    97  PHE97       0.0574
     86  CG         3.2550   42.7800   18.3280 C.ar   97  PHE97      -0.0200
     87  CD1        3.0070   43.2130   19.6160 C.ar   97  PHE97      -0.0042
     88  CD2        3.5980   41.4220   18.1260 C.ar   97  PHE97      -0.0042
     89  CE1        3.0650   42.3240   20.6790 C.ar   97  PHE97      -0.0003
     90  CE2        3.6770   40.5600   19.1820 C.ar   97  PHE97      -0.0003
     91  CZ         3.4090   40.9970   20.4490 C.ar   97  PHE97      -0.0000
     92  N          6.1580   44.5030   18.6190 N.am   98  LEU98      -0.1977
     93  CA         7.5140   43.8890   18.8240 C.3    98  LEU98       0.1596
     94  C          7.3800   42.6670   19.7140 C.2    98  LEU98       0.2287
     95  O          7.0340   42.8150   20.8970 O.2    98  LEU98      -0.2864
     96  CB         8.4850   44.8840   19.5160 C.3    98  LEU98       0.0297
     97  CG         8.7990   46.2300   18.8530 C.3    98  LEU98       0.0022
     98  CD1       10.2720   46.5130   19.1390 C.3    98  LEU98       0.0001
     99  CD2        8.5870   46.2900   17.3840 C.3    98  LEU98       0.0001
    100  N          8.5850   41.9320   23.3480 N.3   101  GLY101     -0.1210
    101  CA         7.8980   42.6510   24.3850 C.3   101  GLY101      0.1956
    102  C          8.8160   43.7020   24.9690 C.2   101  GLY101      0.2612
    103  O          9.7780   44.1060   24.3130 O.2   101  GLY101     -0.2717
    104  N          8.5340   44.1250   26.2020 N.am  102  SER102     -0.1952
    105  CA         9.2310   45.2680   26.7500 C.3   102  SER102      0.1924
    106  C         10.6020   44.8240   27.2790 C.2   102  SER102      0.2314
    107  O         10.8360   43.6170   27.5190 O.2   102  SER102     -0.2863
    108  CB         8.3850   45.9330   27.8000 C.3   102  SER102      0.2116
    109  OG         8.6500   45.3280   29.0240 O.3   102  SER102     -0.2180
    110  N         10.5980   42.8380   30.8490 N.3   105  GLU105     -0.1245
    111  CA        10.2490   41.3990   30.7980 C.3   105  GLU105      0.1567
    112  C         11.3530   40.5640   30.0930 C.2   105  GLU105      0.2260
    113  O         11.7160   39.4860   30.5290 O.2   105  GLU105     -0.2867
    114  CB         8.8590   41.1840   30.1680 C.3   105  GLU105      0.0388
    115  CG         8.7400   41.5030   28.6630 C.3   105  GLU105      0.1160
    116  CD         7.3280   41.2290   28.0620 C.2   105  GLU105      0.3649
    117  OE1        6.5220   42.1960   27.8060 O.co2 105  GLU105     -0.2457
    118  OE2        7.0380   40.0270   27.8350 O.co2 105  GLU105     -0.2457
    119  N         10.2310   49.5260   31.3390 N.3   146  ARG146     -0.1231
    120  CA         8.9280   48.9920   30.9320 C.3   146  ARG146      0.1694
    121  C          8.3940   49.6670   29.6240 C.2   146  ARG146      0.2592
    122  O          7.5160   49.1130   28.9430 O.2   146  ARG146     -0.2718
    123  CB         7.9010   49.0720   32.0840 C.3   146  ARG146      0.0321
    124  CG         7.4920   50.4970   32.4340 C.3   146  ARG146      0.0489
    125  CD         6.2640   50.5300   33.3440 C.3   146  ARG146      0.2205
    126  NE         5.1350   51.2030   32.6830 N.pl3 146  ARG146     -0.0865
    127  CZ         4.9950   52.5250   32.6100 C.cat 146  ARG146      0.5346
    128  NH1        5.9110   53.3140   33.1780 N.pl3 146  ARG146      0.1354
    129  NH2        3.9420   53.0540   31.9820 N.pl3 146  ARG146      0.1354
    130  N          8.9200   50.8640   29.3030 N.am  147  ASN147     -0.1974
    131  CA         8.5920   51.6010   28.0700 C.3   147  ASN147      0.1688
    132  C          9.6310   51.4310   26.9880 C.2   147  ASN147      0.2292
    133  O          9.5900   52.1630   26.0000 O.2   147  ASN147     -0.2864
    134  CB         8.3600   53.1110   28.3390 C.3   147  ASN147      0.1181
    135  CG         7.1120   53.3490   29.1850 C.2   147  ASN147      0.2629
    136  OD1        6.0700   52.7000   28.9830 O.2   147  ASN147     -0.2716
    137  ND2        7.2130   54.2430   30.1510 N.am  147  ASN147     -0.0877
    138  N         11.1820   48.6050   24.2360 N.3   149  LEU149     -0.1245
    139  CA        10.6910   47.3450   23.6460 C.3   149  LEU149      0.1561
    140  C         11.8430   46.6110   23.0380 C.2   149  LEU149      0.2260
    141  O         12.8700   47.2100   22.6740 O.2   149  LEU149     -0.2867
    142  CB         9.6840   47.6380   22.5360 C.3   149  LEU149      0.0270
    143  CG         8.5720   48.5430   22.9600 C.3   149  LEU149      0.0019
    144  CD1        7.7240   48.7860   21.7580 C.3   149  LEU149      0.0001
    145  CD2        7.7860   47.9420   24.1220 C.3   149  LEU149      0.0001
    146  N          9.2950   52.9220   23.2530 N.3   159  GLY159     -0.1210
    147  CA         8.0530   52.2870   22.8610 C.3   159  GLY159      0.1956
    148  C          6.7650   52.8920   23.3130 C.2   159  GLY159      0.2611
    149  O          5.7020   52.3060   23.0650 O.2   159  GLY159     -0.2717
    150  N          6.8540   54.0620   23.9690 N.am  160  ASP160     -0.1973
    151  CA         5.6360   54.8160   24.3230 C.3   160  ASP160      0.1709
    152  C          5.8720   56.3110   24.4950 C.2   160  ASP160      0.2293
    153  O          6.9590   56.7070   24.9180 O.2   160  ASP160     -0.2864
    154  CB         4.8940   54.2150   25.5240 C.3   160  ASP160      0.1436
    155  CG         3.5840   54.9360   25.7920 C.2   160  ASP160      0.3671
    156  OD1        2.5530   54.6280   25.1050 O.co2 160  ASP160     -0.2456
    157  OD2        3.5870   55.8920   26.6290 O.co2 160  ASP160     -0.2456
@<TRIPOS>BOND
     1    80    78   ar
     2    76    73    1
     3    76    77    1
     4    78    79   ar
     5    78    77    1
     6    73    72    1
     7    73    74    1
     8    72    66   am
     9    66    67    2
    10    66    65    1
    11    65    64    1
    12    65    68    1
    13    81    74   am
    14    81    82    1
    15    74    75    2
    16    60    59    2
    17    59    58    1
    18    84    83    2
    19    85    82    1
    20    85    86    1
    21    82    83    1
    22    99    97    1
    23    68    69    1
    24    83    92   am
    25    43    44    1
    26    58    57    1
    27    58    61    1
    28    46    45    2
    29    69    70    1
    30    88    86   ar
    31    88    90   ar
    32    86    87   ar
    33    63    61    1
    34    92    93    1
    35    45    44    1
    36    61    62    1
    37    93    96    1
    38    93    94    1
    39    97    98    1
    40    97    96    1
    41    44    47    1
    42    90    91   ar
    43    87    89   ar
    44    70    71    1
    45    94    95    2
    46    91    89   ar
    47    48    49    1
    48    51    50    2
    49   144   143    1
    50    50    49    1
    51    49    52    1
    52    52    53    1
    53   142   143    1
    54   142   139    1
    55   141   140    2
    56     7     6    1
    57   147   146    1
    58   147   148    1
    59   143   145    1
    60   140   139    1
    61   149   148    2
    62    41    40    1
    63   148   150   am
    64   100   101    1
    65    53    54    1
    66   139   138    1
    67    54    55    1
    68   150   151    1
    69     6     8    1
    70     6     5    1
    71   103   102    2
    72   151   152    1
    73   151   154    1
    74   101   102    1
    75    38    37    1
    76    38    39    2
    77   152   153    2
    78    40    37    1
    79    40    42    1
    80    37    36    1
    81   102   104   am
    82    55    56    1
    83    33    32    2
    84   156   155   ar
    85     5     2    1
    86   154   155    1
    87   155   157   ar
    88    36    32   am
    89   133   132    2
    90    32    31    1
    91   104   105    1
    92     1     2    1
    93     2     3    1
    94   105   106    1
    95   105   108    1
    96   132   131    1
    97    35    34    1
    98   106   107    2
    99    31    34    1
   100    31    30    1
   101    30    28   am
   102   108   109    1
   103   117   116   ar
   104   118   116   ar
   105     3     9   am
   106     3     4    2
   107   116   115    1
   108   131   134    1
   109   131   130    1
   110     9    10    1
   111   134   135    1
   112    27    28    1
   113    27    26    1
   114    28    29    2
   115   115   114    1
   116    12    11    2
   117   122   121    2
   118   136   135    2
   119    10    11    1
   120   135   137   am
   121   130   121   am
   122    11    13   am
   123   121   120    1
   124   112   113    2
   125   112   111    1
   126   114   111    1
   127   111   110    1
   128    13    14    1
   129   120   119    1
   130   120   123    1
   131    14    17    1
   132    14    15    1
   133    17    18    1
   134    22    15   am
   135    22    23    1
   136    18    19    1
   137   129   127    1
   138   123   124    1
   139    15    16    2
   140    20    19    1
   141    20    21    1
   142   124   125    1
   143   127   126    2
   144   127   128    1
   145   126   125    1
   146    23    24    1
   147    25    24    2
