@<TRIPOS>MOLECULE
tmp/4e6tB00.pdb
 87 84 0 0 0
SMALL
GASTEIGER

@<TRIPOS>ATOM
      1  N        -25.9460  -11.2440  -26.5980 N.3    79  GLN79      -0.1231
      2  CA       -25.6230  -11.7870  -27.9090 C.3    79  GLN79       0.1698
      3  C        -26.3540  -13.0870  -28.2300 C.2    79  GLN79       0.2592
      4  O        -26.1090  -13.6870  -29.2720 O.2    79  GLN79      -0.2718
      5  CB       -24.1150  -12.0250  -28.0120 C.3    79  GLN79       0.0381
      6  CG       -23.3180  -10.8040  -27.6260 C.3    79  GLN79       0.0905
      7  CD       -21.8240  -11.0240  -27.7110 C.2    79  GLN79       0.2608
      8  OE1      -21.1540  -10.3850  -28.5210 O.2    79  GLN79      -0.2717
      9  NE2      -21.2940  -11.9240  -26.8730 N.am   79  GLN79      -0.0878
     10  N        -27.2260  -13.5340  -27.3290 N.am   80  ASP80      -0.1960
     11  CA       -28.0010  -14.7550  -27.5430 C.3    80  ASP80       0.1840
     12  C        -28.9810  -14.4970  -28.6850 C.2    80  ASP80       0.2622
     13  O        -29.7160  -13.5100  -28.6650 O.2    80  ASP80      -0.2715
     14  CB       -28.7400  -15.1150  -26.2390 C.3    80  ASP80       0.1450
     15  CG       -29.2760  -16.5410  -26.2130 C.2    80  ASP80       0.3671
     16  OD1      -29.5640  -17.1230  -27.2980 O.co2  80  ASP80      -0.2456
     17  OD2      -29.4280  -17.0660  -25.0840 O.co2  80  ASP80      -0.2456
     18  N        -28.9610  -15.3620  -29.6980 N.am   81  LEU81      -0.1963
     19  CA       -29.8890  -15.2190  -30.8220 C.3    81  LEU81       0.1728
     20  C        -31.3490  -15.4860  -30.4100 C.2    81  LEU81       0.2616
     21  O        -32.2880  -15.1290  -31.1330 O.2    81  LEU81      -0.2715
     22  CB       -29.4480  -16.0820  -32.0160 C.3    81  LEU81       0.0311
     23  CG       -28.2160  -15.5330  -32.7650 C.3    81  LEU81       0.0022
     24  CD1      -27.6060  -16.5970  -33.6620 C.3    81  LEU81       0.0001
     25  CD2      -28.5240  -14.2410  -33.5440 C.3    81  LEU81       0.0001
     26  N        -31.5320  -16.1030  -29.2410 N.am   82  LYS82      -0.1977
     27  CA       -32.8750  -16.3230  -28.6830 C.3    82  LYS82       0.1596
     28  C        -33.5000  -15.0460  -28.1380 C.2    82  LYS82       0.2287
     29  O        -34.7270  -14.9580  -28.0160 O.2    82  LYS82      -0.2864
     30  CB       -32.8360  -17.3770  -27.5820 C.3    82  LYS82       0.0298
     31  CG       -32.4200  -18.7720  -28.0570 C.3    82  LYS82       0.0038
     32  CD       -32.5840  -19.8290  -26.9610 C.3    82  LYS82       0.0206
     33  CE       -31.4800  -19.7220  -25.9110 C.3    82  LYS82       0.1093
     34  NZ       -30.1010  -19.9320  -26.4600 N.3    82  LYS82      -0.1314
     35  N        -23.2300   -8.1030  -20.3150 N.3   105  HIS105     -0.1241
     36  CA       -24.5190   -8.1460  -21.0340 C.3   105  HIS105      0.1621
     37  C        -25.6930   -8.5300  -20.1460 C.2   105  HIS105      0.2264
     38  O        -25.5130   -9.2480  -19.1510 O.2   105  HIS105     -0.2867
     39  CB       -24.4260   -9.0500  -22.2660 C.3   105  HIS105      0.0745
     40  CG       -23.5430   -8.4970  -23.3430 C.ar  105  HIS105      0.0817
     41  ND1      -23.1720   -9.2350  -24.4460 N.ar  105  HIS105     -0.2268
     42  CD2      -22.9830   -7.2720  -23.4990 C.ar  105  HIS105      0.1154
     43  CE1      -22.4040   -8.4930  -25.2280 C.ar  105  HIS105      0.1986
     44  NE2      -22.2490   -7.3050  -24.6610 N.ar  105  HIS105     -0.2212
     45  N        -15.3150  -10.4710  -20.6080 N.3   128  HIS128     -0.1241
     46  CA       -16.7060  -10.5660  -21.1250 C.3   128  HIS128      0.1621
     47  C        -17.5530  -11.3770  -20.1580 C.2   128  HIS128      0.2264
     48  O        -17.2240  -12.5060  -19.8630 O.2   128  HIS128     -0.2867
     49  CB       -16.7800  -11.2170  -22.5140 C.3   128  HIS128      0.0745
     50  CG       -18.1830  -11.4810  -22.9880 C.ar  128  HIS128      0.0817
     51  ND1      -19.0070  -10.4830  -23.4660 N.ar  128  HIS128     -0.2268
     52  CD2      -18.9100  -12.6240  -23.0390 C.ar  128  HIS128      0.1154
     53  CE1      -20.1740  -11.0000  -23.8080 C.ar  128  HIS128      0.1986
     54  NE2      -20.1440  -12.2980  -23.5600 N.ar  128  HIS128     -0.2212
     55  N        -21.2140  -12.7470  -20.1950 N.3   130  ALA130     -0.1231
     56  CA       -22.4220  -12.9520  -21.0000 C.3   130  ALA130      0.1694
     57  C        -23.7450  -12.8750  -20.2260 C.2   130  ALA130      0.2592
     58  O        -23.7870  -12.9480  -18.9930 O.2   130  ALA130     -0.2718
     59  CB       -22.3470  -14.2950  -21.7440 C.3   130  ALA130      0.0304
     60  N        -24.8360  -12.7840  -20.9880 N.am  131  HIS131     -0.1976
     61  CA       -26.1850  -12.8940  -20.4210 C.3   131  HIS131      0.1656
     62  C        -26.3020  -13.9730  -19.3450 C.2   131  HIS131      0.2291
     63  O        -25.8290  -15.0920  -19.5140 O.2   131  HIS131     -0.2864
     64  CB       -27.2120  -13.1670  -21.5230 C.3   131  HIS131      0.0771
     65  CG       -26.9590  -14.4340  -22.2980 C.ar  131  HIS131      0.0820
     66  ND1      -27.6340  -15.6130  -22.0540 N.ar  131  HIS131     -0.2267
     67  CD2      -26.1070  -14.6970  -23.3170 C.ar  131  HIS131      0.1154
     68  CE1      -27.2060  -16.5500  -22.8880 C.ar  131  HIS131      0.1986
     69  NE2      -26.2840  -16.0150  -23.6720 N.ar  131  HIS131     -0.2212
     70  N        -19.1240  -17.3220  -20.9400 N.3   148  ALA148     -0.1231
     71  CA       -20.3140  -17.5010  -21.7630 C.3   148  ALA148      0.1694
     72  C        -21.6010  -17.5150  -20.9140 C.2   148  ALA148      0.2592
     73  O        -21.5510  -17.3940  -19.6930 O.2   148  ALA148     -0.2718
     74  CB       -20.1910  -18.7750  -22.5870 C.3   148  ALA148      0.0304
     75  N        -22.7490  -17.6630  -21.5680 N.am  149  GLY149     -0.1957
     76  CA       -24.0560  -17.4930  -20.9020 C.3   149  GLY149      0.1869
     77  C        -24.3350  -18.4120  -19.7360 C.2   149  GLY149      0.2309
     78  O        -23.9250  -19.5720  -19.7520 O.2   149  GLY149     -0.2863
     79  N        -20.8380  -22.1190  -21.5840 N.3   167  GLN167     -0.1245
     80  CA       -22.1450  -21.8510  -21.0130 C.3   167  GLN167      0.1566
     81  C        -22.5710  -22.8840  -19.9580 C.2   167  GLN167      0.2260
     82  O        -22.2750  -24.0990  -20.0810 O.2   167  GLN167     -0.2867
     83  CB       -23.2040  -21.7630  -22.1260 C.3   167  GLN167      0.0367
     84  CG       -23.3270  -23.0350  -22.9780 C.3   167  GLN167      0.0905
     85  CD       -24.5500  -23.0540  -23.9040 C.2   167  GLN167      0.2608
     86  OE1      -25.0030  -24.1310  -24.3130 O.2   167  GLN167     -0.2717
     87  NE2      -25.0860  -21.8800  -24.2310 N.am  167  GLN167     -0.0878
@<TRIPOS>BOND
     1    24    23    1
     2    25    23    1
     3    23    22    1
     4    22    19    1
     5    21    20    2
     6    19    20    1
     7    19    18    1
     8    20    26   am
     9    18    12   am
    10     4     3    2
    11    26    27    1
    12    12    13    2
    13    12    11    1
    14    27    28    1
    15    27    30    1
    16     8     7    2
    17     3     2    1
    18     3    10   am
    19    28    29    2
    20    31    30    1
    21    31    32    1
    22     5     2    1
    23     5     6    1
    24     2     1    1
    25     7     6    1
    26     7     9   am
    27    11    10    1
    28    11    14    1
    29    16    15   ar
    30    32    33    1
    31    34    33    1
    32    14    15    1
    33    15    17   ar
    34    43    44   ar
    35    43    41   ar
    36    44    42   ar
    37    41    40   ar
    38    86    85    2
    39    87    85   am
    40    85    84    1
    41    53    54   ar
    42    53    51   ar
    43    69    67   ar
    44    69    68   ar
    45    54    52   ar
    46    42    40   ar
    47    51    50   ar
    48    40    39    1
    49    67    65   ar
    50    52    50   ar
    51    50    49    1
    52    84    83    1
    53    68    66   ar
    54    74    71    1
    55    49    46    1
    56    65    66   ar
    57    65    64    1
    58    39    36    1
    59    83    80    1
    60    71    70    1
    61    71    72    1
    62    59    56    1
    63    79    80    1
    64    75    72   am
    65    75    76    1
    66    64    61    1
    67    46    45    1
    68    46    47    1
    69    36    35    1
    70    36    37    1
    71    80    81    1
    72    56    57    1
    73    56    55    1
    74    60    61    1
    75    60    57   am
    76    72    73    2
    77    76    77    1
    78    61    62    1
    79    57    58    2
    80    47    48    2
    81    37    38    2
    82    82    81    2
    83    78    77    2
    84    63    62    2
