@<TRIPOS>MOLECULE
tmp/4e70B00.pdb
 121 116 0 0 0
SMALL
GASTEIGER

@<TRIPOS>ATOM
      1  N          0.4600   -2.6870  -19.5800 N.3   117  LEU117     -0.1245
      2  CA         1.0770   -3.9560  -19.2130 C.3   117  LEU117      0.1561
      3  C          1.8020   -4.5590  -20.4140 C.2   117  LEU117      0.2260
      4  O          2.8710   -5.1550  -20.2720 O.2   117  LEU117     -0.2867
      5  CB         0.0460   -4.9380  -18.6500 C.3   117  LEU117      0.0270
      6  CG         0.6740   -6.1550  -17.9510 C.3   117  LEU117      0.0019
      7  CD1        1.5770   -5.7050  -16.8100 C.3   117  LEU117      0.0001
      8  CD2       -0.3960   -7.1070  -17.4400 C.3   117  LEU117      0.0001
      9  N          5.0470   -2.5550  -20.9130 N.3   120  CYS120     -0.1221
     10  CA         5.9420   -2.9370  -19.8320 C.3   120  CYS120      0.1808
     11  C          6.5840   -4.2940  -20.1100 C.2   120  CYS120      0.2601
     12  O          7.8020   -4.4570  -20.0010 O.2   120  CYS120     -0.2717
     13  CB         5.1600   -2.9920  -18.5180 C.3   120  CYS120      0.0970
     14  SG         6.1890   -3.3550  -17.1060 S.3   120  CYS120     -0.0800
     15  N          5.7540   -5.2580  -20.4910 N.am  121  SER121     -0.1952
     16  CA         6.1920   -6.6460  -20.6060 C.3   121  SER121      0.1924
     17  C          7.1380   -6.9050  -21.7750 C.2   121  SER121      0.2314
     18  O          7.9620   -7.8110  -21.7070 O.2   121  SER121     -0.2863
     19  CB         4.9790   -7.5730  -20.6920 C.3   121  SER121      0.2116
     20  OG         4.1390   -7.3980  -19.5580 O.3   121  SER121     -0.2180
     21  N         12.8060   -6.0010  -19.6500 N.3   126  LEU126     -0.1245
     22  CA        12.3340   -7.3480  -19.3130 C.3   126  LEU126      0.1561
     23  C         12.7460   -8.4050  -20.3370 C.2   126  LEU126      0.2260
     24  O         12.9290   -9.5750  -19.9960 O.2   126  LEU126     -0.2867
     25  CB        10.8100   -7.3560  -19.0910 C.3   126  LEU126      0.0270
     26  CG        10.3520   -6.6040  -17.8370 C.3   126  LEU126      0.0019
     27  CD1        8.8520   -6.7420  -17.6300 C.3   126  LEU126      0.0001
     28  CD2       11.0930   -7.0960  -16.6110 C.3   126  LEU126      0.0001
     29  N          4.3210   -0.1710  -15.4590 N.3   171  PHE171     -0.1241
     30  CA         4.0910   -1.2820  -14.5400 C.3   171  PHE171      0.1605
     31  C          2.8970   -0.9730  -13.6330 C.2   171  PHE171      0.2264
     32  O          1.9750   -1.7850  -13.5150 O.2   171  PHE171     -0.2867
     33  CB         5.3660   -1.5580  -13.7340 C.3   171  PHE171      0.0534
     34  CG         5.4400   -2.9420  -13.1370 C.ar  171  PHE171     -0.0203
     35  CD1        4.3320   -3.7740  -13.1060 C.ar  171  PHE171     -0.0042
     36  CD2        6.6290   -3.4020  -12.5940 C.ar  171  PHE171     -0.0042
     37  CE1        4.4110   -5.0420  -12.5440 C.ar  171  PHE171     -0.0003
     38  CE2        6.7140   -4.6680  -12.0310 C.ar  171  PHE171     -0.0003
     39  CZ         5.6040   -5.4870  -12.0090 C.ar  171  PHE171     -0.0000
     40  N         -0.8240   -2.8390  -13.4920 N.3   175  MET175     -0.1245
     41  CA        -1.3840   -3.4890  -12.3130 C.3   175  MET175      0.1570
     42  C         -2.7750   -2.9430  -12.0080 C.2   175  MET175      0.2261
     43  O         -3.6950   -3.7020  -11.6850 O.2   175  MET175     -0.2867
     44  CB        -0.4620   -3.3270  -11.1080 C.3   175  MET175      0.0387
     45  CG         0.8740   -4.0700  -11.2260 C.3   175  MET175      0.0595
     46  SD         0.7260   -5.8590  -11.4290 S.3   175  MET175     -0.1393
     47  CE         1.0130   -6.0210  -13.1970 C.3   175  MET175      0.0692
     48  N         -1.9860  -10.5530   -5.7830 N.3   260  TRP260     -0.1241
     49  CA        -0.8310  -10.6200   -6.6830 C.3   260  TRP260      0.1605
     50  C          0.4060  -10.0260   -6.0140 C.2   260  TRP260      0.2264
     51  O          1.1620   -9.2650   -6.6220 O.2   260  TRP260     -0.2867
     52  CB        -1.1240   -9.8750   -7.9930 C.3   260  TRP260      0.0550
     53  CG        -1.1020  -10.7090   -9.2570 C.ar  260  TRP260      0.0003
     54  CD1       -0.9330  -12.0590   -9.3680 C.ar  260  TRP260      0.0946
     55  CD2       -1.2680  -10.2100  -10.5850 C.ar  260  TRP260      0.0152
     56  NE1       -0.9760  -12.4270  -10.6970 N.ar  260  TRP260     -0.2442
     57  CE2       -1.1960  -11.3130  -11.4610 C.ar  260  TRP260      0.0810
     58  CE3       -1.4830   -8.9370  -11.1170 C.ar  260  TRP260      0.0012
     59  CZ2       -1.3100  -11.1740  -12.8460 C.ar  260  TRP260      0.0191
     60  CZ3       -1.6030   -8.7960  -12.4840 C.ar  260  TRP260      0.0001
     61  CH2       -1.5200   -9.9100  -13.3350 C.ar  260  TRP260      0.0015
     62  N          3.1530  -13.8730   -4.7660 N.3   263  CYS263     -0.1221
     63  CA         3.8130  -14.4840   -5.9220 C.3   263  CYS263      0.1808
     64  C          5.1260  -13.7940   -6.2920 C.2   263  CYS263      0.2601
     65  O          5.9300  -14.3510   -7.0400 O.2   263  CYS263     -0.2717
     66  CB         2.8860  -14.4590   -7.1470 C.3   263  CYS263      0.0970
     67  SG         2.2890  -12.8000   -7.5750 S.3   263  CYS263     -0.0800
     68  N          5.3410  -12.5750   -5.8070 N.am  264  ASP264     -0.1973
     69  CA         6.5500  -11.8410   -6.1820 C.3   264  ASP264      0.1709
     70  C          7.7640  -12.2600   -5.3560 C.2   264  ASP264      0.2293
     71  O          8.8930  -11.8680   -5.6710 O.2   264  ASP264     -0.2864
     72  CB         6.3670  -10.3270   -5.9960 C.3   264  ASP264      0.1436
     73  CG         5.3160   -9.7260   -6.9260 C.2   264  ASP264      0.3671
     74  OD1        4.7490  -10.4520   -7.7690 O.co2 264  ASP264     -0.2456
     75  OD2        5.0770   -8.5020   -6.8230 O.co2 264  ASP264     -0.2456
     76  N          4.0570  -17.1630  -17.1710 N.3   310  LEU310     -0.1245
     77  CA         4.1620  -16.2220  -16.0580 C.3   310  LEU310      0.1561
     78  C          5.2100  -16.6700  -15.0480 C.2   310  LEU310      0.2260
     79  O          5.9550  -15.8400  -14.5200 O.2   310  LEU310     -0.2867
     80  CB         2.8140  -16.0360  -15.3580 C.3   310  LEU310      0.0270
     81  CG         1.7510  -15.2830  -16.1510 C.3   310  LEU310      0.0019
     82  CD1        0.4430  -15.3250  -15.3730 C.3   310  LEU310      0.0001
     83  CD2        2.1920  -13.8520  -16.3690 C.3   310  LEU310      0.0001
     84  N          8.3970  -15.6140  -16.5180 N.3   313  LEU313     -0.1231
     85  CA         8.5370  -14.1650  -16.4050 C.3   313  LEU313      0.1693
     86  C          8.9480  -13.7890  -14.9820 C.2   313  LEU313      0.2592
     87  O          9.8940  -13.0210  -14.7750 O.2   313  LEU313     -0.2718
     88  CB         7.2120  -13.4910  -16.7520 C.3   313  LEU313      0.0284
     89  CG         7.1390  -11.9860  -16.4930 C.3   313  LEU313      0.0019
     90  CD1        8.0490  -11.2290  -17.4700 C.3   313  LEU313      0.0001
     91  CD2        5.7030  -11.5110  -16.5930 C.3   313  LEU313      0.0001
     92  N          8.2380  -14.3500  -14.0050 N.am  314  PHE314     -0.1976
     93  CA         8.4890  -14.0270  -12.6040 C.3   314  PHE314      0.1639
     94  C          9.8710  -14.5210  -12.2010 C.2   314  PHE314      0.2290
     95  O         10.5620  -13.8670  -11.4340 O.2   314  PHE314     -0.2864
     96  CB         7.4390  -14.6580  -11.6820 C.3   314  PHE314      0.0560
     97  CG         6.0470  -14.0570  -11.7940 C.ar  314  PHE314     -0.0200
     98  CD1        5.7360  -13.1090  -12.7500 C.ar  314  PHE314     -0.0042
     99  CD2        5.0610  -14.4400  -10.8990 C.ar  314  PHE314     -0.0042
    100  CE1        4.4500  -12.5790  -12.8330 C.ar  314  PHE314     -0.0003
    101  CE2        3.7750  -13.9150  -10.9700 C.ar  314  PHE314     -0.0003
    102  CZ         3.4710  -12.9780  -11.9350 C.ar  314  PHE314     -0.0000
    103  N         12.4850  -11.7530  -13.4420 N.3   317  PHE317     -0.1227
    104  CA        12.5590  -10.3650  -12.9690 C.3   317  PHE317      0.1736
    105  C         12.0280  -10.0910  -11.5660 C.2   317  PHE317      0.2595
    106  O         12.2420   -9.0080  -11.0280 O.2   317  PHE317     -0.2718
    107  CB        11.9470   -9.3770  -13.9890 C.3   317  PHE317      0.0547
    108  CG        10.5000   -9.0170  -13.7260 C.ar  317  PHE317     -0.0202
    109  CD1        9.4790   -9.8290  -14.1800 C.ar  317  PHE317     -0.0042
    110  CD2       10.1660   -7.8410  -13.0570 C.ar  317  PHE317     -0.0042
    111  CE1        8.1510   -9.5010  -13.9550 C.ar  317  PHE317     -0.0003
    112  CE2        8.8440   -7.5090  -12.8220 C.ar  317  PHE317     -0.0003
    113  CZ         7.8300   -8.3360  -13.2760 C.ar  317  PHE317     -0.0000
    114  N         11.3390  -11.0630  -10.9820 N.am  318  LEU318     -0.1980
    115  CA        10.9130  -10.9600   -9.5910 C.3   318  LEU318      0.1596
    116  C         11.7000  -11.9810   -8.7770 C.2   318  LEU318      0.2287
    117  O         12.7170  -12.4950   -9.2480 O.2   318  LEU318     -0.2864
    118  CB         9.4100  -11.2000   -9.4750 C.3   318  LEU318      0.0297
    119  CG         8.5160  -10.1810  -10.1830 C.3   318  LEU318      0.0022
    120  CD1        7.0830  -10.6950  -10.2470 C.3   318  LEU318      0.0001
    121  CD2        8.5700   -8.8390   -9.4610 C.3   318  LEU318      0.0001
@<TRIPOS>BOND
     1    17    18    2
     2    17    16    1
     3     9    10    1
     4    19    16    1
     5    19    20    1
     6    16    15    1
     7    15    11   am
     8     3     4    2
     9     3     2    1
    10    23    24    2
    11    23    22    1
    12    11    12    2
    13    11    10    1
    14    10    13    1
    15    21    22    1
    16     1     2    1
    17    22    25    1
    18     2     5    1
    19    25    26    1
    20     5     6    1
    21    13    14    1
    22     6     8    1
    23     6     7    1
    24    26    27    1
    25    26    28    1
    26    90    89    1
    27    76    77    1
    28    88    89    1
    29    88    85    1
    30    91    89    1
    31    84    85    1
    32    85    86    1
    33    83    81    1
    34    81    82    1
    35    81    80    1
    36    77    80    1
    37    77    78    1
    38    29    30    1
    39    78    79    2
    40    86    87    2
    41    86    92   am
    42    30    33    1
    43    30    31    1
    44   109   111   ar
    45   109   108   ar
    46    92    93    1
    47   107   108    1
    48   107   104    1
    49   111   113   ar
    50    33    34    1
    51   108   110   ar
    52    31    32    2
    53    40    41    1
    54   103   104    1
    55    61    59   ar
    56    61    60   ar
    57   113   112   ar
    58    47    46    1
    59    34    35   ar
    60    34    36   ar
    61    35    37   ar
    62   110   112   ar
    63   104   105    1
    64    59    57   ar
    65   100    98   ar
    66   100   102   ar
    67    98    97   ar
    68    93    94    1
    69    93    96    1
    70    36    38   ar
    71    37    39   ar
    72    60    58   ar
    73    41    42    1
    74    41    44    1
    75    94    95    2
    76    38    39   ar
    77    42    43    2
    78   102   101   ar
    79    97    96    1
    80    97    99   ar
    81   105   106    2
    82   105   114   am
    83    57    56   ar
    84    57    55   ar
    85    46    45    1
    86    45    44    1
    87    58    55   ar
    88   114   115    1
    89   101    99   ar
    90    56    54   ar
    91    55    53   ar
    92   120   119    1
    93   119   118    1
    94   119   121    1
    95   115   118    1
    96   115   116    1
    97    54    53   ar
    98    53    52    1
    99   117   116    2
   100    52    49    1
   101    74    73   ar
   102    67    66    1
   103    66    63    1
   104    65    64    2
   105    73    75   ar
   106    73    72    1
   107    49    50    1
   108    49    48    1
   109    51    50    2
   110    64    63    1
   111    64    68   am
   112    69    72    1
   113    69    68    1
   114    69    70    1
   115    63    62    1
   116    71    70    2
