@<TRIPOS>MOLECULE
tmp/4e73A01.pdb
 146 137 0 0 0
SMALL
GASTEIGER

@<TRIPOS>ATOM
      1  N          7.5330    6.0170    7.7270 N.3    23  LYS23      -0.1231
      2  CA         6.3290    6.8230    7.8900 C.3    23  LYS23       0.1678
      3  C          5.5350    6.3000    9.0930 C.2    23  LYS23       0.2434
      4  O          5.3450    5.0910    9.2400 O.2    23  LYS23      -0.2733
      5  CB         5.4660    6.7430    6.6290 C.3    23  LYS23       0.0284
      6  CG         5.8860    7.6980    5.5140 C.3    23  LYS23       0.0035
      7  CD         6.9220    7.0790    4.5950 C.3    23  LYS23       0.0206
      8  CE         6.9230    7.7710    3.2280 C.3    23  LYS23       0.1093
      9  NZ         5.8090    7.2750    2.3580 N.3    23  LYS23      -0.1314
     10  N          5.0650    7.2060    9.9680 N.am   24  PRO24      -0.2718
     11  CA         4.2870    6.7920   11.1440 C.3    24  PRO24       0.1535
     12  C          2.9200    6.2460   10.7300 C.2    24  PRO24       0.2598
     13  O          2.2820    6.7910    9.8390 O.2    24  PRO24      -0.2715
     14  CB         4.1750    8.0760   11.9760 C.3    24  PRO24       0.0310
     15  CG         4.2900    9.1790   10.9760 C.3    24  PRO24       0.0237
     16  CD         5.2390    8.6670    9.9020 C.3    24  PRO24       0.0939
     17  N          2.4830    5.1550   11.3530 N.am   25  ILE25      -0.1964
     18  CA         1.1490    4.6160   11.0770 C.3    25  ILE25       0.1727
     19  C          0.2640    4.6300   12.3150 C.2    25  ILE25       0.2617
     20  O         -0.9590    4.5340   12.2170 O.2    25  ILE25      -0.2715
     21  CB         1.2010    3.1660   10.5410 C.3    25  ILE25       0.0290
     22  CG1        1.8820    2.2540   11.5670 C.3    25  ILE25       0.0022
     23  CG2        1.9180    3.1320    9.2120 C.3    25  ILE25       0.0023
     24  CD1        1.7940    0.7660   11.2260 C.3    25  ILE25       0.0001
     25  N          0.8800    4.7400   13.4830 N.am   26  GLY26      -0.1940
     26  CA         0.0930    4.8840   14.6870 C.3    26  GLY26       0.2014
     27  C          0.9570    4.9680   15.9220 C.2    26  GLY26       0.2640
     28  O          2.1900    4.9410   15.8320 O.2    26  GLY26      -0.2714
     29  N          0.3050    5.0660   17.0790 N.am   27  SER27      -0.1935
     30  CA         1.0040    5.0960   18.3550 C.3    27  SER27       0.2055
     31  C          0.1820    4.4530   19.4670 C.2    27  SER27       0.2643
     32  O         -1.0400    4.5980   19.5140 O.2    27  SER27      -0.2714
     33  CB         1.3450    6.5420   18.7320 C.3    27  SER27       0.2130
     34  OG         0.2680    7.4120   18.4220 O.3    27  SER27      -0.2179
     35  N          0.8660    3.7280   20.3480 N.am   28  GLY28      -0.1954
     36  CA         0.2600    3.2700   21.5820 C.3    28  GLY28       0.1869
     37  C          1.1080    3.7460   22.7420 C.2    28  GLY28       0.2309
     38  O          2.0580    4.5030   22.5440 O.2    28  GLY28      -0.2863
     39  N          4.9980    3.6820   16.1710 N.3    33  VAL33      -0.1245
     40  CA         5.1590    2.6640   15.1420 C.3    33  VAL33       0.1561
     41  C          5.1890    3.2780   13.7390 C.2    33  VAL33       0.2260
     42  O          4.2700    4.0080   13.3490 O.2    33  VAL33      -0.2867
     43  CB         4.0240    1.6170   15.2130 C.3    33  VAL33       0.0252
     44  CG1        4.2630    0.5150   14.1990 C.3    33  VAL33       0.0019
     45  CG2        3.9450    1.0260   16.6140 C.3    33  VAL33       0.0019
     46  N          5.8310    2.4060    9.4300 N.3    35  ALA35      -0.1245
     47  CA         6.1170    1.4920    8.3220 C.3    35  ALA35       0.1562
     48  C          7.4530    1.9150    7.7350 C.2    35  ALA35       0.2260
     49  O          7.7470    3.1120    7.6430 O.2    35  ALA35      -0.2867
     50  CB         5.0400    1.5780    7.2580 C.3    35  ALA35       0.0290
     51  N          7.9460   -4.2540    3.0910 N.3    44  ASN44      -0.1240
     52  CA         7.6590   -3.2720    4.1210 C.3    44  ASN44       0.1653
     53  C          7.5540   -3.9430    5.4810 C.2    44  ASN44       0.2266
     54  O          7.0780   -5.0680    5.6000 O.2    44  ASN44      -0.2867
     55  CB         6.3630   -2.5400    3.7980 C.3    44  ASN44       0.1155
     56  CG         6.4910   -1.6530    2.5740 C.2    44  ASN44       0.2627
     57  OD1        7.5830   -1.2090    2.2340 O.2    44  ASN44      -0.2716
     58  ND2        5.3730   -1.3900    1.9120 N.am   44  ASN44      -0.0877
     59  N          6.9860   -3.0690    9.9930 N.3    46  ALA46      -0.1245
     60  CA         6.6260   -2.1620   11.0800 C.3    46  ALA46       0.1562
     61  C          7.7900   -2.0750   12.0580 C.2    46  ALA46       0.2260
     62  O          8.3470   -3.0920   12.4530 O.2    46  ALA46      -0.2867
     63  CB         5.3970   -2.6830   11.7970 C.3    46  ALA46       0.0290
     64  N          1.1780  -11.5150   14.5440 N.3    79  ILE79      -0.1245
     65  CA         2.2610  -10.6350   14.1360 C.3    79  ILE79       0.1561
     66  C          3.6030  -11.1990   14.6160 C.2    79  ILE79       0.2260
     67  O          3.7710  -11.5370   15.7840 O.2    79  ILE79      -0.2867
     68  CB         2.0590   -9.1950   14.6970 C.3    79  ILE79       0.0252
     69  CG1        0.9060   -8.5050   13.9630 C.3    79  ILE79       0.0019
     70  CG2        3.3320   -8.3840   14.5430 C.3    79  ILE79       0.0019
     71  CD1        1.1190   -8.3640   12.4630 C.3    79  ILE79       0.0001
     72  N          8.7550   -5.6950   12.9790 N.3   101  MET101     -0.1230
     73  CA         7.6530   -6.6400   12.8730 C.3   101  MET101      0.1702
     74  C          7.0650   -6.6890   11.4730 C.2   101  MET101      0.2592
     75  O          7.2810   -5.7930   10.6540 O.2   101  MET101     -0.2718
     76  CB         6.5180   -6.2480   13.8260 C.3   101  MET101      0.0401
     77  CG         6.8680   -6.2240   15.2870 C.3   101  MET101      0.0596
     78  SD         5.5190   -5.4070   16.1960 S.3   101  MET101     -0.1393
     79  CE         5.9400   -3.7210   15.9790 C.3   101  MET101      0.0692
     80  N          6.2660   -7.7190   11.2270 N.am  102  GLU102     -0.1966
     81  CA         5.5000   -7.7940    9.9900 C.3   102  GLU102      0.1733
     82  C          4.5160   -6.6330    9.9140 C.2   102  GLU102      0.2616
     83  O          3.9770   -6.1730   10.9350 O.2   102  GLU102     -0.2715
     84  CB         4.7430   -9.1230    9.9230 C.3   102  GLU102      0.0429
     85  CG         5.6430  -10.3540   10.0290 C.3   102  GLU102      0.1163
     86  CD         4.8560  -11.6540   10.1230 C.2   102  GLU102      0.3649
     87  OE1        4.1330  -11.8600   11.1240 O.co2 102  GLU102     -0.2457
     88  OE2        4.9600  -12.4760    9.1900 O.co2 102  GLU102     -0.2457
     89  N          4.2890   -6.1570    8.6970 N.am  103  LEU103     -0.1963
     90  CA         3.3600   -5.0600    8.4600 C.3   103  LEU103      0.1728
     91  C          2.1480   -5.5350    7.6660 C.2   103  LEU103      0.2616
     92  O          2.2810   -6.2080    6.6430 O.2   103  LEU103     -0.2715
     93  CB         4.0710   -3.9380    7.7030 C.3   103  LEU103      0.0311
     94  CG         3.3060   -2.6430    7.4180 C.3   103  LEU103      0.0022
     95  CD1        3.1920   -1.7920    8.6920 C.3   103  LEU103      0.0001
     96  CD2        4.0500   -1.8690    6.3440 C.3   103  LEU103      0.0001
     97  N          0.9600   -5.1910    8.1430 N.am  104  MET104     -0.1963
     98  CA        -0.2530   -5.5120    7.4070 C.3   104  MET104      0.1736
     99  C         -0.7800   -4.2310    6.7420 C.2   104  MET104      0.2616
    100  O         -0.0120   -3.2890    6.5450 O.2   104  MET104     -0.2715
    101  CB        -1.2830   -6.1320    8.3590 C.3   104  MET104      0.0427
    102  CG        -0.8100   -7.4530    8.9790 C.3   104  MET104      0.0599
    103  SD        -0.5750   -8.8460    7.8060 S.3   104  MET104     -0.1393
    104  CE        -2.1810   -9.5920    7.8520 C.3   104  MET104      0.0692
    105  N         -2.0640   -4.1940    6.3850 N.am  105  ASP105     -0.1957
    106  CA        -2.6050   -3.0710    5.6110 C.3   105  ASP105      0.1840
    107  C         -3.5670   -2.1740    6.3870 C.2   105  ASP105      0.2622
    108  O         -3.6270   -0.9680    6.1550 O.2   105  ASP105     -0.2715
    109  CB        -3.3060   -3.5900    4.3470 C.3   105  ASP105      0.1450
    110  CG        -2.3270   -4.1460    3.3210 C.2   105  ASP105      0.3671
    111  OD1       -1.1190   -3.8180    3.3950 O.co2 105  ASP105     -0.2456
    112  OD2       -2.7650   -4.9100    2.4400 O.co2 105  ASP105     -0.2456
    113  N         -4.3210   -2.7600    7.3100 N.am  106  ALA106     -0.1963
    114  CA        -5.3260   -2.0180    8.0620 C.3   106  ALA106      0.1728
    115  C         -5.6980   -2.8050    9.3100 C.2   106  ALA106      0.2616
    116  O         -5.4550   -4.0030    9.3780 O.2   106  ALA106     -0.2715
    117  CB        -6.5550   -1.8010    7.2010 C.3   106  ALA106      0.0334
    118  N         -6.2770   -2.1350   10.3020 N.am  107  ASN107     -0.1972
    119  CA        -6.8850   -2.8580   11.4050 C.3   107  ASN107      0.1688
    120  C         -8.3150   -3.2220   11.0300 C.2   107  ASN107      0.2292
    121  O         -8.7700   -2.9280    9.9320 O.2   107  ASN107     -0.2864
    122  CB        -6.8560   -2.0350   12.6970 C.3   107  ASN107      0.1181
    123  CG        -7.7700   -0.8220   12.6520 C.2   107  ASN107      0.2629
    124  OD1       -8.8060   -0.8220   11.9860 O.2   107  ASN107     -0.2716
    125  ND2       -7.3850    0.2210   13.3710 N.am  107  ASN107     -0.0877
    126  N         -9.2820   -3.0270   16.9400 N.3   148  SER148     -0.1217
    127  CA        -8.0750   -2.2240   16.7550 C.3   148  SER148      0.1889
    128  C         -6.7450   -2.9450   16.9890 C.2   148  SER148      0.2288
    129  O         -5.7140   -2.3920   16.6620 O.2   148  SER148     -0.2866
    130  CB        -8.1100   -0.9730   17.6390 C.3   148  SER148      0.2089
    131  OG        -8.1250   -1.3170   19.0140 O.3   148  SER148     -0.2183
    132  N         -5.3540   -7.1500   12.7350 N.3   151  VAL151     -0.1245
    133  CA        -5.0180   -6.4890   11.4840 C.3   151  VAL151      0.1561
    134  C         -5.1250   -7.4060   10.2770 C.2   151  VAL151      0.2260
    135  O         -5.0010   -8.6320   10.3740 O.2   151  VAL151     -0.2867
    136  CB        -3.6110   -5.8500   11.5350 C.3   151  VAL151      0.0252
    137  CG1       -3.6120   -4.7130   12.5450 C.3   151  VAL151      0.0019
    138  CG2       -2.5690   -6.8820   11.8900 C.3   151  VAL151      0.0019
    139  N         -2.5370   -8.8030   16.7100 N.3   161  LEU161     -0.1245
    140  CA        -1.4460   -7.8450   16.7680 C.3   161  LEU161      0.1561
    141  C         -0.5310   -8.0330   17.9670 C.2   161  LEU161      0.2260
    142  O          0.6930   -7.9390   17.8320 O.2   161  LEU161     -0.2867
    143  CB        -2.0060   -6.4250   16.7690 C.3   161  LEU161      0.0270
    144  CG        -1.0090   -5.2670   16.8220 C.3   161  LEU161      0.0019
    145  CD1       -0.0030   -5.3550   15.6810 C.3   161  LEU161      0.0001
    146  CD2       -1.7780   -3.9760   16.7340 C.3   161  LEU161      0.0001
@<TRIPOS>BOND
     1    58    56   am
     2    57    56    2
     3     9     8    1
     4   112   110   ar
     5    56    55    1
     6    51    52    1
     7     8     7    1
     8   110   111   ar
     9   110   109    1
    10    55    52    1
    11    52    53    1
    12   109   106    1
    13     7     6    1
    14    53    54    2
    15     6     5    1
    16   106   105    1
    17   106   107    1
    18   108   107    2
    19    96    94    1
    20   105    99   am
    21   107   113   am
    22   100    99    2
    23     5     2    1
    24    92    91    2
    25    99    98    1
    26   117   114    1
    27    50    47    1
    28   113   114    1
    29    98    97    1
    30    98   101    1
    31    94    93    1
    32    94    95    1
    33    49    48    2
    34    91    97   am
    35    91    90    1
    36    93    90    1
    37     1     2    1
    38    48    47    1
    39   103   104    1
    40   103   102    1
    41     2     3    1
    42   114   115    1
    43    47    46    1
    44   101   102    1
    45    90    89    1
    46    89    82   am
    47     3     4    2
    48     3    10   am
    49    88    86   ar
    50    23    21    1
    51   115   116    2
    52   115   118   am
    53    13    12    2
    54    16    10    1
    55    16    15    1
    56    82    81    1
    57    82    83    2
    58    84    81    1
    59    84    85    1
    60   121   120    2
    61    10    11    1
    62    81    80    1
    63    59    60    1
    64    85    86    1
    65    86    87   ar
    66   134   135    2
    67   134   133    1
    68   118   119    1
    69    21    18    1
    70    21    22    1
    71    75    74    2
    72    12    11    1
    73    12    17   am
    74    15    14    1
    75   120   119    1
    76    18    17    1
    77    18    19    1
    78    60    63    1
    79    60    61    1
    80    11    14    1
    81    24    22    1
    82    80    74   am
    83   119   122    1
    84    74    73    1
    85   133   136    1
    86   133   132    1
    87   136   138    1
    88   136   137    1
    89   124   123    2
    90    61    62    2
    91    20    19    2
    92    19    25   am
    93    71    69    1
    94   123   122    1
    95   123   125   am
    96    73    72    1
    97    73    76    1
    98    42    41    2
    99    25    26    1
   100    41    40    1
   101    76    77    1
   102    69    68    1
   103    65    64    1
   104    65    66    1
   105    65    68    1
   106    44    43    1
   107    70    68    1
   108    66    67    2
   109    26    27    1
   110    40    43    1
   111    40    39    1
   112    43    45    1
   113    77    78    1
   114   145   144    1
   115    28    27    2
   116    27    29   am
   117    79    78    1
   118   129   128    2
   119   139   140    1
   120   146   144    1
   121   127   126    1
   122   127   128    1
   123   127   130    1
   124   140   143    1
   125   140   141    1
   126   143   144    1
   127    29    30    1
   128   130   131    1
   129   142   141    2
   130    30    33    1
   131    30    31    1
   132    34    33    1
   133    31    32    2
   134    31    35   am
   135    35    36    1
   136    36    37    1
   137    38    37    2
