@<TRIPOS>MOLECULE
tmp/4e78C00.pdb
 202 193 0 0 0
SMALL
GASTEIGER

@<TRIPOS>ATOM
      1  N         35.8350  -34.7700   19.7450 N.3    15  CYS15      -0.1221
      2  CA        35.4240  -35.4780   20.9650 C.3    15  CYS15       0.1808
      3  C         36.2660  -34.9990   22.1560 C.2    15  CYS15       0.2601
      4  O         35.8540  -34.0970   22.8990 O.2    15  CYS15      -0.2717
      5  CB        35.5610  -37.0040   20.7910 C.3    15  CYS15       0.0970
      6  SG        37.1090  -37.5920   20.0370 S.3    15  CYS15      -0.0800
      7  N         37.4530  -35.5970   22.3050 N.am   16  SER16      -0.1952
      8  CA        38.3810  -35.2950   23.3990 C.3    16  SER16       0.1924
      9  C         39.1010  -33.9680   23.1520 C.2    16  SER16       0.2314
     10  O         39.9600  -33.9100   22.2750 O.2    16  SER16      -0.2863
     11  CB        39.4210  -36.4180   23.5310 C.3    16  SER16       0.2116
     12  OG        40.1180  -36.6290   22.3130 O.3    16  SER16      -0.2180
     13  N         31.2310  -56.4010   22.0740 N.3    93  THR93      -0.1204
     14  CA        31.4410  -54.9560   22.1850 C.3    93  THR93       0.1979
     15  C         32.7020  -54.6410   22.9940 C.2    93  THR93       0.2459
     16  O         32.9280  -55.2220   24.0500 O.2    93  THR93      -0.2732
     17  CB        30.2410  -54.2930   22.8670 C.3    93  THR93       0.1783
     18  OG1       29.0750  -54.5650   22.0960 O.3    93  THR93      -0.2211
     19  CG2       30.4180  -52.7970   22.9870 C.3    93  THR93       0.0376
     20  N         33.5480  -53.7370   22.4970 N.am   94  PRO94      -0.2728
     21  CA        34.7090  -53.3790   23.3120 C.3    94  PRO94       0.1401
     22  C         34.3250  -52.6270   24.5890 C.2    94  PRO94       0.2269
     23  O         33.2870  -51.9660   24.6200 O.2    94  PRO94      -0.2865
     24  CB        35.5230  -52.4740   22.3900 C.3    94  PRO94       0.0296
     25  CG        35.1090  -52.8710   21.0160 C.3    94  PRO94       0.0237
     26  CD        33.6570  -53.2270   21.1220 C.3    94  PRO94       0.0939
     27  N         35.0600  -49.8620   26.3400 N.3    96  HIS96      -0.1226
     28  CA        34.6890  -48.4640   26.5140 C.3    96  HIS96       0.1752
     29  C         34.0920  -47.8860   25.2560 C.2    96  HIS96       0.2597
     30  O         34.2320  -46.6940   24.9760 O.2    96  HIS96      -0.2718
     31  CB        35.8830  -47.6650   27.0400 C.3    96  HIS96       0.0759
     32  CG        36.4730  -48.2310   28.3240 C.ar   96  HIS96       0.0818
     33  ND1       35.7950  -48.2440   29.4960 N.ar   96  HIS96      -0.2268
     34  CD2       37.7170  -48.8250   28.5840 C.ar   96  HIS96       0.1154
     35  CE1       36.5610  -48.8130   30.4570 C.ar   96  HIS96       0.1986
     36  NE2       37.7360  -49.1690   29.8990 N.ar   96  HIS96      -0.2212
     37  N         33.3600  -48.7260   24.5210 N.am   97  SER97      -0.1938
     38  CA        32.7650  -48.3390   23.2450 C.3    97  SER97       0.2055
     39  C         31.8150  -47.1610   23.4840 C.2    97  SER97       0.2642
     40  O         31.0310  -47.1890   24.4220 O.2    97  SER97      -0.2714
     41  CB        32.0470  -49.5470   22.6250 C.3    97  SER97       0.2130
     42  OG        31.9140  -49.4430   21.2170 O.3    97  SER97      -0.2179
     43  N         31.9090  -46.1180   22.6620 N.am   98  ALA98      -0.1977
     44  CA        31.1290  -44.8810   22.8640 C.3    98  ALA98       0.1597
     45  C         29.6450  -45.1410   23.1270 C.2    98  ALA98       0.2287
     46  O         28.9520  -45.7970   22.3530 O.2    98  ALA98      -0.2864
     47  CB        31.2900  -43.9310   21.6840 C.3    98  ALA98       0.0319
     48  N         33.4340  -37.6270   13.0680 N.3   140  MET140     -0.1245
     49  CA        34.4300  -37.0690   13.9660 C.3   140  MET140      0.1570
     50  C         35.7940  -37.0780   13.3090 C.2   140  MET140      0.2261
     51  O         36.0250  -37.7950   12.3270 O.2   140  MET140     -0.2867
     52  CB        34.4690  -37.8910   15.2490 C.3   140  MET140      0.0387
     53  CG        33.1400  -37.9110   15.9980 C.3   140  MET140      0.0595
     54  SD        33.1440  -37.0900   17.6040 S.3   140  MET140     -0.1393
     55  CE        33.6090  -38.5240   18.5980 C.3   140  MET140      0.0692
     56  N         39.6650  -38.0480   13.7470 N.3   142  LYS142     -0.1245
     57  CA        40.6930  -38.8040   14.4900 C.3   142  LYS142      0.1561
     58  C         41.9180  -37.9300   14.5810 C.2   142  LYS142      0.2260
     59  O         42.3470  -37.3690   13.5810 O.2   142  LYS142     -0.2867
     60  CB        41.0660  -40.1350   13.8100 C.3   142  LYS142      0.0271
     61  CG        42.0020  -40.9760   14.7120 C.3   142  LYS142      0.0035
     62  CD        42.3380  -42.2900   14.0190 C.3   142  LYS142      0.0206
     63  CE        43.4170  -41.9800   12.9730 C.3   142  LYS142      0.1093
     64  NZ        43.7790  -43.2710   12.3000 N.3   142  LYS142     -0.1314
     65  N         36.2490  -39.8380   10.6940 N.3   161  ILE161     -0.1245
     66  CA        35.6770  -41.0610   11.2370 C.3   161  ILE161      0.1561
     67  C         34.1680  -40.9680   11.1840 C.2   161  ILE161      0.2260
     68  O         33.6010  -39.9400   11.5360 O.2   161  ILE161     -0.2867
     69  CB        36.1010  -41.2720   12.6990 C.3   161  ILE161      0.0252
     70  CG1       37.6160  -41.2640   12.8000 C.3   161  ILE161      0.0019
     71  CG2       35.5810  -42.5990   13.2380 C.3   161  ILE161      0.0019
     72  CD1       38.2650  -42.2870   11.9010 C.3   161  ILE161      0.0001
     73  N         30.6090  -43.3260   12.1010 N.3   163  TYR163     -0.1241
     74  CA        30.0360  -44.5070   12.7610 C.3   163  TYR163      0.1605
     75  C         28.5880  -44.2950   13.2180 C.2   163  TYR163      0.2264
     76  O         28.1610  -43.1690   13.4580 O.2   163  TYR163     -0.2867
     77  CB        30.8800  -44.8860   13.9800 C.3   163  TYR163      0.0534
     78  CG        30.9290  -43.8080   15.0460 C.ar  163  TYR163     -0.0201
     79  CD1       29.9700  -43.7410   16.0480 C.ar  163  TYR163     -0.0009
     80  CD2       31.9270  -42.8520   15.0420 C.ar  163  TYR163     -0.0009
     81  CE1       30.0110  -42.7520   17.0220 C.ar  163  TYR163      0.0417
     82  CE2       31.9790  -41.8610   16.0120 C.ar  163  TYR163      0.0417
     83  CZ        31.0250  -41.8170   17.0020 C.ar  163  TYR163      0.1957
     84  OH        31.0880  -40.8310   17.9600 O.3   163  TYR163     -0.2866
     85  N         25.6140  -50.7750   16.0440 N.3   169  ARG169     -0.1245
     86  CA        26.9150  -51.4870   15.9590 C.3   169  ARG169      0.1563
     87  C         26.8270  -52.9510   16.3830 C.2   169  ARG169      0.2260
     88  O         27.4300  -53.8360   15.7710 O.2   169  ARG169     -0.2867
     89  CB        27.9630  -50.8020   16.8100 C.3   169  ARG169      0.0307
     90  CG        28.3080  -49.3980   16.3750 C.3   169  ARG169      0.0489
     91  CD        29.7170  -49.0520   16.8150 C.3   169  ARG169      0.2205
     92  NE        29.8640  -48.7620   18.2470 N.pl3 169  ARG169     -0.0865
     93  CZ        29.5110  -47.6080   18.8200 C.cat 169  ARG169      0.5346
     94  NH1       29.7090  -47.4330   20.1200 N.pl3 169  ARG169      0.1354
     95  NH2       28.9550  -46.6220   18.1110 N.pl3 169  ARG169      0.1354
     96  N         24.8780  -55.0240   13.6230 N.3   172  GLU172     -0.1231
     97  CA        25.8290  -55.3660   12.5900 C.3   172  GLU172      0.1699
     98  C         26.5250  -56.6440   12.9870 C.2   172  GLU172      0.2592
     99  O         26.5480  -57.5950   12.2140 O.2   172  GLU172     -0.2718
    100  CB        26.8820  -54.3000   12.4180 C.3   172  GLU172      0.0402
    101  CG        26.3970  -52.9200   12.0490 C.3   172  GLU172      0.1161
    102  CD        27.5830  -52.0100   11.7930 C.2   172  GLU172      0.3649
    103  OE1       28.3470  -52.3230   10.8460 O.co2 172  GLU172     -0.2457
    104  OE2       27.7810  -51.0260   12.5550 O.co2 172  GLU172     -0.2457
    105  N         27.0780  -56.6770   14.1990 N.am  173  LYS173     -0.1980
    106  CA        27.7620  -57.8840   14.6530 C.3   173  LYS173      0.1596
    107  C         26.8370  -59.1000   14.6150 C.2   173  LYS173      0.2287
    108  O         27.2480  -60.1680   14.1780 O.2   173  LYS173     -0.2864
    109  CB        28.3870  -57.7120   16.0420 C.3   173  LYS173      0.0298
    110  CG        29.5750  -56.7700   16.0520 C.3   173  LYS173      0.0038
    111  CD        30.4790  -56.9440   17.2620 C.3   173  LYS173      0.0206
    112  CE        31.6950  -56.0120   17.1820 C.3   173  LYS173      0.1093
    113  NZ        31.3450  -54.5680   17.2690 N.3   173  LYS173     -0.1314
    114  N         29.0820  -60.6630   11.9780 N.3   177  TYR177     -0.1241
    115  CA        30.3080  -61.0990   12.6420 C.3   177  TYR177      0.1605
    116  C         30.7970  -62.4760   12.1750 C.2   177  TYR177      0.2264
    117  O         31.9970  -62.6600   11.9570 O.2   177  TYR177     -0.2867
    118  CB        30.2060  -61.0640   14.1720 C.3   177  TYR177      0.0534
    119  CG        31.5360  -61.4150   14.8310 C.ar  177  TYR177     -0.0201
    120  CD1       31.8780  -62.7400   15.1160 C.ar  177  TYR177     -0.0009
    121  CD2       32.4670  -60.4320   15.1250 C.ar  177  TYR177     -0.0009
    122  CE1       33.0960  -63.0620   15.6870 C.ar  177  TYR177      0.0417
    123  CE2       33.6910  -60.7520   15.6950 C.ar  177  TYR177      0.0417
    124  CZ        33.9920  -62.0630   15.9750 C.ar  177  TYR177      0.1957
    125  OH        35.1930  -62.3600   16.5530 O.3   177  TYR177     -0.2866
    126  N         32.4540  -62.2720    8.8530 N.3   180  THR180     -0.1203
    127  CA        33.7400  -61.6250    9.0040 C.3   180  THR180      0.1994
    128  C         34.8160  -62.5890    9.5270 C.2   180  THR180      0.2617
    129  O         35.9970  -62.3820    9.2850 O.2   180  THR180     -0.2717
    130  CB        33.6870  -60.3650    9.8980 C.3   180  THR180      0.1784
    131  OG1       33.8040  -60.7360   11.2790 O.3   180  THR180     -0.2211
    132  CG2       32.4140  -59.5280    9.6490 C.3   180  THR180      0.0376
    133  N         34.4430  -63.6430   10.2360 N.am  181  GLN181     -0.1979
    134  CA        35.4590  -64.6150   10.6530 C.3   181  GLN181      0.1601
    135  C         35.6680  -65.7480    9.6360 C.2   181  GLN181      0.2287
    136  O         36.6520  -66.4750    9.7230 O.2   181  GLN181     -0.2864
    137  CB        35.1490  -65.1850   12.0470 C.3   181  GLN181      0.0394
    138  CG        34.9960  -64.1410   13.1470 C.3   181  GLN181      0.0908
    139  CD        36.2020  -63.2370   13.2970 C.2   181  GLN181      0.2608
    140  OE1       36.1200  -62.0290   13.0800 O.2   181  GLN181     -0.2717
    141  NE2       37.3300  -63.8170   13.6590 N.am  181  GLN181     -0.0878
    142  N         44.9800  -63.2070    1.8900 N.3   192  TYR192     -0.1241
    143  CA        44.4080  -62.3860    2.9510 C.3   192  TYR192      0.1605
    144  C         45.5370  -61.9440    3.8850 C.2   192  TYR192      0.2264
    145  O         46.2760  -62.7580    4.4190 O.2   192  TYR192     -0.2867
    146  CB        43.3250  -63.1580    3.7050 C.3   192  TYR192      0.0534
    147  CG        42.5340  -62.3060    4.6660 C.ar  192  TYR192     -0.0201
    148  CD1       41.7980  -61.2260    4.2080 C.ar  192  TYR192     -0.0009
    149  CD2       42.5180  -62.5760    6.0330 C.ar  192  TYR192     -0.0009
    150  CE1       41.0730  -60.4300    5.0780 C.ar  192  TYR192      0.0417
    151  CE2       41.7930  -61.7890    6.9110 C.ar  192  TYR192      0.0417
    152  CZ        41.0680  -60.7180    6.4250 C.ar  192  TYR192      0.1957
    153  OH        40.3380  -59.9100    7.2650 O.3   192  TYR192     -0.2866
    154  N         45.7070  -60.0290    6.8980 N.3   194  PHE194     -0.1241
    155  CA        45.6600  -59.8530    8.3390 C.3   194  PHE194      0.1605
    156  C         46.0170  -61.1140    9.1020 C.2   194  PHE194      0.2264
    157  O         46.5710  -61.0310   10.1900 O.2   194  PHE194     -0.2867
    158  CB        44.3080  -59.3030    8.7570 C.3   194  PHE194      0.0534
    159  CG        43.9910  -57.9770    8.1160 C.ar  194  PHE194     -0.0203
    160  CD1       44.7170  -56.8420    8.4420 C.ar  194  PHE194     -0.0042
    161  CD2       42.9980  -57.8670    7.1550 C.ar  194  PHE194     -0.0042
    162  CE1       44.4440  -55.6230    7.8360 C.ar  194  PHE194     -0.0003
    163  CE2       42.7240  -56.6520    6.5470 C.ar  194  PHE194     -0.0003
    164  CZ        43.4450  -55.5290    6.8890 C.ar  194  PHE194     -0.0000
    165  N         34.1360  -45.5770    7.8560 N.3   283  SER283     -0.1202
    166  CA        35.2480  -46.1820    8.5680 C.3   283  SER283      0.2020
    167  C         34.7630  -47.0370    9.7330 C.2   283  SER283      0.2619
    168  O         35.2710  -48.1320    9.9560 O.2   283  SER283     -0.2717
    169  CB        36.1410  -45.0720    9.1010 C.3   283  SER283      0.2103
    170  OG        35.3860  -44.1820    9.9190 O.3   283  SER283     -0.2182
    171  N         33.7570  -46.5340   10.4490 N.am  284  GLY284     -0.1942
    172  CA        33.3090  -47.1190   11.7140 C.3   284  GLY284      0.2014
    173  C         32.4470  -48.3660   11.6940 C.2   284  GLY284      0.2639
    174  O         32.1360  -48.9170   12.7540 O.2   284  GLY284     -0.2714
    175  N         32.0610  -48.8380   10.5180 N.am  285  VAL285     -0.1963
    176  CA        31.1830  -49.9960   10.4580 C.3   285  VAL285      0.1727
    177  C         31.9580  -51.3180   10.4360 C.2   285  VAL285      0.2616
    178  O         33.1740  -51.3480   10.2050 O.2   285  VAL285     -0.2715
    179  CB        30.1940  -49.8790    9.2890 C.3   285  VAL285      0.0290
    180  CG1       29.3870  -48.5940    9.4340 C.3   285  VAL285      0.0023
    181  CG2       30.9080  -49.9540    7.9460 C.3   285  VAL285      0.0023
    182  N         31.2440  -52.4050   10.7110 N.am  286  LEU286     -0.1977
    183  CA        31.8640  -53.7260   10.8890 C.3   286  LEU286      0.1596
    184  C         32.5460  -54.1910    9.6150 C.2   286  LEU286      0.2287
    185  O         33.6990  -54.6050    9.6360 O.2   286  LEU286     -0.2864
    186  CB        30.8080  -54.7570   11.3240 C.3   286  LEU286      0.0297
    187  CG        31.2740  -56.2040   11.5590 C.3   286  LEU286      0.0022
    188  CD1       32.2930  -56.2400   12.6780 C.3   286  LEU286      0.0001
    189  CD2       30.1280  -57.1720   11.8580 C.3   286  LEU286      0.0001
    190  N         33.8430  -52.7480    7.0390 N.3   288  THR288     -0.1203
    191  CA        34.8310  -51.9530    6.3160 C.3   288  THR288      0.1994
    192  C         36.0950  -52.7250    5.9880 C.2   288  THR288      0.2618
    193  O         36.4690  -52.8710    4.8350 O.2   288  THR288     -0.2717
    194  CB        35.2590  -50.7160    7.0990 C.3   288  THR288      0.1784
    195  OG1       34.1060  -49.9970    7.5330 O.3   288  THR288     -0.2211
    196  CG2       36.0920  -49.8340    6.2230 C.3   288  THR288      0.0376
    197  N         36.7520  -53.2270    7.0140 N.am  289  SER289     -0.1951
    198  CA        38.0230  -53.8880    6.8340 C.3   289  SER289      0.1924
    199  C         37.9020  -55.0580    5.8710 C.2   289  SER289      0.2314
    200  O         38.7260  -55.2230    4.9780 O.2   289  SER289     -0.2863
    201  CB        38.5290  -54.3610    8.1870 C.3   289  SER289      0.2116
    202  OG        39.7620  -55.0200    8.0500 O.3   289  SER289     -0.2180
@<TRIPOS>BOND
     1   142   143    1
     2   143   146    1
     3   143   144    1
     4   146   147    1
     5   144   145    2
     6   148   147   ar
     7   148   150   ar
     8   147   149   ar
     9   193   192    2
    10   200   199    2
    11   150   152   ar
    12   199   198    1
    13   192   191    1
    14   192   197   am
    15   149   151   ar
    16   196   194    1
    17   191   190    1
    18   191   194    1
    19   152   151   ar
    20   152   153    1
    21   163   164   ar
    22   163   161   ar
    23   198   197    1
    24   198   201    1
    25   164   162   ar
    26   154   155    1
    27   194   195    1
    28   161   159   ar
    29   162   160   ar
    30   165   166    1
    31   181   179    1
    32   202   201    1
    33   159   160   ar
    34   159   158    1
    35   155   158    1
    36   155   156    1
    37   166   169    1
    38   166   167    1
    39   126   127    1
    40   127   128    1
    41   127   130    1
    42   169   170    1
    43   156   157    2
    44   129   128    2
    45   179   180    1
    46   179   176    1
    47   128   133   am
    48   184   185    2
    49   184   183    1
    50   135   136    2
    51   135   134    1
    52   132   130    1
    53   167   168    2
    54   167   171   am
    55   130   131    1
    56   178   177    2
    57   133   134    1
    58   177   176    1
    59   177   182   am
    60   171   172    1
    61   176   175    1
    62   175   173   am
    63   134   137    1
    64    65    66    1
    65   182   183    1
    66   103   102   ar
    67   183   186    1
    68    67    66    1
    69    67    68    2
    70    66    69    1
    71   186   187    1
    72   187   189    1
    73   187   188    1
    74   173   172    1
    75   173   174    2
    76   102   101    1
    77   102   104   ar
    78    72    70    1
    79   117   116    2
    80   114   115    1
    81   137   138    1
    82   101   100    1
    83    73    74    1
    84   116   115    1
    85    99    98    2
    86    64    63    1
    87    51    50    2
    88   100    97    1
    89    97    98    1
    90    97    96    1
    91   115   118    1
    92    69    70    1
    93    69    71    1
    94    74    75    1
    95    74    77    1
    96    63    62    1
    97    98   105   am
    98    48    49    1
    99   140   139    2
   100   138   139    1
   101    75    76    2
   102   139   141   am
   103    50    49    1
   104    59    58    2
   105    56    57    1
   106    60    57    1
   107    60    61    1
   108    49    52    1
   109    77    78    1
   110    62    61    1
   111   118   119    1
   112   108   107    2
   113   105   106    1
   114    57    58    1
   115   107   106    1
   116   106   109    1
   117   119   120   ar
   118   119   121   ar
   119    80    78   ar
   120    80    82   ar
   121    78    79   ar
   122   120   122   ar
   123   121   123   ar
   124    52    53    1
   125   122   124   ar
   126   123   124   ar
   127    88    87    2
   128    86    85    1
   129    86    87    1
   130    86    89    1
   131   124   125    1
   132    53    54    1
   133    82    83   ar
   134   109   110    1
   135    79    81   ar
   136   110   111    1
   137    90    89    1
   138    90    91    1
   139    91    92    1
   140    83    81   ar
   141    83    84    1
   142   112   111    1
   143   112   113    1
   144    54    55    1
   145    95    93    1
   146    92    93    2
   147    93    94    1
   148     1     2    1
   149     6     5    1
   150     5     2    1
   151     2     3    1
   152    25    26    1
   153    25    24    1
   154    26    20    1
   155    42    41    1
   156    47    44    1
   157    13    14    1
   158    18    17    1
   159     3     7   am
   160     3     4    2
   161    14    17    1
   162    14    15    1
   163    10     9    2
   164     7     8    1
   165    12    11    1
   166    46    45    2
   167    24    21    1
   168    20    15   am
   169    20    21    1
   170    41    38    1
   171    43    44    1
   172    43    39   am
   173    44    45    1
   174    17    19    1
   175    15    16    2
   176     9     8    1
   177    38    39    1
   178    38    37    1
   179    21    22    1
   180     8    11    1
   181    39    40    2
   182    37    29   am
   183    22    23    2
   184    30    29    2
   185    29    28    1
   186    27    28    1
   187    28    31    1
   188    31    32    1
   189    32    34   ar
   190    32    33   ar
   191    34    36   ar
   192    33    35   ar
   193    36    35   ar
