@<TRIPOS>MOLECULE
tmp/4e7aC00.pdb
 215 205 0 0 0
SMALL
GASTEIGER

@<TRIPOS>ATOM
      1  N         35.3710  -34.3530   19.3120 N.3    15  CYS15      -0.1221
      2  CA        34.8010  -35.1570   20.4050 C.3    15  CYS15       0.1808
      3  C         35.3830  -34.7350   21.7660 C.2    15  CYS15       0.2601
      4  O         34.6640  -34.2300   22.6400 O.2    15  CYS15      -0.2717
      5  CB        35.0540  -36.6600   20.1630 C.3    15  CYS15       0.0970
      6  SG        36.7590  -37.1140   19.7230 S.3    15  CYS15      -0.0800
      7  N         36.6990  -34.9260   21.9010 N.am   16  SER16      -0.1952
      8  CA        37.4360  -34.7820   23.1600 C.3    16  SER16       0.1924
      9  C         38.3880  -33.5790   23.1180 C.2    16  SER16       0.2314
     10  O         39.5930  -33.7650   22.9380 O.2    16  SER16      -0.2863
     11  CB        38.2580  -36.0520   23.3860 C.3    16  SER16       0.2116
     12  OG        39.1590  -36.2670   22.3060 O.3    16  SER16      -0.2180
     13  N         30.8720  -56.0200   21.7730 N.3    93  THR93      -0.1204
     14  CA        31.0870  -54.5840   21.8580 C.3    93  THR93       0.1979
     15  C         32.3230  -54.1540   22.6570 C.2    93  THR93       0.2459
     16  O         32.5020  -54.5290   23.8060 O.2    93  THR93      -0.2732
     17  CB        29.8760  -53.9160   22.4830 C.3    93  THR93       0.1783
     18  OG1       28.7340  -54.2580   21.7010 O.3    93  THR93      -0.2211
     19  CG2       30.0410  -52.4040   22.5210 C.3    93  THR93       0.0376
     20  N         33.1870  -53.3550   22.0420 N.am   94  PRO94      -0.2728
     21  CA        34.3010  -52.7730   22.7710 C.3    94  PRO94       0.1401
     22  C         33.8670  -52.0310   24.0460 C.2    94  PRO94       0.2269
     23  O         32.8340  -51.3480   24.0430 O.2    94  PRO94      -0.2865
     24  CB        34.8760  -51.7760   21.7740 C.3    94  PRO94       0.0296
     25  CG        34.5560  -52.3530   20.4400 C.3    94  PRO94       0.0237
     26  CD        33.2840  -53.1240   20.5920 C.3    94  PRO94       0.0939
     27  N         34.9520  -49.3280   25.7780 N.3    96  HIS96      -0.1226
     28  CA        34.8040  -47.8790   25.8480 C.3    96  HIS96       0.1752
     29  C         34.0910  -47.3510   24.6310 C.2    96  HIS96       0.2597
     30  O         34.1660  -46.1650   24.3340 O.2    96  HIS96      -0.2718
     31  CB        36.1630  -47.1950   26.0800 C.3    96  HIS96       0.0759
     32  CG        36.8040  -47.5280   27.4310 C.ar   96  HIS96       0.0818
     33  ND1       36.1640  -48.2390   28.3940 N.ar   96  HIS96      -0.2268
     34  CD2       38.0540  -47.1940   27.9600 C.ar   96  HIS96       0.1154
     35  CE1       36.9680  -48.3720   29.4680 C.ar   96  HIS96       0.1986
     36  NE2       38.1220  -47.7310   29.2060 N.ar   96  HIS96      -0.2212
     37  N         33.3470  -48.2180   23.9450 N.am   97  SER97      -0.1938
     38  CA        32.6670  -47.8360   22.7140 C.3    97  SER97       0.2055
     39  C         31.7530  -46.6680   23.0020 C.2    97  SER97       0.2643
     40  O         31.1780  -46.5870   24.0830 O.2    97  SER97      -0.2714
     41  CB        31.8690  -49.0170   22.1350 C.3    97  SER97       0.2130
     42  OG        31.3050  -48.7220   20.8560 O.3    97  SER97      -0.2179
     43  N         31.6470  -45.7650   22.0280 N.am   98  ALA98      -0.1963
     44  CA        30.8160  -44.5610   22.1220 C.3    98  ALA98       0.1728
     45  C         29.4190  -44.8920   22.5750 C.2    98  ALA98       0.2616
     46  O         28.7920  -45.7920   22.0280 O.2    98  ALA98      -0.2715
     47  CB        30.7480  -43.8750   20.7770 C.3    98  ALA98       0.0334
     48  N         28.9310  -44.1590   23.5670 N.am   99  ARG99      -0.1977
     49  CA        27.6100  -44.4210   24.1290 C.3    99  ARG99       0.1597
     50  C         26.4820  -44.1380   23.1360 C.2    99  ARG99       0.2287
     51  O         26.6730  -43.4180   22.1560 O.2    99  ARG99      -0.2864
     52  CB        27.3920  -43.5990   25.3960 C.3    99  ARG99       0.0334
     53  CG        27.2360  -42.0950   25.1790 C.3    99  ARG99       0.0492
     54  CD        26.9280  -41.3590   26.4750 C.3    99  ARG99       0.2205
     55  NE        25.5910  -41.6780   26.9910 N.pl3  99  ARG99      -0.0865
     56  CZ        25.2930  -42.6750   27.8380 C.cat  99  ARG99       0.5346
     57  NH1       24.0310  -42.8500   28.2330 N.pl3  99  ARG99       0.1354
     58  NH2       26.2310  -43.5050   28.2990 N.pl3  99  ARG99       0.1354
     59  N         32.8990  -37.2930   12.7210 N.3   140  MET140     -0.1245
     60  CA        33.8830  -36.7580   13.6730 C.3   140  MET140      0.1570
     61  C         35.2640  -36.7240   13.0400 C.2   140  MET140      0.2261
     62  O         35.5190  -37.4330   12.0700 O.2   140  MET140     -0.2867
     63  CB        33.9630  -37.6420   14.9250 C.3   140  MET140      0.0387
     64  CG        32.7340  -37.6290   15.8310 C.3   140  MET140      0.0595
     65  SD        32.6220  -36.2210   16.9680 S.3   140  MET140     -0.1393
     66  CE        31.4070  -36.8320   18.1480 C.3   140  MET140      0.0692
     67  N         39.0650  -37.7960   13.6620 N.3   142  LYS142     -0.1245
     68  CA        40.0870  -38.4990   14.4560 C.3   142  LYS142      0.1561
     69  C         41.3540  -37.6510   14.4570 C.2   142  LYS142      0.2260
     70  O         41.8210  -37.2700   13.3950 O.2   142  LYS142     -0.2867
     71  CB        40.3950  -39.9070   13.9040 C.3   142  LYS142      0.0271
     72  CG        41.0900  -40.7840   14.9130 C.3   142  LYS142      0.0035
     73  CD        41.1040  -42.2210   14.4800 C.3   142  LYS142      0.0206
     74  CE        42.1540  -43.0010   15.2500 C.3   142  LYS142      0.1093
     75  NZ        41.8770  -43.0550   16.7050 N.3   142  LYS142     -0.1314
     76  N         41.7160  -37.1990    9.8790 N.3   159  ARG159     -0.1245
     77  CA        40.8690  -38.1890    9.2200 C.3   159  ARG159      0.1563
     78  C         39.4360  -37.9850    9.6620 C.2   159  ARG159      0.2260
     79  O         39.2020  -37.5710   10.7920 O.2   159  ARG159     -0.2867
     80  CB        41.2930  -39.5980    9.6000 C.3   159  ARG159      0.0307
     81  CG        40.5860  -40.6840    8.8010 C.3   159  ARG159      0.0489
     82  CD        40.8870  -42.0600    9.3550 C.3   159  ARG159      0.2205
     83  NE        42.3160  -42.2090    9.6200 N.pl3 159  ARG159     -0.0865
     84  CZ        43.2220  -42.6180    8.7350 C.cat 159  ARG159      0.5346
     85  NH1       42.8610  -42.9510    7.4950 N.pl3 159  ARG159      0.1354
     86  NH2       44.5000  -42.7050    9.1030 N.pl3 159  ARG159      0.1354
     87  N         35.8600  -39.6180   10.5870 N.3   161  ILE161     -0.1245
     88  CA        35.2560  -40.8440   11.0450 C.3   161  ILE161      0.1561
     89  C         33.7570  -40.6670   10.9360 C.2   161  ILE161      0.2260
     90  O         33.2320  -39.6220   11.3110 O.2   161  ILE161     -0.2867
     91  CB        35.6740  -41.1160   12.4980 C.3   161  ILE161      0.0252
     92  CG1       37.1680  -41.4190   12.5440 C.3   161  ILE161      0.0019
     93  CG2       34.9300  -42.2990   13.0880 C.3   161  ILE161      0.0019
     94  CD1       37.5480  -42.7160   11.8480 C.3   161  ILE161      0.0001
     95  N         30.0040  -42.7940   11.5750 N.3   163  TYR163     -0.1241
     96  CA        29.4510  -43.9820   12.2260 C.3   163  TYR163      0.1605
     97  C         28.0070  -43.8290   12.7500 C.2   163  TYR163      0.2264
     98  O         27.6150  -42.7450   13.2250 O.2   163  TYR163     -0.2867
     99  CB        30.3720  -44.3860   13.3880 C.3   163  TYR163      0.0534
    100  CG        30.3760  -43.3750   14.5200 C.ar  163  TYR163     -0.0201
    101  CD1       29.5750  -43.5620   15.6400 C.ar  163  TYR163     -0.0009
    102  CD2       31.1460  -42.2260   14.4580 C.ar  163  TYR163     -0.0009
    103  CE1       29.5510  -42.6480   16.6710 C.ar  163  TYR163      0.0417
    104  CE2       31.1250  -41.3060   15.4950 C.ar  163  TYR163      0.0417
    105  CZ        30.3250  -41.5300   16.5970 C.ar  163  TYR163      0.1957
    106  OH        30.2880  -40.6360   17.6380 O.3   163  TYR163     -0.2866
    107  N         25.1460  -50.3320   15.6450 N.3   169  ARG169     -0.1245
    108  CA        26.4460  -51.0200   15.6430 C.3   169  ARG169      0.1563
    109  C         26.3770  -52.4670   16.1470 C.2   169  ARG169      0.2260
    110  O         27.1400  -53.3260   15.6950 O.2   169  ARG169     -0.2867
    111  CB        27.4910  -50.2310   16.4290 C.3   169  ARG169      0.0307
    112  CG        27.8830  -48.9310   15.7510 C.3   169  ARG169      0.0489
    113  CD        29.3150  -48.5310   16.0770 C.3   169  ARG169      0.2205
    114  NE        29.5120  -48.3000   17.5010 N.pl3 169  ARG169     -0.0865
    115  CZ        29.0790  -47.2280   18.1580 C.cat 169  ARG169      0.5346
    116  NH1       29.3110  -47.1290   19.4640 N.pl3 169  ARG169      0.1354
    117  NH2       28.4120  -46.2660   17.5290 N.pl3 169  ARG169      0.1354
    118  N         26.5070  -56.3090   13.9670 N.3   173  LYS173     -0.1245
    119  CA        27.2540  -57.5070   14.3560 C.3   173  LYS173      0.1561
    120  C         26.3780  -58.7560   14.3250 C.2   173  LYS173      0.2260
    121  O         26.8430  -59.8220   13.9420 O.2   173  LYS173     -0.2867
    122  CB        27.9270  -57.3660   15.7370 C.3   173  LYS173      0.0271
    123  CG        29.0130  -56.2990   15.8290 C.3   173  LYS173      0.0035
    124  CD        29.9730  -56.5090   17.0090 C.3   173  LYS173      0.0206
    125  CE        31.0620  -55.4260   17.0640 C.3   173  LYS173      0.1093
    126  NZ        30.5810  -54.0400   17.3980 N.3   173  LYS173     -0.1314
    127  N         28.6750  -60.3790   11.6670 N.3   177  TYR177     -0.1241
    128  CA        29.9110  -60.8280   12.3340 C.3   177  TYR177      0.1605
    129  C         30.4380  -62.1830   11.8440 C.2   177  TYR177      0.2264
    130  O         31.6290  -62.3320   11.6010 O.2   177  TYR177     -0.2867
    131  CB        29.7640  -60.8580   13.8730 C.3   177  TYR177      0.0534
    132  CG        31.0580  -61.2240   14.5700 C.ar  177  TYR177     -0.0201
    133  CD1       31.3960  -62.5520   14.7950 C.ar  177  TYR177     -0.0009
    134  CD2       31.9600  -60.2420   14.9540 C.ar  177  TYR177     -0.0009
    135  CE1       32.5900  -62.8920   15.3940 C.ar  177  TYR177      0.0417
    136  CE2       33.1590  -60.5680   15.5530 C.ar  177  TYR177      0.0417
    137  CZ        33.4690  -61.8940   15.7690 C.ar  177  TYR177      0.1957
    138  OH        34.6570  -62.2260   16.3660 O.3   177  TYR177     -0.2866
    139  N         32.0950  -61.8940    8.4350 N.3   180  THR180     -0.1203
    140  CA        33.3980  -61.2340    8.5530 C.3   180  THR180      0.1994
    141  C         34.4710  -62.2270    9.0210 C.2   180  THR180      0.2617
    142  O         35.6150  -62.1930    8.5840 O.2   180  THR180     -0.2717
    143  CB        33.3460  -60.0300    9.5190 C.3   180  THR180      0.1784
    144  OG1       33.4630  -60.4860   10.8710 O.3   180  THR180     -0.2211
    145  CG2       32.0520  -59.2380    9.3630 C.3   180  THR180      0.0376
    146  N         34.0900  -63.1370    9.8930 N.am  181  GLN181     -0.1979
    147  CA        35.0130  -64.1670   10.3430 C.3   181  GLN181      0.1601
    148  C         35.2900  -65.2600    9.2960 C.2   181  GLN181      0.2287
    149  O         36.3100  -65.9330    9.3780 O.2   181  GLN181     -0.2864
    150  CB        34.4730  -64.8190   11.6190 C.3   181  GLN181      0.0394
    151  CG        34.3280  -63.8550   12.7820 C.3   181  GLN181      0.0908
    152  CD        35.6470  -63.5870   13.4520 C.2   181  GLN181      0.2608
    153  OE1       36.3550  -62.6410   13.1080 O.2   181  GLN181     -0.2717
    154  NE2       36.0030  -64.4410   14.3960 N.am  181  GLN181     -0.0878
    155  N         44.6630  -63.2530    1.7280 N.3   192  TYR192     -0.1241
    156  CA        44.0470  -62.4440    2.7750 C.3   192  TYR192      0.1605
    157  C         45.0920  -62.0610    3.8150 C.2   192  TYR192      0.2264
    158  O         45.6090  -62.9170    4.5250 O.2   192  TYR192     -0.2867
    159  CB        42.8890  -63.2010    3.4070 C.3   192  TYR192      0.0534
    160  CG        42.1480  -62.4120    4.4420 C.ar  192  TYR192     -0.0201
    161  CD1       41.7040  -61.1310    4.1620 C.ar  192  TYR192     -0.0009
    162  CD2       41.8680  -62.9510    5.7030 C.ar  192  TYR192     -0.0009
    163  CE1       41.0170  -60.3940    5.1060 C.ar  192  TYR192      0.0417
    164  CE2       41.1780  -62.2170    6.6530 C.ar  192  TYR192      0.0417
    165  CZ        40.7570  -60.9400    6.3420 C.ar  192  TYR192      0.1957
    166  OH        40.0770  -60.1740    7.2450 O.3   192  TYR192     -0.2866
    167  N         45.4230  -60.0450    6.7210 N.3   194  PHE194     -0.1241
    168  CA        45.2310  -60.0590    8.1750 C.3   194  PHE194      0.1605
    169  C         45.4690  -61.4380    8.7940 C.2   194  PHE194      0.2264
    170  O         45.8570  -61.5270    9.9530 O.2   194  PHE194     -0.2867
    171  CB        43.8330  -59.5500    8.5440 C.3   194  PHE194      0.0534
    172  CG        43.5460  -58.1470    8.0640 C.ar  194  PHE194     -0.0203
    173  CD1       43.8680  -57.0460    8.8450 C.ar  194  PHE194     -0.0042
    174  CD2       42.9510  -57.9210    6.8190 C.ar  194  PHE194     -0.0042
    175  CE1       43.6090  -55.7530    8.3960 C.ar  194  PHE194     -0.0003
    176  CE2       42.6910  -56.6310    6.3690 C.ar  194  PHE194     -0.0003
    177  CZ        43.0180  -55.5470    7.1600 C.ar  194  PHE194     -0.0000
    178  N         33.4750  -45.0350    7.1590 N.3   283  SER283     -0.1202
    179  CA        34.6690  -45.5520    7.8140 C.3   283  SER283      0.2020
    180  C         34.3570  -46.3380    9.1020 C.2   283  SER283      0.2619
    181  O         34.9940  -47.3340    9.3790 O.2   283  SER283     -0.2717
    182  CB        35.5920  -44.3760    8.1170 C.3   283  SER283      0.2103
    183  OG        34.8510  -43.2800    8.6410 O.3   283  SER283     -0.2182
    184  N         33.3540  -45.9140    9.8630 N.am  284  GLY284     -0.1942
    185  CA        33.0610  -46.5260   11.1600 C.3   284  GLY284      0.2014
    186  C         32.1680  -47.7650   11.2290 C.2   284  GLY284      0.2639
    187  O         31.7810  -48.1760   12.3280 O.2   284  GLY284     -0.2714
    188  N         31.8290  -48.3800   10.0960 N.am  285  VAL285     -0.1963
    189  CA        30.8820  -49.5130   10.1160 C.3   285  VAL285      0.1727
    190  C         31.6410  -50.8320   10.1140 C.2   285  VAL285      0.2616
    191  O         32.8350  -50.8610    9.8320 O.2   285  VAL285     -0.2715
    192  CB        29.8860  -49.4870    8.9330 C.3   285  VAL285      0.0290
    193  CG1       29.2980  -48.0900    8.7290 C.3   285  VAL285      0.0023
    194  CG2       30.5590  -49.9850    7.6630 C.3   285  VAL285      0.0023
    195  N         30.9400  -51.9170   10.4220 N.am  286  LEU286     -0.1977
    196  CA        31.5680  -53.2220   10.6370 C.3   286  LEU286      0.1596
    197  C         32.2460  -53.7350    9.3800 C.2   286  LEU286      0.2287
    198  O         33.3830  -54.1980    9.4150 O.2   286  LEU286     -0.2864
    199  CB        30.5120  -54.2310   11.1090 C.3   286  LEU286      0.0297
    200  CG        30.9300  -55.6890   11.3310 C.3   286  LEU286      0.0022
    201  CD1       32.0700  -55.7810   12.3370 C.3   286  LEU286      0.0001
    202  CD2       29.7420  -56.5580   11.7620 C.3   286  LEU286      0.0001
    203  N         33.4610  -52.2320    6.8160 N.3   288  THR288     -0.1203
    204  CA        34.5360  -51.4130    6.2360 C.3   288  THR288      0.1994
    205  C         35.7510  -52.2490    5.8620 C.2   288  THR288      0.2618
    206  O         36.1100  -52.3300    4.6960 O.2   288  THR288     -0.2717
    207  CB        35.0050  -50.2920    7.1780 C.3   288  THR288      0.1784
    208  OG1       33.8800  -49.5270    7.6290 O.3   288  THR288     -0.2211
    209  CG2       35.9520  -49.3800    6.4410 C.3   288  THR288      0.0376
    210  N         36.3690  -52.8940    6.8410 N.am  289  SER289     -0.1951
    211  CA        37.5580  -53.6810    6.5540 C.3   289  SER289      0.1924
    212  C         37.2720  -54.8600    5.6150 C.2   289  SER289      0.2314
    213  O         38.0890  -55.1740    4.7580 O.2   289  SER289     -0.2863
    214  CB        38.2210  -54.1570    7.8530 C.3   289  SER289      0.2116
    215  OG        39.3620  -54.9670    7.5840 O.3   289  SER289     -0.2180
@<TRIPOS>BOND
     1   155   156    1
     2   156   159    1
     3   156   157    1
     4   159   160    1
     5   157   158    2
     6   161   160   ar
     7   161   163   ar
     8   160   162   ar
     9   206   205    2
    10   213   212    2
    11   163   165   ar
    12   212   211    1
    13   162   164   ar
    14   205   204    1
    15   205   210   am
    16   204   203    1
    17   204   207    1
    18   165   164   ar
    19   165   166    1
    20   176   174   ar
    21   176   177   ar
    22   209   207    1
    23   211   210    1
    24   211   214    1
    25   167   168    1
    26   174   172   ar
    27   178   179    1
    28   177   175   ar
    29   207   208    1
    30    85    84    1
    31   215   214    1
    32   194   192    1
    33   179   182    1
    34   179   180    1
    35   172   171    1
    36   172   173   ar
    37   182   183    1
    38   168   171    1
    39   168   169    1
    40   175   173   ar
    41   139   140    1
    42   140   141    1
    43   140   143    1
    44   142   141    2
    45   193   192    1
    46    84    86    1
    47    84    83    2
    48   169   170    2
    49    81    82    1
    50    81    80    1
    51   192   189    1
    52   141   146   am
    53   180   181    2
    54   180   184   am
    55    77    80    1
    56    77    78    1
    57    77    76    1
    58   148   149    2
    59   148   147    1
    60    82    83    1
    61   145   143    1
    62   197   198    2
    63   197   196    1
    64   143   144    1
    65    78    79    2
    66   191   190    2
    67   184   185    1
    68   146   147    1
    69   188   189    1
    70   188   186   am
    71   190   189    1
    72   190   195   am
    73   147   150    1
    74   195   196    1
    75    87    88    1
    76   196   199    1
    77    89    88    1
    78    89    90    2
    79    88    91    1
    80   199   200    1
    81   185   186    1
    82   186   187    2
    83   200   202    1
    84   200   201    1
    85    95    96    1
    86   130   129    2
    87   150   151    1
    88   127   128    1
    89   129   128    1
    90    94    92    1
    91    62    61    2
    92    96    97    1
    93    96    99    1
    94   128   131    1
    95    91    92    1
    96    91    93    1
    97    59    60    1
    98    97    98    2
    99   151   152    1
   100    61    60    1
   101   153   152    2
   102    99   100    1
   103    70    69    2
   104   152   154   am
   105    67    68    1
   106    60    63    1
   107   131   132    1
   108    71    68    1
   109    71    72    1
   110   121   120    2
   111   118   119    1
   112   120   119    1
   113   119   122    1
   114    68    69    1
   115   102   100   ar
   116   102   104   ar
   117    73    72    1
   118    73    74    1
   119   100   101   ar
   120   132   133   ar
   121   132   134   ar
   122   133   135   ar
   123    63    64    1
   124   134   136   ar
   125    74    75    1
   126   135   137   ar
   127   104   105   ar
   128   136   137   ar
   129   101   103   ar
   130   108   107    1
   131   108   109    1
   132   108   111    1
   133   110   109    2
   134   122   123    1
   135   112   113    1
   136   112   111    1
   137   137   138    1
   138   123   124    1
   139    64    65    1
   140   113   114    1
   141   105   103   ar
   142   105   106    1
   143    65    66    1
   144   124   125    1
   145   125   126    1
   146   114   115    2
   147   117   115    1
   148   115   116    1
   149     1     2    1
   150     6     5    1
   151     5     2    1
   152     2     3    1
   153    25    26    1
   154    25    24    1
   155    26    20    1
   156    47    44    1
   157    42    41    1
   158    18    17    1
   159     3     7   am
   160     3     4    2
   161    13    14    1
   162    24    21    1
   163    14    17    1
   164    14    15    1
   165     7     8    1
   166    46    45    2
   167    43    44    1
   168    43    39   am
   169    20    15   am
   170    20    21    1
   171    44    45    1
   172    41    38    1
   173    51    50    2
   174    12    11    1
   175    17    19    1
   176    45    48   am
   177    15    16    2
   178    38    39    1
   179    38    37    1
   180    21    22    1
   181    10     9    2
   182    39    40    2
   183     9     8    1
   184    50    49    1
   185     8    11    1
   186    48    49    1
   187    37    29   am
   188    23    22    2
   189    49    52    1
   190    30    29    2
   191    29    28    1
   192    53    52    1
   193    53    54    1
   194    27    28    1
   195    28    31    1
   196    31    32    1
   197    54    55    1
   198    55    56    2
   199    32    34   ar
   200    32    33   ar
   201    56    57    1
   202    56    58    1
   203    34    36   ar
   204    33    35   ar
   205    36    35   ar
