@<TRIPOS>MOLECULE
tmp/4e7bC00.pdb
 133 133 0 0 0
SMALL
GASTEIGER

@<TRIPOS>ATOM
      1  N        -38.7810    1.1940   24.4810 N.3    90  ARG90      -0.1231
      2  CA       -37.8400    0.2780   23.8410 C.3    90  ARG90       0.1694
      3  C        -37.9620   -1.1750   24.2860 C.2    90  ARG90       0.2591
      4  O        -37.7610   -2.0910   23.4950 O.2    90  ARG90      -0.2718
      5  CB       -36.4150    0.8030   23.7780 C.3    90  ARG90       0.0321
      6  CG       -36.2940    2.0490   22.9170 C.3    90  ARG90       0.0489
      7  CD       -35.0490    2.8670   23.2590 C.3    90  ARG90       0.2205
      8  NE       -34.9840    4.0900   22.4590 N.pl3  90  ARG90      -0.0865
      9  CZ       -34.2430    5.1510   22.7660 C.cat  90  ARG90       0.5346
     10  NH1      -33.4970    5.1450   23.8670 N.pl3  90  ARG90       0.1354
     11  NH2      -34.2460    6.2190   21.9690 N.pl3  90  ARG90       0.1354
     12  N        -38.3060   -1.3670   25.5560 N.am   91  ALA91      -0.1980
     13  CA       -38.4630   -2.6980   26.1240 C.3    91  ALA91       0.1597
     14  C        -39.4520   -3.5130   25.2930 C.2    91  ALA91       0.2287
     15  O        -39.5560   -4.7240   25.4650 O.2    91  ALA91      -0.2864
     16  CB       -38.9340   -2.6030   27.5750 C.3    91  ALA91       0.0319
     17  N        -39.2350   -4.5540   22.4210 N.3    93  ILE93      -0.1231
     18  CA       -38.5180   -5.5980   21.6860 C.3    93  ILE93       0.1692
     19  C        -38.6500   -6.9660   22.3880 C.2    93  ILE93       0.2592
     20  O        -38.6020   -8.0150   21.7350 O.2    93  ILE93      -0.2718
     21  CB       -36.9910   -5.2090   21.4900 C.3    93  ILE93       0.0266
     22  CG1      -36.3030   -6.2080   20.5470 C.3    93  ILE93       0.0019
     23  CG2      -36.2780   -5.1600   22.8190 C.3    93  ILE93       0.0020
     24  CD1      -36.8000   -6.1420   19.1210 C.3    93  ILE93       0.0001
     25  N        -38.8210   -6.9440   23.7100 N.am   94  TRP94      -0.1976
     26  CA       -38.9940   -8.1660   24.5120 C.3    94  TRP94       0.1640
     27  C        -40.1800   -9.0430   24.1240 C.2    94  TRP94       0.2290
     28  O        -40.3130  -10.1710   24.6060 O.2    94  TRP94      -0.2864
     29  CB       -38.9320   -7.9400   26.0280 C.3    94  TRP94       0.0576
     30  CG       -37.5370   -7.7160   26.5580 C.ar   94  TRP94       0.0006
     31  CD1      -36.3760   -8.2570   26.0670 C.ar   94  TRP94       0.0946
     32  CD2      -37.1660   -6.9340   27.6960 C.ar   94  TRP94       0.0152
     33  NE1      -35.3050   -7.8610   26.8300 N.ar   94  TRP94      -0.2442
     34  CE2      -35.7560   -7.0480   27.8380 C.ar   94  TRP94       0.0810
     35  CE3      -37.8840   -6.1480   28.6200 C.ar   94  TRP94       0.0012
     36  CZ2      -35.0530   -6.4080   28.8580 C.ar   94  TRP94       0.0191
     37  CZ3      -37.1860   -5.5110   29.6370 C.ar   94  TRP94       0.0001
     38  CH2      -35.7760   -5.6440   29.7500 C.ar   94  TRP94       0.0015
     39  N        -30.5400   -0.8200   14.4680 N.3   119  ARG119     -0.1231
     40  CA       -29.2160   -0.9250   15.0820 C.3   119  ARG119      0.1679
     41  C        -29.1870   -1.1680   16.6000 C.2   119  ARG119      0.2434
     42  O        -28.3980   -1.9770   17.1020 O.2   119  ARG119     -0.2733
     43  CB       -28.2420    0.1560   14.6130 C.3   119  ARG119      0.0321
     44  CG       -27.9780    0.1590   13.1140 C.3   119  ARG119      0.0489
     45  CD       -27.3050    1.4590   12.6770 C.3   119  ARG119      0.2205
     46  NE       -26.6550    1.3510   11.3680 N.pl3 119  ARG119     -0.0865
     47  CZ       -26.0310    2.3550   10.7550 C.cat 119  ARG119      0.5346
     48  NH1      -25.9740    3.5570   11.3210 N.pl3 119  ARG119      0.1354
     49  NH2      -25.4460    2.1520    9.5810 N.pl3 119  ARG119      0.1354
     50  N        -30.0430   -0.4660   17.3520 N.am  120  PRO120     -0.2718
     51  CA       -30.0520   -0.6640   18.8020 C.3   120  PRO120      0.1535
     52  C        -30.5310   -2.0310   19.2960 C.2   120  PRO120      0.2598
     53  O        -30.3280   -2.3560   20.4650 O.2   120  PRO120     -0.2715
     54  CB       -30.9350    0.4820   19.3020 C.3   120  PRO120      0.0310
     55  CG       -31.8580    0.7070   18.1770 C.3   120  PRO120      0.0237
     56  CD       -30.9450    0.6330   16.9740 C.3   120  PRO120      0.0939
     57  N        -31.1730   -2.8220   18.4340 N.am  121  VAL121     -0.1964
     58  CA       -31.6400   -4.1480   18.8490 C.3   121  VAL121      0.1727
     59  C        -30.9100   -5.2700   18.1270 C.2   121  VAL121      0.2616
     60  O        -31.3630   -6.4200   18.1240 O.2   121  VAL121     -0.2715
     61  CB       -33.1670   -4.3430   18.6300 C.3   121  VAL121      0.0290
     62  CG1      -33.9490   -3.3120   19.4420 C.3   121  VAL121      0.0023
     63  CG2      -33.5080   -4.2530   17.1620 C.3   121  VAL121      0.0023
     64  N        -29.7710   -4.9350   17.5280 N.am  122  ASP122     -0.1957
     65  CA       -28.9620   -5.9180   16.8100 C.3   122  ASP122      0.1840
     66  C        -28.6380   -7.2030   17.5840 C.2   122  ASP122      0.2622
     67  O        -28.6530   -8.2840   17.0240 O.2   122  ASP122     -0.2715
     68  CB       -27.7570   -5.3170   16.0960 C.3   122  ASP122      0.1450
     69  CG       -26.6490   -4.9300   17.0610 C.2   122  ASP122      0.3671
     70  OD1      -26.9300   -4.1960   18.0340 O.co2 122  ASP122     -0.2456
     71  OD2      -25.4950   -5.3630   16.8510 O.co2 122  ASP122     -0.2456
     72  N        -28.3250   -7.0710   18.8670 N.am  123  LEU123     -0.1963
     73  CA       -28.0150   -8.2250   19.7050 C.3   123  LEU123      0.1728
     74  C        -29.2210   -9.1580   19.8790 C.2   123  LEU123      0.2616
     75  O        -29.0680  -10.3830   19.9610 O.2   123  LEU123     -0.2715
     76  CB       -27.3150   -7.8730   21.0190 C.3   123  LEU123      0.0311
     77  CG       -26.0460   -7.0100   20.9650 C.3   123  LEU123      0.0022
     78  CD1      -25.4950   -6.8610   22.3790 C.3   123  LEU123      0.0001
     79  CD2      -24.9900   -7.6540   20.0470 C.3   123  LEU123      0.0001
     80  N        -30.4110   -8.5610   19.9800 N.am  124  HIS124     -0.1973
     81  CA       -31.6440   -9.3360   20.0890 C.3   124  HIS124      0.1656
     82  C        -31.8130  -10.1250   18.7760 C.2   124  HIS124      0.2291
     83  O        -32.0680  -11.3260   18.7870 O.2   124  HIS124     -0.2864
     84  CB       -32.8820   -8.4910   20.3980 C.3   124  HIS124      0.0771
     85  CG       -32.7850   -7.6730   21.6520 C.ar  124  HIS124      0.0820
     86  ND1      -33.4260   -8.0230   22.8230 N.ar  124  HIS124     -0.2267
     87  CD2      -32.1960   -6.4750   21.8910 C.ar  124  HIS124      0.1154
     88  CE1      -33.2420   -7.0740   23.7260 C.ar  124  HIS124      0.1986
     89  NE2      -32.5000   -6.1240   23.1870 N.ar  124  HIS124     -0.2212
     90  N        -20.5910   -8.4430   23.4160 N.3   159  LYS159     -0.1231
     91  CA       -20.9150   -7.3680   24.3500 C.3   159  LYS159      0.1693
     92  C        -21.8790   -7.9040   25.4050 C.2   159  LYS159      0.2592
     93  O        -22.8060   -8.6430   25.0810 O.2   159  LYS159     -0.2718
     94  CB       -21.4560   -6.1020   23.6810 C.3   159  LYS159      0.0285
     95  CG       -20.9110   -5.7910   22.2940 C.3   159  LYS159      0.0035
     96  CD       -21.6520   -4.5880   21.6820 C.3   159  LYS159      0.0206
     97  CE       -21.2920   -4.3650   20.2050 C.3   159  LYS159      0.1093
     98  NZ       -19.8620   -3.9640   19.9870 N.3   159  LYS159     -0.1314
     99  N        -21.6570   -7.5460   26.6620 N.am  160  VAL160     -0.1966
    100  CA       -22.5530   -7.9780   27.7210 C.3   160  VAL160      0.1727
    101  C        -23.8350   -7.1350   27.6030 C.2   160  VAL160      0.2617
    102  O        -23.7960   -5.9160   27.7710 O.2   160  VAL160     -0.2715
    103  CB       -21.9220   -7.7500   29.1180 C.3   160  VAL160      0.0290
    104  CG1      -23.0140   -7.7340   30.1860 C.3   160  VAL160      0.0023
    105  CG2      -20.9050   -8.8650   29.4320 C.3   160  VAL160      0.0023
    106  N        -24.9580   -7.7850   27.3150 N.am  161  SER161     -0.1936
    107  CA       -26.2420   -7.0910   27.1790 C.3   161  SER161      0.2055
    108  C        -27.3800   -7.6670   28.0220 C.2   161  SER161      0.2643
    109  O        -27.7200   -8.8430   27.9030 O.2   161  SER161     -0.2714
    110  CB       -26.6150   -6.7880   25.7160 C.3   161  SER161      0.2130
    111  OG       -27.9940   -6.4650   25.5500 O.3   161  SER161     -0.2179
    112  N        -27.9540   -6.8510   28.8950 N.am  162  VAL162     -0.1963
    113  CA       -29.0590   -7.3150   29.7210 C.3   162  VAL162      0.1727
    114  C        -30.2610   -7.6210   28.8040 C.2   162  VAL162      0.2616
    115  O        -30.9020   -8.6520   28.9350 O.2   162  VAL162     -0.2715
    116  CB       -29.4740   -6.2560   30.7410 C.3   162  VAL162      0.0290
    117  CG1      -30.8020   -6.6460   31.3590 C.3   162  VAL162      0.0023
    118  CG2      -28.3870   -6.1130   31.8320 C.3   162  VAL162      0.0023
    119  N        -30.5340   -6.7120   27.8720 N.am  163  GLY163     -0.1955
    120  CA       -31.6370   -6.8900   26.9480 C.3   163  GLY163      0.1869
    121  C        -31.5550   -8.1850   26.1520 C.2   163  GLY163      0.2309
    122  O        -32.5000   -8.9970   26.1570 O.2   163  GLY163     -0.2863
    123  N        -20.5160    4.4890   31.5390 N.3   327  PHE327     -0.1241
    124  CA       -21.0500    5.4950   30.6350 C.3   327  PHE327      0.1605
    125  C        -20.1420    6.6940   30.4590 C.2   327  PHE327      0.2264
    126  O        -19.4510    7.1030   31.3930 O.2   327  PHE327     -0.2867
    127  CB       -22.4640    5.9520   30.9930 C.3   327  PHE327      0.0534
    128  CG       -23.4990    4.8750   30.9320 C.ar  327  PHE327     -0.0203
    129  CD1      -23.8800    4.1950   32.0870 C.ar  327  PHE327     -0.0042
    130  CD2      -24.1550    4.5910   29.7310 C.ar  327  PHE327     -0.0042
    131  CE1      -24.9040    3.2590   32.0580 C.ar  327  PHE327     -0.0003
    132  CE2      -25.1870    3.6510   29.6830 C.ar  327  PHE327     -0.0003
    133  CZ       -25.5660    2.9840   30.8520 C.ar  327  PHE327     -0.0000
@<TRIPOS>BOND
     1    49    47    1
     2    47    48    1
     3    47    46    2
     4    46    45    1
     5    45    44    1
     6    44    43    1
     7    39    40    1
     8    43    40    1
     9    40    41    1
    10    68    65    1
    11    68    69    1
    12    41    42    2
    13    41    50   am
    14    65    64    1
    15    65    66    1
    16    71    69   ar
    17    56    50    1
    18    56    55    1
    19    67    66    2
    20    69    70   ar
    21    63    61    1
    22    50    51    1
    23    64    59   am
    24    66    72   am
    25    60    59    2
    26    59    58    1
    27    55    54    1
    28    57    58    1
    29    57    52   am
    30    61    58    1
    31    61    62    1
    32    82    83    2
    33    82    81    1
    34    51    52    1
    35    51    54    1
    36    72    73    1
    37    24    22    1
    38    52    53    2
    39    73    74    1
    40    73    76    1
    41    74    75    2
    42    74    80   am
    43    80    81    1
    44    98    97    1
    45    79    77    1
    46    81    84    1
    47    97    96    1
    48    84    85    1
    49    22    21    1
    50    77    76    1
    51    77    78    1
    52    21    18    1
    53    21    23    1
    54    85    87   ar
    55    85    86   ar
    56    96    95    1
    57    18    19    1
    58    18    17    1
    59    20    19    2
    60    87    89   ar
    61    11     9    1
    62    95    94    1
    63    19    25   am
    64     8     9    2
    65     8     7    1
    66     9    10    1
    67    86    88   ar
    68     6     7    1
    69     6     5    1
    70    89    88   ar
    71    90    91    1
    72     4     3    2
    73    94    91    1
    74    25    26    1
    75     5     2    1
    76     2     3    1
    77     2     1    1
    78    27    26    1
    79    27    28    2
    80     3    12   am
    81    91    92    1
    82    26    29    1
    83    93    92    2
    84    14    15    2
    85    14    13    1
    86    92    99   am
    87   111   110    1
    88    12    13    1
    89   110   107    1
    90    29    30    1
    91    31    30   ar
    92    31    33   ar
    93    13    16    1
    94   121   122    2
    95   121   120    1
    96    30    32   ar
    97    99   100    1
    98    33    34   ar
    99   120   119    1
   100   107   106    1
   101   107   108    1
   102   106   101   am
   103   101   100    1
   104   101   102    2
   105    32    34   ar
   106    32    35   ar
   107   100   103    1
   108    34    36   ar
   109   119   114   am
   110   109   108    2
   111   108   112   am
   112    35    37   ar
   113   114   115    2
   114   114   113    1
   115    36    38   ar
   116   112   113    1
   117   103   105    1
   118   103   104    1
   119    37    38   ar
   120   132   130   ar
   121   132   133   ar
   122   113   116    1
   123   130   128   ar
   124   125   124    1
   125   125   126    2
   126   124   127    1
   127   124   123    1
   128   116   117    1
   129   116   118    1
   130   133   131   ar
   131   128   127    1
   132   128   129   ar
   133   131   129   ar
