@<TRIPOS>MOLECULE
tmp/4e7cB00.pdb
 133 133 0 0 0
SMALL
GASTEIGER

@<TRIPOS>ATOM
      1  N         42.8730   23.2430   36.4270 N.3    90  ARG90      -0.1231
      2  CA        43.5210   21.9910   36.0500 C.3    90  ARG90       0.1694
      3  C         44.8760   22.1630   35.3850 C.2    90  ARG90       0.2591
      4  O         45.8120   21.4070   35.6640 O.2    90  ARG90      -0.2718
      5  CB        42.6090   20.9970   35.3280 C.3    90  ARG90       0.0321
      6  CG        41.6210   20.2910   36.2310 C.3    90  ARG90       0.0489
      7  CD        40.9780   19.1010   35.5290 C.3    90  ARG90       0.2205
      8  NE        41.9660   18.1220   35.0690 N.pl3  90  ARG90      -0.0865
      9  CZ        42.8200   17.4760   35.8640 C.cat  90  ARG90       0.5346
     10  NH1       42.8250   17.6970   37.1770 N.pl3  90  ARG90       0.1354
     11  NH2       43.6670   16.5950   35.3460 N.pl3  90  ARG90       0.1354
     12  N         44.9680   23.1580   34.5010 N.am   91  ALA91      -0.1980
     13  CA        46.1980   23.4420   33.7740 C.3    91  ALA91       0.1597
     14  C         47.3900   23.5210   34.7210 C.2    91  ALA91       0.2287
     15  O         48.5160   23.2340   34.3260 O.2    91  ALA91      -0.2864
     16  CB        46.0550   24.7430   33.0010 C.3    91  ALA91       0.0319
     17  N         48.6880   21.6660   36.7030 N.3    93  ILE93      -0.1231
     18  CA        49.5440   20.4840   36.6650 C.3    93  ILE93       0.1692
     19  C         50.6960   20.6730   35.6890 C.2    93  ILE93       0.2592
     20  O         51.7500   20.0680   35.8540 O.2    93  ILE93      -0.2718
     21  CB        48.7410   19.2140   36.2800 C.3    93  ILE93       0.0266
     22  CG1       49.6390   17.9760   36.4140 C.3    93  ILE93       0.0019
     23  CG2       48.2290   19.3120   34.8410 C.3    93  ILE93       0.0020
     24  CD1       50.0410   17.6690   37.8540 C.3    93  ILE93       0.0001
     25  N         50.4940   21.5130   34.6700 N.am   94  TRP94      -0.1976
     26  CA        51.5400   21.7940   33.6720 C.3    94  TRP94       0.1640
     27  C         52.8540   22.3920   34.1670 C.2    94  TRP94       0.2290
     28  O         53.8350   22.4800   33.4040 O.2    94  TRP94      -0.2864
     29  CB        51.0390   22.4510   32.3830 C.3    94  TRP94       0.0576
     30  CG        50.2040   21.5780   31.5070 C.ar   94  TRP94       0.0006
     31  CD1       50.3770   20.2390   31.2680 C.ar   94  TRP94       0.0946
     32  CD2       49.0960   21.9920   30.6970 C.ar   94  TRP94       0.0152
     33  NE1       49.4390   19.7940   30.3530 N.ar   94  TRP94      -0.2442
     34  CE2       48.6480   20.8530   29.9800 C.ar   94  TRP94       0.0810
     35  CE3       48.4500   23.2190   30.4870 C.ar   94  TRP94       0.0012
     36  CZ2       47.5740   20.9020   29.0930 C.ar   94  TRP94       0.0191
     37  CZ3       47.3740   23.2690   29.5990 C.ar   94  TRP94       0.0001
     38  CH2       46.9540   22.1170   28.9090 C.ar   94  TRP94       0.0015
     39  N         39.7960   14.7980   39.9900 N.3   119  ARG119     -0.1231
     40  CA        40.3420   14.6170   38.6480 C.3   119  ARG119      0.1679
     41  C         41.6780   13.8640   38.5970 C.2   119  ARG119      0.2434
     42  O         42.6120   14.1830   39.3330 O.2   119  ARG119     -0.2733
     43  CB        40.2590   15.8640   37.7720 C.3   119  ARG119      0.0321
     44  CG        38.8680   16.4870   37.7480 C.3   119  ARG119      0.0489
     45  CD        37.8530   15.5660   37.0790 C.3   119  ARG119      0.2205
     46  NE        36.5180   15.6780   37.6720 N.pl3 119  ARG119     -0.0865
     47  CZ        35.8240   16.8120   37.7750 C.cat 119  ARG119      0.5346
     48  NH1       36.3300   17.9580   37.3290 N.pl3 119  ARG119      0.1354
     49  NH2       34.6130   16.8020   38.3240 N.pl3 119  ARG119      0.1354
     50  N         41.7760   12.8480   37.7250 N.am  120  PRO120     -0.2718
     51  CA        42.9820   12.0270   37.5650 C.3   120  PRO120      0.1535
     52  C         44.1740   12.7430   36.9400 C.2   120  PRO120      0.2598
     53  O         44.0380   13.4950   35.9790 O.2   120  PRO120     -0.2715
     54  CB        42.4890   10.8730   36.7050 C.3   120  PRO120      0.0310
     55  CG        41.5060   11.5600   35.8010 C.3   120  PRO120      0.0237
     56  CD        40.7340   12.4400   36.7620 C.3   120  PRO120      0.0939
     57  N         45.3460   12.4980   37.5100 N.am  121  VAL121     -0.1964
     58  CA        46.5850   13.0790   37.0280 C.3   121  VAL121      0.1727
     59  C         47.6090   11.9610   36.9230 C.2   121  VAL121      0.2616
     60  O         48.8100   12.2020   36.8090 O.2   121  VAL121     -0.2715
     61  CB        47.0960   14.1730   37.9810 C.3   121  VAL121      0.0290
     62  CG1       46.2110   15.3990   37.8630 C.3   121  VAL121      0.0023
     63  CG2       47.0970   13.6580   39.4190 C.3   121  VAL121      0.0023
     64  N         47.1040   10.7310   36.9680 N.am  122  ASP122     -0.1957
     65  CA        47.9150    9.5200   36.8650 C.3   122  ASP122      0.1840
     66  C         48.8290    9.5150   35.6500 C.2   122  ASP122      0.2622
     67  O         50.0040    9.1290   35.7420 O.2   122  ASP122     -0.2715
     68  CB        47.0830    8.2450   36.9540 C.3   122  ASP122      0.1450
     69  CG        46.0800    8.1260   35.8140 C.2   122  ASP122      0.3671
     70  OD1       45.2640    9.0600   35.6400 O.co2 122  ASP122     -0.2456
     71  OD2       46.1060    7.1060   35.0870 O.co2 122  ASP122     -0.2456
     72  N         48.2750    9.9150   34.5060 N.am  123  LEU123     -0.1963
     73  CA        49.0410    9.9620   33.2650 C.3   123  LEU123      0.1728
     74  C         50.2530   10.8610   33.4040 C.2   123  LEU123      0.2616
     75  O         51.3620   10.4920   33.0210 O.2   123  LEU123     -0.2715
     76  CB        48.1910   10.2460   32.0380 C.3   123  LEU123      0.0311
     77  CG        47.1060    9.2040   31.7640 C.3   123  LEU123      0.0022
     78  CD1       46.2040    9.6900   30.6530 C.3   123  LEU123      0.0001
     79  CD2       47.7640    7.8800   31.3850 C.3   123  LEU123      0.0001
     80  N         50.0170   12.0530   33.9470 N.am  124  HIS124     -0.1973
     81  CA        51.0860   13.0210   34.1880 C.3   124  HIS124      0.1656
     82  C         52.1670   12.3860   35.0650 C.2   124  HIS124      0.2291
     83  O         53.3450   12.3580   34.7110 O.2   124  HIS124     -0.2864
     84  CB        50.5680   14.3300   34.7760 C.3   124  HIS124      0.0771
     85  CG        49.5130   14.9940   33.9480 C.ar  124  HIS124      0.0820
     86  ND1       49.8050   15.9420   32.9890 N.ar  124  HIS124     -0.2267
     87  CD2       48.1680   14.8550   33.9380 C.ar  124  HIS124      0.1154
     88  CE1       48.6860   16.3590   32.4280 C.ar  124  HIS124      0.1986
     89  NE2       47.6760   15.7120   32.9870 N.ar  124  HIS124     -0.2212
     90  N         45.7710    5.5170   27.1480 N.3   159  LYS159     -0.1231
     91  CA        44.6800    6.4680   27.1090 C.3   159  LYS159      0.1693
     92  C         45.1940    7.7490   26.4570 C.2   159  LYS159      0.2592
     93  O         46.2460    8.2700   26.8520 O.2   159  LYS159     -0.2718
     94  CB        44.0660    6.6920   28.4820 C.3   159  LYS159      0.0285
     95  CG        42.8340    7.5620   28.4940 C.3   159  LYS159      0.0035
     96  CD        42.3320    7.7570   29.9190 C.3   159  LYS159      0.0206
     97  CE        42.1930    6.4190   30.6420 C.3   159  LYS159      0.1093
     98  NZ        41.7820    6.5790   32.0650 N.3   159  LYS159     -0.1314
     99  N         44.4810    8.2410   25.4480 N.am  160  VAL160     -0.1966
    100  CA        44.9090    9.4570   24.7840 C.3   160  VAL160      0.1727
    101  C         44.5270   10.6450   25.6640 C.2   160  VAL160      0.2617
    102  O         43.3750   10.7810   26.0990 O.2   160  VAL160     -0.2715
    103  CB        44.2670    9.6020   23.3970 C.3   160  VAL160      0.0290
    104  CG1       44.8750   10.7900   22.6590 C.3   160  VAL160      0.0023
    105  CG2       44.4930    8.3300   22.6030 C.3   160  VAL160      0.0023
    106  N         45.5140   11.4860   25.9480 N.am  161  SER161     -0.1936
    107  CA        45.3000   12.6530   26.7920 C.3   161  SER161      0.2055
    108  C         46.0680   13.8790   26.3390 C.2   161  SER161      0.2643
    109  O         47.2880   13.8290   26.1820 O.2   161  SER161     -0.2714
    110  CB        45.4330   12.3590   28.2930 C.3   161  SER161      0.2130
    111  OG        45.6230   13.5480   29.0670 O.3   161  SER161     -0.2179
    112  N         45.3490   14.9780   26.1320 N.am  162  VAL162     -0.1963
    113  CA        45.9870   16.2140   25.7210 C.3   162  VAL162      0.1727
    114  C         46.8720   16.7210   26.8660 C.2   162  VAL162      0.2616
    115  O         48.0110   17.1440   26.6500 O.2   162  VAL162     -0.2715
    116  CB        44.9380   17.2750   25.3790 C.3   162  VAL162      0.0290
    117  CG1       45.6080   18.6490   25.2030 C.3   162  VAL162      0.0023
    118  CG2       44.1900   16.8490   24.1150 C.3   162  VAL162      0.0023
    119  N         46.3420   16.6540   28.0830 N.am  163  GLY163     -0.1955
    120  CA        47.0850   17.1150   29.2470 C.3   163  GLY163      0.1869
    121  C         48.3930   16.3800   29.4850 C.2   163  GLY163      0.2309
    122  O         49.3940   17.0020   29.8260 O.2   163  GLY163     -0.2863
    123  N         31.5460   11.2530   23.3580 N.3   327  PHE327     -0.1241
    124  CA        30.9500   11.8060   24.5720 C.3   327  PHE327      0.1605
    125  C         29.4530   11.6290   24.7820 C.2   327  PHE327      0.2264
    126  O         28.6630   11.7210   23.8380 O.2   327  PHE327     -0.2867
    127  CB        31.4640   13.1950   24.9310 C.3   327  PHE327      0.0534
    128  CG        32.9400   13.3410   24.7670 C.ar  327  PHE327     -0.0203
    129  CD1       33.4840   13.6470   23.5190 C.ar  327  PHE327     -0.0042
    130  CD2       33.7930   13.1300   25.8410 C.ar  327  PHE327     -0.0042
    131  CE1       34.8610   13.7330   23.3430 C.ar  327  PHE327     -0.0003
    132  CE2       35.1780   13.2120   25.6790 C.ar  327  PHE327     -0.0003
    133  CZ        35.7120   13.5170   24.4240 C.ar  327  PHE327     -0.0000
@<TRIPOS>BOND
     1   105   103    1
     2   104   103    1
     3   131   129   ar
     4   131   133   ar
     5   123   124    1
     6   103   100    1
     7   129   128   ar
     8   126   125    2
     9   118   116    1
    10   133   132   ar
    11   124   125    1
    12   124   127    1
    13   128   127    1
    14   128   130   ar
    15   100    99    1
    16   100   101    1
    17   117   116    1
    18   116   113    1
    19    99    92   am
    20   101   106   am
    21   101   102    2
    22   132   130   ar
    23   113   112    1
    24   113   114    1
    25   106   107    1
    26   112   108   am
    27   109   108    2
    28   108   107    1
    29    92    93    2
    30    92    91    1
    31   115   114    2
    32   107   110    1
    33   114   119   am
    34    91    90    1
    35    91    94    1
    36   119   120    1
    37   110   111    1
    38    94    95    1
    39    95    96    1
    40    38    36   ar
    41    38    37   ar
    42    36    34   ar
    43   120   121    1
    44   121   122    2
    45    37    35   ar
    46    96    97    1
    47    34    33   ar
    48    34    32   ar
    49    33    31   ar
    50    35    32   ar
    51    97    98    1
    52    78    77    1
    53    32    30   ar
    54    31    30   ar
    55    79    77    1
    56    30    29    1
    57    77    76    1
    58    76    73    1
    59    29    26    1
    60    88    89   ar
    61    88    86   ar
    62    89    87   ar
    63    86    85   ar
    64    16    13    1
    65    75    74    2
    66    73    74    1
    67    73    72    1
    68    28    27    2
    69    74    80   am
    70    26    27    1
    71    26    25    1
    72    13    12    1
    73    13    14    1
    74    87    85   ar
    75    80    81    1
    76    85    84    1
    77    81    84    1
    78    81    82    1
    79    15    14    2
    80    12     3   am
    81    72    66   am
    82    25    19   am
    83    83    82    2
    84    23    21    1
    85     8     7    1
    86     8     9    2
    87    71    69   ar
    88     5     2    1
    89     5     6    1
    90    11     9    1
    91     3     4    2
    92     3     2    1
    93     7     6    1
    94    70    69   ar
    95    66    67    2
    96    66    65    1
    97    19    20    2
    98    19    18    1
    99    55    54    1
   100    55    56    1
   101    69    68    1
   102     9    10    1
   103    53    52    2
   104     2     1    1
   105    21    22    1
   106    21    18    1
   107    22    24    1
   108    18    17    1
   109    54    51    1
   110    56    50    1
   111    60    59    2
   112    65    68    1
   113    65    64    1
   114    59    64   am
   115    59    58    1
   116    52    57   am
   117    52    51    1
   118    58    57    1
   119    58    61    1
   120    45    46    1
   121    45    44    1
   122    48    47    1
   123    51    50    1
   124    46    47    2
   125    50    41   am
   126    44    43    1
   127    43    40    1
   128    47    49    1
   129    62    61    1
   130    61    63    1
   131    41    40    1
   132    41    42    2
   133    40    39    1
