@<TRIPOS>MOLECULE
tmp/4e7iA00.pdb
 81 80 0 0 0
SMALL
GASTEIGER

@<TRIPOS>ATOM
      1  N        -35.4520   32.2200  -10.2120 N.3   121  ASP121     -0.1225
      2  CA       -35.0720   31.9430  -11.5720 C.3   121  ASP121      0.1805
      3  C        -33.5680   31.8340  -11.7210 C.2   121  ASP121      0.2597
      4  O        -32.8200   32.2730  -10.8420 O.2   121  ASP121     -0.2718
      5  CB       -35.5820   33.0470  -12.4780 C.3   121  ASP121      0.1424
      6  CG       -35.4800   32.6670  -13.9050 C.2   121  ASP121      0.3668
      7  OD1      -35.5610   31.4590  -14.1930 O.co2 121  ASP121     -0.2456
      8  OD2      -35.2840   33.5570  -14.7210 O.co2 121  ASP121     -0.2456
      9  N        -33.1170   31.2300  -12.8180 N.am  122  TYR122     -0.1976
     10  CA       -31.6830   31.2030  -13.0990 C.3   122  TYR122      0.1639
     11  C        -31.3340   32.1450  -14.2330 C.2   122  TYR122      0.2290
     12  O        -32.1300   32.3590  -15.1410 O.2   122  TYR122     -0.2864
     13  CB       -31.1860   29.7880  -13.4000 C.3   122  TYR122      0.0560
     14  CG       -30.8100   29.0270  -12.1510 C.ar  122  TYR122     -0.0198
     15  CD1      -31.6650   28.0720  -11.5960 C.ar  122  TYR122     -0.0009
     16  CD2      -29.6020   29.2710  -11.5110 C.ar  122  TYR122     -0.0009
     17  CE1      -31.3090   27.3600  -10.4250 C.ar  122  TYR122      0.0417
     18  CE2      -29.2470   28.5840  -10.3510 C.ar  122  TYR122      0.0417
     19  CZ       -30.1060   27.6370   -9.8110 C.ar  122  TYR122      0.1957
     20  OH       -29.7370   26.9870   -8.6580 O.3   122  TYR122     -0.2866
     21  N        -28.1810   32.4080  -16.9890 N.3   124  GLY124     -0.1210
     22  CA       -26.9890   31.7760  -17.5220 C.3   124  GLY124      0.1940
     23  C        -27.3080   30.8050  -18.6400 C.2   124  GLY124      0.2453
     24  O        -28.4610   30.5670  -18.9580 O.2   124  GLY124     -0.2732
     25  N        -26.2850   30.1730  -19.2000 N.am  125  PRO125     -0.2728
     26  CA       -24.8990   30.2530  -18.7130 C.3   125  PRO125      0.1401
     27  C        -24.1900   31.5700  -19.0570 C.2   125  PRO125      0.2269
     28  O        -24.3630   32.1560  -20.1320 O.2   125  PRO125     -0.2865
     29  CB       -24.2160   29.0670  -19.4000 C.3   125  PRO125      0.0296
     30  CG       -25.0330   28.8750  -20.7120 C.3   125  PRO125      0.0237
     31  CD       -26.4580   29.1910  -20.2900 C.3   125  PRO125      0.0939
     32  N        -23.7120   30.1620  -13.4810 N.3   134  TYR134     -0.1241
     33  CA       -25.1020   30.5950  -13.3850 C.3   134  TYR134      0.1605
     34  C        -25.3370   31.4530  -12.1490 C.2   134  TYR134      0.2264
     35  O        -24.5700   31.3960  -11.1910 O.2   134  TYR134     -0.2867
     36  CB       -26.0560   29.3990  -13.3660 C.3   134  TYR134      0.0534
     37  CG       -26.1340   28.5670  -14.6420 C.ar  134  TYR134     -0.0201
     38  CD1      -27.1850   28.7390  -15.5580 C.ar  134  TYR134     -0.0009
     39  CD2      -25.1950   27.5680  -14.9040 C.ar  134  TYR134     -0.0009
     40  CE1      -27.2710   27.9570  -16.7110 C.ar  134  TYR134      0.0417
     41  CE2      -25.2630   26.7890  -16.0650 C.ar  134  TYR134      0.0417
     42  CZ       -26.2970   26.9810  -16.9530 C.ar  134  TYR134      0.1957
     43  OH       -26.3430   26.2030  -18.0860 O.3   134  TYR134     -0.2866
     44  N        -27.7190   25.0350  -12.9680 N.3   154  PRO154     -0.2116
     45  CA       -29.0540   25.4150  -12.5030 C.3   154  PRO154      0.1372
     46  C        -29.7590   24.1770  -11.9340 C.2   154  PRO154      0.2244
     47  O        -30.8100   23.7610  -12.4310 O.2   154  PRO154     -0.2868
     48  CB       -29.7420   25.8840  -13.7950 C.3   154  PRO154      0.0268
     49  CG       -29.1110   25.0010  -14.8860 C.3   154  PRO154      0.0207
     50  CD       -27.6930   24.7240  -14.4140 C.3   154  PRO154      0.0892
     51  N        -40.6540   29.0760  -12.6730 N.3   178  ASP178     -0.1225
     52  CA       -41.0210   28.4650  -13.9460 C.3   178  ASP178      0.1805
     53  C        -40.7730   26.9660  -13.8820 C.2   178  ASP178      0.2598
     54  O        -40.5240   26.4210  -12.7960 O.2   178  ASP178     -0.2718
     55  CB       -40.2660   29.0900  -15.1340 C.3   178  ASP178      0.1424
     56  CG       -38.7320   28.9460  -15.0430 C.2   178  ASP178      0.3668
     57  OD1      -38.0470   29.8110  -15.6480 O.co2 178  ASP178     -0.2456
     58  OD2      -38.2090   27.9960  -14.3980 O.co2 178  ASP178     -0.2456
     59  N        -40.7920   26.3160  -15.0460 N.am  179  GLN179     -0.1965
     60  CA       -40.7810   24.8620  -15.0900 C.3   179  GLN179      0.1733
     61  C        -39.4270   24.2860  -15.3690 C.2   179  GLN179      0.2617
     62  O        -39.3120   23.2080  -15.9390 O.2   179  GLN179     -0.2715
     63  CB       -41.8500   24.3450  -16.0470 C.3   179  GLN179      0.0408
     64  CG       -43.2000   24.9460  -15.6570 C.3   179  GLN179      0.0908
     65  CD       -44.3860   24.1000  -16.0430 C.2   179  GLN179      0.2608
     66  OE1      -44.2470   22.9590  -16.4930 O.2   179  GLN179     -0.2717
     67  NE2      -45.5750   24.6580  -15.8670 N.am  179  GLN179     -0.0878
     68  N        -38.3980   25.0090  -14.9400 N.am  180  GLY180     -0.1940
     69  CA       -37.0380   24.5110  -15.0310 C.3   180  GLY180      0.2014
     70  C        -36.8470   23.2690  -14.1770 C.2   180  GLY180      0.2639
     71  O        -37.4440   23.1570  -13.0980 O.2   180  GLY180     -0.2714
     72  N        -36.0200   22.3400  -14.6520 N.am  181  ALA181     -0.1963
     73  CA       -35.8160   21.0630  -13.9670 C.3   181  ALA181      0.1728
     74  C        -35.5270   21.2390  -12.4810 C.2   181  ALA181      0.2616
     75  O        -35.9480   20.4300  -11.6640 O.2   181  ALA181     -0.2715
     76  CB       -34.6850   20.2610  -14.6340 C.3   181  ALA181      0.0334
     77  N        -34.8120   22.3030  -12.1410 N.am  182  ALA182     -0.1977
     78  CA       -34.3740   22.5250  -10.7700 C.3   182  ALA182      0.1597
     79  C        -35.5170   22.8090   -9.8090 C.2   182  ALA182      0.2287
     80  O        -35.3920   22.5300   -8.6190 O.2   182  ALA182     -0.2864
     81  CB       -33.3700   23.6370  -10.7130 C.3   182  ALA182      0.0319
@<TRIPOS>BOND
     1    30    31    1
     2    30    29    1
     3    31    25    1
     4    28    27    2
     5    29    26    1
     6    25    26    1
     7    25    23   am
     8    27    26    1
     9    24    23    2
    10    23    22    1
    11    43    42    1
    12    22    21    1
    13    42    40   ar
    14    42    41   ar
    15    40    38   ar
    16    66    65    2
    17    41    39   ar
    18    63    64    1
    19    63    60    1
    20    65    67   am
    21    65    64    1
    22    62    61    2
    23    57    56   ar
    24    38    37   ar
    25    61    60    1
    26    61    68   am
    27    12    11    2
    28    55    56    1
    29    55    52    1
    30    60    59    1
    31    59    53   am
    32    56    58   ar
    33    69    68    1
    34    69    70    1
    35    39    37   ar
    36    49    50    1
    37    49    48    1
    38     8     6   ar
    39    72    70   am
    40    72    73    1
    41    37    36    1
    42    76    73    1
    43    50    44    1
    44    11    10    1
    45     7     6   ar
    46    70    71    2
    47    73    74    1
    48    52    53    1
    49    52    51    1
    50     6     5    1
    51    53    54    2
    52    48    45    1
    53    32    33    1
    54    13    10    1
    55    13    14    1
    56    33    36    1
    57    33    34    1
    58    10     9    1
    59    44    45    1
    60     9     3   am
    61    45    46    1
    62    74    77   am
    63    74    75    2
    64     5     2    1
    65    47    46    2
    66    14    15   ar
    67    14    16   ar
    68    34    35    2
    69    77    78    1
    70     3     2    1
    71     3     4    2
    72    15    17   ar
    73     2     1    1
    74    16    18   ar
    75    78    81    1
    76    78    79    1
    77    17    19   ar
    78    18    19   ar
    79    19    20    1
    80    79    80    2
