@<TRIPOS>MOLECULE
tmp/4e7rD02.pdb
 212 210 0 0 0
SMALL
GASTEIGER

@<TRIPOS>ATOM
      1  N         -6.4910  -14.6900  -11.3010 N.3    28  CYS28      -0.1235
      2  CA        -6.7880  -14.2650  -12.6580 C.3    28  CYS28       0.1677
      3  C         -7.1380  -12.8040  -12.6620 C.2    28  CYS28       0.2270
      4  O         -7.3490  -12.2040  -11.6060 O.2    28  CYS28      -0.2867
      5  CB        -7.9740  -15.0580  -13.2190 C.3    28  CYS28       0.0956
      6  SG        -7.5210  -16.5680  -14.1100 S.3    28  CYS28      -0.0801
      7  N        -12.0730  -20.4720  -17.7590 N.3    43  HIS43      -0.1226
      8  CA       -10.9980  -21.3670  -17.3430 C.3    43  HIS43       0.1752
      9  C        -10.3310  -20.9040  -16.0420 C.2    43  HIS43       0.2596
     10  O         -9.6400  -21.6780  -15.3900 O.2    43  HIS43      -0.2718
     11  CB        -9.9730  -21.5810  -18.4680 C.3    43  HIS43       0.0759
     12  CG        -8.9170  -20.5260  -18.5420 C.ar   43  HIS43       0.0818
     13  ND1       -8.9070  -19.5540  -19.5180 N.ar   43  HIS43      -0.2268
     14  CD2       -7.8350  -20.2890  -17.7620 C.ar   43  HIS43       0.1154
     15  CE1       -7.8690  -18.7610  -19.3330 C.ar   43  HIS43       0.1986
     16  NE2       -7.2000  -19.1860  -18.2760 N.ar   43  HIS43      -0.2212
     17  N        -10.5530  -19.6530  -15.6550 N.am   44  CYS44      -0.1970
     18  CA       -10.0450  -19.1740  -14.3700 C.3    44  CYS44       0.1712
     19  C        -10.7790  -19.8600  -13.2310 C.2    44  CYS44       0.2296
     20  O        -10.2660  -19.9550  -12.1300 O.2    44  CYS44      -0.2864
     21  CB       -10.2310  -17.6590  -14.2420 C.3    44  CYS44       0.0983
     22  SG        -9.1680  -16.6810  -15.2990 S.3    44  CYS44      -0.0798
     23  N        -11.4290  -25.7020  -14.6400 N.3    47  TYR47      -0.1241
     24  CA       -10.5110  -26.3890  -15.5270 C.3    47  TYR47       0.1605
     25  C        -10.1950  -27.7830  -14.9880 C.2    47  TYR47       0.2264
     26  O         -9.1790  -27.9980  -14.3300 O.2    47  TYR47      -0.2867
     27  CB        -9.2370  -25.5730  -15.7580 C.3    47  TYR47       0.0534
     28  CG        -8.4940  -26.0330  -16.9820 C.ar   47  TYR47      -0.0201
     29  CD1       -9.0910  -25.9630  -18.2420 C.ar   47  TYR47      -0.0009
     30  CD2       -7.2090  -26.5580  -16.8880 C.ar   47  TYR47      -0.0009
     31  CE1       -8.4200  -26.3950  -19.3800 C.ar   47  TYR47       0.0417
     32  CE2       -6.5270  -26.9990  -18.0340 C.ar   47  TYR47       0.0417
     33  CZ        -7.1460  -26.9110  -19.2760 C.ar   47  TYR47       0.1957
     34  OH        -6.5100  -27.3420  -20.4200 O.3    47  TYR47      -0.2866
     35  N         -6.7720  -29.9360  -14.6470 N.3    50  TRP50      -0.1241
     36  CA        -5.8290  -29.5950  -13.5720 C.3    50  TRP50       0.1605
     37  C         -6.5280  -29.5270  -12.2290 C.2    50  TRP50       0.2264
     38  O         -6.0540  -28.8530  -11.3060 O.2    50  TRP50      -0.2867
     39  CB        -5.1660  -28.2410  -13.8350 C.3    50  TRP50       0.0550
     40  CG        -4.2510  -28.2250  -15.0270 C.ar   50  TRP50       0.0003
     41  CD1       -4.0520  -29.2340  -15.9340 C.ar   50  TRP50       0.0946
     42  CD2       -3.4070  -27.1450  -15.4400 C.ar   50  TRP50       0.0152
     43  NE1       -3.1430  -28.8390  -16.8900 N.ar   50  TRP50      -0.2442
     44  CE2       -2.7300  -27.5630  -16.6050 C.ar   50  TRP50       0.0810
     45  CE3       -3.1530  -25.8650  -14.9340 C.ar   50  TRP50       0.0012
     46  CZ2       -1.8190  -26.7470  -17.2690 C.ar   50  TRP50       0.0191
     47  CZ3       -2.2470  -25.0580  -15.5960 C.ar   50  TRP50       0.0001
     48  CH2       -1.5910  -25.5000  -16.7490 C.ar   50  TRP50       0.0015
     49  N         -9.1280  -27.8760  -11.3020 N.3    52  LYS52      -0.1245
     50  CA        -9.5600  -26.5440  -10.9240 C.3    52  LYS52       0.1561
     51  C        -11.0710  -26.4620  -11.0380 C.2    52  LYS52       0.2260
     52  O        -11.6120  -26.5810  -12.1340 O.2    52  LYS52      -0.2867
     53  CB        -8.8970  -25.4970  -11.8270 C.3    52  LYS52       0.0271
     54  CG        -7.3720  -25.5060  -11.7440 C.3    52  LYS52       0.0035
     55  CD        -6.9100  -25.3190  -10.2990 C.3    52  LYS52       0.0206
     56  CE        -5.3960  -25.3640  -10.1630 C.3    52  LYS52       0.1093
     57  NZ        -4.9720  -25.0580   -8.7620 N.3    52  LYS52      -0.1314
     58  N        -11.4740  -29.2710  -25.2220 N.3    94  GLU94      -0.1231
     59  CA       -10.6910  -29.1590  -26.4490 C.3    94  GLU94       0.1699
     60  C         -9.8780  -27.8710  -26.5570 C.2    94  GLU94       0.2592
     61  O         -8.6620  -27.8720  -26.4000 O.2    94  GLU94      -0.2718
     62  CB       -11.6050  -29.3010  -27.6730 C.3    94  GLU94       0.0402
     63  CG       -12.3880  -30.6010  -27.7030 C.3    94  GLU94       0.1161
     64  CD       -13.7090  -30.4700  -28.4270 C.2    94  GLU94       0.3649
     65  OE1      -13.8220  -29.5950  -29.3100 O.co2  94  GLU94      -0.2457
     66  OE2      -14.6400  -31.2380  -28.1010 O.co2  94  GLU94      -0.2457
     67  N        -10.5620  -26.7710  -26.8400 N.am   95  ASN95      -0.1960
     68  CA        -9.8630  -25.5590  -27.2310 C.3    95  ASN95       0.1819
     69  C        -10.2580  -24.2840  -26.4980 C.2    95  ASN95       0.2621
     70  O        -10.0160  -23.1980  -27.0030 O.2    95  ASN95      -0.2715
     71  CB       -10.0500  -25.3560  -28.7350 C.3    95  ASN95       0.1195
     72  CG       -11.5190  -25.3580  -29.1390 C.2    95  ASN95       0.2630
     73  OD1      -12.4100  -25.4600  -28.2880 O.2    95  ASN95      -0.2716
     74  ND2      -11.7790  -25.2500  -30.4390 N.am   95  ASN95      -0.0877
     75  N        -10.8660  -24.4090  -25.3230 N.am   96  LEU96      -0.1977
     76  CA       -11.3610  -23.2470  -24.5770 C.3    96  LEU96       0.1596
     77  C        -12.3570  -22.4000  -25.3800 C.2    96  LEU96       0.2287
     78  O        -12.4710  -21.1800  -25.1640 O.2    96  LEU96      -0.2864
     79  CB       -10.2110  -22.3610  -24.0620 C.3    96  LEU96       0.0297
     80  CG        -9.1920  -23.0030  -23.1150 C.3    96  LEU96       0.0022
     81  CD1       -8.1850  -21.9720  -22.6110 C.3    96  LEU96       0.0001
     82  CD2       -9.8830  -23.7070  -21.9460 C.3    96  LEU96       0.0001
     83  N         -4.0740  -25.7080  -32.3990 N.3   172  ILE172     -0.1245
     84  CA        -5.3920  -25.6590  -31.7870 C.3   172  ILE172      0.1561
     85  C         -6.4290  -25.2700  -32.8330 C.2   172  ILE172      0.2260
     86  O         -6.1950  -24.3580  -33.6300 O.2   172  ILE172     -0.2867
     87  CB        -5.4250  -24.6310  -30.6290 C.3   172  ILE172      0.0252
     88  CG1       -4.4440  -25.0450  -29.5360 C.3   172  ILE172      0.0019
     89  CG2       -6.8110  -24.5380  -30.0440 C.3   172  ILE172      0.0019
     90  CD1       -4.6400  -26.4860  -29.0770 C.3   172  ILE172      0.0001
     91  N          2.6390   -9.2750  -25.1700 N.3   192  ASP192     -0.1225
     92  CA         1.6880  -10.3720  -25.0940 C.3   192  ASP192      0.1805
     93  C          1.1640  -10.4020  -23.6720 C.2   192  ASP192      0.2598
     94  O          1.7930   -9.8620  -22.7630 O.2   192  ASP192     -0.2718
     95  CB         2.3930  -11.6940  -25.4440 C.3   192  ASP192      0.1424
     96  CG         1.4300  -12.8360  -25.7250 C.2   192  ASP192      0.3668
     97  OD1        0.2040  -12.6070  -25.7560 O.co2 192  ASP192     -0.2456
     98  OD2        1.9120  -13.9770  -25.9380 O.co2 192  ASP192     -0.2456
     99  N         -0.0080  -10.9980  -23.4920 N.am  193  ALA193     -0.1966
    100  CA        -0.4630  -11.3820  -22.1690 C.3   193  ALA193      0.1728
    101  C          0.3260  -12.6290  -21.7420 C.2   193  ALA193      0.2616
    102  O          1.0490  -13.2200  -22.5450 O.2   193  ALA193     -0.2715
    103  CB        -1.9580  -11.6620  -22.1910 C.3   193  ALA193      0.0334
    104  N          0.1950  -13.0250  -20.4830 N.am  194  CYS194     -0.1954
    105  CA         0.9000  -14.2060  -19.9940 C.3   194  CYS194      0.1843
    106  C          0.1300  -14.8030  -18.8170 C.2   194  CYS194      0.2625
    107  O         -0.9340  -14.2970  -18.4370 O.2   194  CYS194     -0.2714
    108  CB         2.3410  -13.8440  -19.5820 C.3   194  CYS194      0.0997
    109  SG         3.5110  -15.2560  -19.5270 S.3   194  CYS194     -0.0797
    110  N          0.6640  -15.8860  -18.2590 N.am  195  GLU195     -0.1977
    111  CA         0.0720  -16.5400  -17.0970 C.3   195  GLU195      0.1602
    112  C         -0.2710  -15.5070  -16.0120 C.2   195  GLU195      0.2287
    113  O          0.5200  -14.5990  -15.7400 O.2   195  GLU195     -0.2864
    114  CB         1.0550  -17.5890  -16.5500 C.3   195  GLU195      0.0415
    115  CG         0.6250  -18.2460  -15.2410 C.3   195  GLU195      0.1163
    116  CD        -0.4300  -19.3120  -15.4500 C.2   195  GLU195      0.3649
    117  OE1       -1.2070  -19.5870  -14.5100 O.co2 195  GLU195     -0.2457
    118  OE2       -0.4760  -19.8840  -16.5580 O.co2 195  GLU195     -0.2457
    119  N         -4.8810  -14.0650  -17.5690 N.3   198  SER198     -0.1217
    120  CA        -6.1400  -14.7000  -17.9590 C.3   198  SER198      0.1889
    121  C         -7.3420  -14.0400  -17.3130 C.2   198  SER198      0.2288
    122  O         -7.3230  -13.7510  -16.1220 O.2   198  SER198     -0.2866
    123  CB        -6.1510  -16.1740  -17.5290 C.3   198  SER198      0.2089
    124  OG        -5.2610  -16.9780  -18.2830 O.3   198  SER198     -0.2183
    125  N         -8.7280  -12.1570  -22.0390 N.3   218  VAL218     -0.1231
    126  CA        -7.4880  -12.9120  -22.1580 C.3   218  VAL218      0.1692
    127  C         -7.7910  -14.3890  -21.9300 C.2   218  VAL218      0.2593
    128  O         -8.2980  -14.7610  -20.8760 O.2   218  VAL218     -0.2718
    129  CB        -6.4290  -12.4800  -21.1210 C.3   218  VAL218      0.0266
    130  CG1       -5.1180  -13.3250  -21.2790 C.3   218  VAL218      0.0020
    131  CG2       -6.1380  -11.0170  -21.2330 C.3   218  VAL218      0.0020
    132  N         -7.4740  -15.2340  -22.9060 N.am  219  SER219     -0.1938
    133  CA        -7.8930  -16.6270  -22.8080 C.3   219  SER219      0.2055
    134  C         -6.7330  -17.6110  -22.7820 C.2   219  SER219      0.2643
    135  O         -6.6310  -18.4140  -21.8690 O.2   219  SER219     -0.2714
    136  CB        -8.9110  -16.9740  -23.9090 C.3   219  SER219      0.2130
    137  OG        -9.3420  -18.3180  -23.7930 O.3   219  SER219     -0.2179
    138  N         -5.8600  -17.5620  -23.7790 N.am  220  TRP220     -0.1959
    139  CA        -4.7430  -18.5120  -23.8240 C.3   220  TRP220      0.1771
    140  C         -3.6770  -18.1350  -24.8370 C.2   220  TRP220      0.2620
    141  O         -3.8960  -17.2960  -25.7110 O.2   220  TRP220     -0.2715
    142  CB        -5.2320  -19.9440  -24.0920 C.3   220  TRP220      0.0590
    143  CG        -5.9580  -20.1050  -25.3890 C.ar  220  TRP220      0.0006
    144  CD1       -7.2950  -19.9140  -25.6120 C.ar  220  TRP220      0.0946
    145  CD2       -5.3920  -20.4900  -26.6460 C.ar  220  TRP220      0.0152
    146  NE1       -7.5940  -20.1650  -26.9310 N.ar  220  TRP220     -0.2442
    147  CE2       -6.4440  -20.5200  -27.5870 C.ar  220  TRP220      0.0810
    148  CE3       -4.1000  -20.8200  -27.0670 C.ar  220  TRP220      0.0012
    149  CZ2       -6.2420  -20.8590  -28.9290 C.ar  220  TRP220      0.0191
    150  CZ3       -3.8990  -21.1600  -28.4060 C.ar  220  TRP220      0.0001
    151  CH2       -4.9660  -21.1700  -29.3190 C.ar  220  TRP220      0.0015
    152  N         -2.5170  -18.7640  -24.7000 N.am  221  GLY221     -0.1940
    153  CA        -1.4090  -18.5510  -25.6120 C.3   221  GLY221      0.2014
    154  C         -0.4310  -19.7050  -25.5050 C.2   221  GLY221      0.2639
    155  O         -0.3890  -20.4160  -24.4990 O.2   221  GLY221     -0.2714
    156  N          0.3550  -19.9030  -26.5520 N.am  222  GLU222     -0.1963
    157  CA         1.4030  -20.9040  -26.5200 C.3   222  GLU222      0.1733
    158  C          2.7010  -20.2350  -26.0850 C.2   222  GLU222      0.2617
    159  O          3.3880  -19.5990  -26.8880 O.2   222  GLU222     -0.2715
    160  CB         1.5370  -21.5700  -27.8910 C.3   222  GLU222      0.0429
    161  CG         0.2740  -22.3210  -28.3010 C.3   222  GLU222      0.1163
    162  CD         0.0760  -22.3630  -29.7990 C.2   222  GLU222      0.3649
    163  OE1       -0.2000  -21.2980  -30.3910 O.co2 222  GLU222     -0.2457
    164  OE2        0.1930  -23.4560  -30.3820 O.co2 222  GLU222     -0.2457
    165  N          3.0410  -20.3960  -24.8110 N.am  223  GLY223     -0.1940
    166  CA         4.0800  -19.5800  -24.2150 C.3   223  GLY223      0.2014
    167  C          3.5730  -18.1450  -24.0980 C.2   223  GLY223      0.2639
    168  O          2.3640  -17.9070  -24.0890 O.2   223  GLY223     -0.2714
    169  N          4.4930  -17.1940  -24.0000 N.am  224  CYS224     -0.1967
    170  CA         4.1460  -15.7750  -23.9460 C.3   224  CYS224      0.1712
    171  C          5.1890  -14.9980  -24.7510 C.2   224  CYS224      0.2296
    172  O          6.3940  -15.1990  -24.5690 O.2   224  CYS224     -0.2864
    173  CB         4.1440  -15.2620  -22.5020 C.3   224  CYS224      0.0983
    174  SG         3.2930  -16.2820  -21.2870 S.3   224  CYS224     -0.0798
    175  N          6.1990  -15.2870  -27.8050 N.3   226  ARG226     -0.1245
    176  CA         7.0350  -16.0480  -28.7300 C.3   226  ARG226      0.1563
    177  C          6.8300  -15.5360  -30.1510 C.2   226  ARG226      0.2260
    178  O          5.6970  -15.2790  -30.5600 O.2   226  ARG226     -0.2867
    179  CB         6.7170  -17.5460  -28.6720 C.3   226  ARG226      0.0307
    180  CG         6.9840  -18.2030  -27.3260 C.3   226  ARG226      0.0489
    181  CD         6.9750  -19.7070  -27.4600 C.3   226  ARG226      0.2205
    182  NE         7.1330  -20.3800  -26.1750 N.pl3 226  ARG226     -0.0865
    183  CZ         6.7860  -21.6440  -25.9450 C.cat 226  ARG226      0.5346
    184  NH1        6.2510  -22.3760  -26.9160 N.pl3 226  ARG226      0.1354
    185  NH2        6.9590  -22.1760  -24.7410 N.pl3 226  ARG226      0.1354
    186  N         -1.4840  -14.1070  -28.8610 N.3   231  GLY231     -0.1210
    187  CA        -2.3800  -14.3100  -27.7400 C.3   231  GLY231      0.1956
    188  C         -3.8000  -14.5100  -28.2340 C.2   231  GLY231      0.2612
    189  O         -4.2260  -13.8630  -29.1830 O.2   231  GLY231     -0.2717
    190  N         -4.5340  -15.4200  -27.6100 N.am  232  PHE232     -0.1962
    191  CA        -5.9140  -15.6210  -27.9980 C.3   232  PHE232      0.1771
    192  C         -6.8830  -15.0670  -26.9690 C.2   232  PHE232      0.2619
    193  O         -6.6470  -15.1410  -25.7700 O.2   232  PHE232     -0.2715
    194  CB        -6.1890  -17.0930  -28.3270 C.3   232  PHE232      0.0574
    195  CG        -5.6430  -17.5120  -29.6640 C.ar  232  PHE232     -0.0200
    196  CD1       -4.2990  -17.8470  -29.8080 C.ar  232  PHE232     -0.0042
    197  CD2       -6.4640  -17.5410  -30.7860 C.ar  232  PHE232     -0.0042
    198  CE1       -3.7890  -18.2190  -31.0440 C.ar  232  PHE232     -0.0003
    199  CE2       -5.9580  -17.9110  -32.0320 C.ar  232  PHE232     -0.0003
    200  CZ        -4.6240  -18.2500  -32.1550 C.ar  232  PHE232     -0.0000
    201  N         -7.9800  -14.5110  -27.4680 N.am  233  TYR233     -0.1974
    202  CA        -8.9440  -13.7960  -26.6540 C.3   233  TYR233      0.1639
    203  C        -10.3600  -14.2870  -26.9560 C.2   233  TYR233      0.2290
    204  O        -10.6940  -14.5540  -28.1050 O.2   233  TYR233     -0.2864
    205  CB        -8.8330  -12.2820  -26.9350 C.3   233  TYR233      0.0560
    206  CG        -7.4650  -11.7280  -26.6250 C.ar  233  TYR233     -0.0198
    207  CD1       -6.4150  -11.8520  -27.5350 C.ar  233  TYR233     -0.0009
    208  CD2       -7.2090  -11.1050  -25.4150 C.ar  233  TYR233     -0.0009
    209  CE1       -5.1400  -11.3670  -27.2390 C.ar  233  TYR233      0.0417
    210  CE2       -5.9590  -10.6150  -25.1190 C.ar  233  TYR233      0.0417
    211  CZ        -4.9180  -10.7590  -26.0240 C.ar  233  TYR233      0.1957
    212  OH        -3.6560  -10.2780  -25.7090 O.3   233  TYR233     -0.2866
@<TRIPOS>BOND
     1    86    85    2
     2    85    84    1
     3    83    84    1
     4   200   199   ar
     5   200   198   ar
     6   199   197   ar
     7    84    87    1
     8   198   196   ar
     9   197   195   ar
    10    87    89    1
    11    87    88    1
    12   178   177    2
    13    74    72   am
    14   163   162   ar
    15   164   162   ar
    16   177   176    1
    17   196   195   ar
    18   162   161    1
    19   195   194    1
    20    88    90    1
    21   151   149   ar
    22   151   150   ar
    23    65    64   ar
    24   189   188    2
    25    72    71    1
    26    72    73    2
    27   149   147   ar
    28   186   187    1
    29    71    68    1
    30   176   179    1
    31   176   175    1
    32   179   180    1
    33    64    66   ar
    34    64    63    1
    35   150   148   ar
    36   194   191    1
    37   161   160    1
    38   188   187    1
    39   188   190   am
    40   204   203    2
    41   191   190    1
    42   191   192    1
    43   160   157    1
    44    63    62    1
    45    62    59    1
    46   147   146   ar
    47   147   145   ar
    48   207   209   ar
    49   207   206   ar
    50   201   192   am
    51   201   202    1
    52   181   180    1
    53   181   182    1
    54   209   211   ar
    55    68    67    1
    56    68    69    1
    57   148   145   ar
    58    70    69    2
    59   192   193    2
    60   203   202    1
    61   205   202    1
    62   205   206    1
    63   146   144   ar
    64   184   183    1
    65   159   158    2
    66    67    60   am
    67   145   143   ar
    68   206   208   ar
    69    60    59    1
    70    60    61    2
    71   156   157    1
    72   156   154   am
    73   157   158    1
    74    69    75   am
    75    59    58    1
    76   182   183    2
    77   158   165   am
    78   211   212    1
    79   211   210   ar
    80   183   185    1
    81    98    96   ar
    82    97    96   ar
    83    96    95    1
    84   141   140    2
    85   153   154    1
    86   153   152    1
    87   144   143   ar
    88   154   155    2
    89    95    92    1
    90   208   210   ar
    91   143   142    1
    92    77    78    2
    93    77    76    1
    94    75    76    1
    95    91    92    1
    96    92    93    1
    97   140   152   am
    98   140   139    1
    99   165   166    1
   100   171   172    2
   101   171   170    1
   102    76    79    1
   103   166   167    1
   104   167   168    2
   105   167   169   am
   106   142   139    1
   107    79    80    1
   108   169   170    1
   109   170   173    1
   110   136   137    1
   111   136   133    1
   112   139   138    1
   113   138   134   am
   114    93    99   am
   115    93    94    2
   116    99   100    1
   117    80    81    1
   118    80    82    1
   119   132   133    1
   120   132   127   am
   121   133   134    1
   122   134   135    2
   123   102   101    2
   124   173   174    1
   125   103   100    1
   126   100   101    1
   127   126   125    1
   128   126   127    1
   129   126   129    1
   130   127   128    2
   131   101   104   am
   132   174   109    1
   133   130   129    1
   134   131   129    1
   135   104   105    1
   136    34    33    1
   137   105   108    1
   138   105   106    1
   139   108   109    1
   140    13    15   ar
   141    13    12   ar
   142    31    33   ar
   143    31    29   ar
   144    15    16   ar
   145    33    32   ar
   146   106   107    2
   147   106   110   am
   148    12    11    1
   149    12    14   ar
   150    11     8    1
   151   124   123    1
   152    16    14   ar
   153   110   111    1
   154    29    28   ar
   155    32    30   ar
   156   120   119    1
   157   120   123    1
   158   120   121    1
   159     7     8    1
   160     8     9    1
   161   121   122    2
   162    46    48   ar
   163    46    44   ar
   164   111   114    1
   165   111   112    1
   166    28    30   ar
   167    28    27    1
   168    43    44   ar
   169    43    41   ar
   170    48    47   ar
   171    44    42   ar
   172   118   116   ar
   173   114   115    1
   174     9    17   am
   175     9    10    2
   176   112   113    2
   177    41    40   ar
   178    27    24    1
   179    17    18    1
   180    47    45   ar
   181    24    25    1
   182    24    23    1
   183   116   115    1
   184   116   117   ar
   185    42    40   ar
   186    42    45   ar
   187    22    21    1
   188    22     6    1
   189    40    39    1
   190    25    26    2
   191    35    36    1
   192    18    21    1
   193    18    19    1
   194     6     5    1
   195    39    36    1
   196    36    37    1
   197    19    20    2
   198     5     2    1
   199     3     2    1
   200     3     4    2
   201     2     1    1
   202    37    38    2
   203    52    51    2
   204    53    54    1
   205    53    50    1
   206    54    55    1
   207    49    50    1
   208    51    50    1
   209    55    56    1
   210    56    57    1
