@<TRIPOS>MOLECULE
tmp/4e80C00.pdb
 169 156 0 0 0
SMALL
GASTEIGER

@<TRIPOS>ATOM
      1  N        -36.4060  -43.5760   46.4850 N.3    47  PHE47      -0.1227
      2  CA       -35.0150  -43.9860   46.6570 C.3    47  PHE47       0.1736
      3  C        -34.7820  -45.1580   45.6990 C.2    47  PHE47       0.2596
      4  O        -35.7040  -45.5450   44.9830 O.2    47  PHE47      -0.2718
      5  CB       -34.6790  -44.3100   48.1300 C.3    47  PHE47       0.0547
      6  CG       -35.3000  -45.5710   48.6820 C.ar   47  PHE47      -0.0202
      7  CD1      -34.5880  -46.7720   48.6990 C.ar   47  PHE47      -0.0042
      8  CD2      -36.5770  -45.5540   49.2210 C.ar   47  PHE47      -0.0042
      9  CE1      -35.1580  -47.9380   49.2260 C.ar   47  PHE47      -0.0003
     10  CE2      -37.1480  -46.7240   49.7410 C.ar   47  PHE47      -0.0003
     11  CZ       -36.4310  -47.9040   49.7510 C.ar   47  PHE47      -0.0000
     12  N        -33.5740  -45.6900   45.6620 N.am   48  GLY48      -0.1942
     13  CA       -33.2480  -46.7860   44.7610 C.3    48  GLY48       0.2014
     14  C        -32.8050  -46.3020   43.3970 C.2    48  GLY48       0.2639
     15  O        -32.4580  -45.1280   43.2310 O.2    48  GLY48      -0.2714
     16  N        -32.8340  -47.2210   42.4060 N.am   49  SER49      -0.1949
     17  CA       -32.4360  -47.0340   41.0020 C.3    49  SER49       0.1924
     18  C        -33.0670  -45.8230   40.3390 C.2    49  SER49       0.2314
     19  O        -32.3580  -45.0280   39.7190 O.2    49  SER49      -0.2863
     20  CB       -32.7970  -48.2720   40.1940 C.3    49  SER49       0.2116
     21  OG       -31.7330  -49.2020   40.2570 O.3    49  SER49      -0.2180
     22  N        -30.1140  -44.8420   37.9090 N.3    54  LEU54      -0.1245
     23  CA       -29.4430  -46.0750   37.5130 C.3    54  LEU54       0.1561
     24  C        -30.4940  -47.1690   37.3080 C.2    54  LEU54       0.2260
     25  O        -30.2890  -48.3090   37.7210 O.2    54  LEU54      -0.2867
     26  CB       -28.4050  -46.4810   38.5900 C.3    54  LEU54       0.0270
     27  CG       -27.3410  -45.4580   38.9540 C.3    54  LEU54       0.0019
     28  CD1      -26.6790  -45.8040   40.2630 C.3    54  LEU54       0.0001
     29  CD2      -26.3240  -45.3070   37.8430 C.3    54  LEU54       0.0001
     30  N        -33.0700  -49.5880   34.8860 N.3    56  LEU56      -0.1245
     31  CA       -33.2860  -50.2640   33.6050 C.3    56  LEU56       0.1561
     32  C        -34.7530  -50.1070   33.1920 C.2    56  LEU56       0.2260
     33  O        -35.5520  -49.6200   33.9920 O.2    56  LEU56      -0.2867
     34  CB       -32.9340  -51.7610   33.7300 C.3    56  LEU56       0.0270
     35  CG       -31.4960  -52.1420   33.9880 C.3    56  LEU56       0.0019
     36  CD1      -31.4220  -53.5160   34.5680 C.3    56  LEU56       0.0001
     37  CD2      -30.6910  -52.1020   32.7220 C.3    56  LEU56       0.0001
     38  N        -38.6150  -51.2240   35.3790 N.3    59  SER59      -0.1202
     39  CA       -38.0490  -51.1810   36.7250 C.3    59  SER59       0.2020
     40  C        -39.1410  -51.0080   37.7770 C.2    59  SER59       0.2618
     41  O        -40.1560  -50.3530   37.5220 O.2    59  SER59      -0.2717
     42  CB       -37.0460  -50.0350   36.8350 C.3    59  SER59       0.2103
     43  OG       -36.3200  -50.0760   38.0520 O.3    59  SER59      -0.2182
     44  N        -38.9140  -51.5850   38.9680 N.am   60  ASP60      -0.1973
     45  CA       -39.8220  -51.4760   40.1100 C.3    60  ASP60       0.1709
     46  C        -39.5060  -50.2060   40.9080 C.2    60  ASP60       0.2293
     47  O        -38.3560  -49.7490   40.8990 O.2    60  ASP60      -0.2864
     48  CB       -39.7200  -52.7290   41.0040 C.3    60  ASP60       0.1436
     49  CG       -40.4180  -53.9680   40.4540 C.2    60  ASP60       0.3671
     50  OD1      -41.2760  -53.8190   39.5440 O.co2  60  ASP60      -0.2456
     51  OD2      -40.1270  -55.0850   40.9510 O.co2  60  ASP60      -0.2456
     52  N        -39.2210  -47.9240   44.4570 N.3    62  ASP62      -0.1239
     53  CA       -38.8580  -48.0020   45.8670 C.3    62  ASP62       0.1674
     54  C        -39.1500  -46.6630   46.4990 C.2    62  ASP62       0.2266
     55  O        -38.4610  -45.6820   46.2050 O.2    62  ASP62      -0.2867
     56  CB       -37.3890  -48.4000   46.0470 C.3    62  ASP62       0.1410
     57  CG       -37.1020  -49.8590   45.7610 C.2    62  ASP62       0.3668
     58  OD1      -37.6380  -50.7240   46.4980 O.co2  62  ASP62      -0.2456
     59  OD2      -36.3000  -50.1400   44.8240 O.co2  62  ASP62      -0.2456
     60  N        -31.3820  -45.8710   53.6040 N.3   117  ALA117     -0.1245
     61  CA       -31.5500  -46.1410   52.1710 C.3   117  ALA117      0.1562
     62  C        -31.5770  -44.8370   51.3560 C.2   117  ALA117      0.2260
     63  O        -30.9100  -44.7600   50.3260 O.2   117  ALA117     -0.2867
     64  CB       -32.8140  -46.9410   51.9220 C.3   117  ALA117      0.0290
     65  N        -27.9030  -43.4980   51.2720 N.3   120  ASN120     -0.1225
     66  CA       -26.9660  -44.1290   50.3430 C.3   120  ASN120      0.1785
     67  C        -27.3950  -43.8650   48.8860 C.2   120  ASN120      0.2597
     68  O        -26.5350  -43.7980   47.9980 O.2   120  ASN120     -0.2718
     69  CB       -26.7250  -45.6100   50.6400 C.3   120  ASN120      0.1169
     70  CG       -27.8700  -46.5260   50.3750 C.2   120  ASN120      0.2627
     71  OD1      -28.4050  -46.5900   49.2660 O.2   120  ASN120     -0.2716
     72  ND2      -28.1660  -47.3500   51.3440 N.am  120  ASN120     -0.0877
     73  N        -28.7070  -43.6060   48.6680 N.am  121  THR121     -0.1953
     74  CA       -29.2370  -43.2170   47.3570 C.3   121  THR121      0.1897
     75  C        -28.6850  -41.8160   47.0290 C.2   121  THR121      0.2313
     76  O        -28.3510  -41.5770   45.8710 O.2   121  THR121     -0.2863
     77  CB       -30.7670  -43.3220   47.3000 C.3   121  THR121      0.1794
     78  OG1      -31.1190  -44.6850   47.5500 O.3   121  THR121     -0.2208
     79  CG2      -31.3370  -42.9150   45.9430 C.3   121  THR121      0.0378
     80  N        -25.0740  -42.4380   45.7500 N.3   124  LEU124     -0.1245
     81  CA       -25.0380  -42.9670   44.3800 C.3   124  LEU124      0.1561
     82  C        -25.4700  -41.9370   43.3430 C.2   124  LEU124      0.2260
     83  O        -24.9460  -41.9670   42.2330 O.2   124  LEU124     -0.2867
     84  CB       -25.8850  -44.2270   44.2360 C.3   124  LEU124      0.0270
     85  CG       -25.5560  -45.3910   45.1730 C.3   124  LEU124      0.0019
     86  CD1      -26.4220  -46.5740   44.8620 C.3   124  LEU124      0.0001
     87  CD2      -24.1030  -45.8050   45.0840 C.3   124  LEU124      0.0001
     88  N        -25.6930  -54.6300   35.7590 N.3   142  LYS142     -0.1245
     89  CA       -26.9850  -55.1090   36.2510 C.3   142  LYS142      0.1561
     90  C        -27.6670  -56.0050   35.2140 C.2   142  LYS142      0.2260
     91  O        -28.2070  -57.0480   35.5840 O.2   142  LYS142     -0.2867
     92  CB       -27.8960  -53.9370   36.6550 C.3   142  LYS142      0.0271
     93  CG       -27.4190  -53.2590   37.9330 C.3   142  LYS142      0.0035
     94  CD       -28.5270  -52.6130   38.7080 C.3   142  LYS142      0.0206
     95  CE       -28.8730  -51.2570   38.1890 C.3   142  LYS142      0.1093
     96  NZ       -30.1750  -50.8250   38.7210 N.3   142  LYS142     -0.1314
     97  N        -28.2670  -59.9960   35.8910 N.3   146  LYS146     -0.1245
     98  CA       -29.6240  -60.5320   35.7290 C.3   146  LYS146      0.1561
     99  C        -29.6470  -61.7080   34.7450 C.2   146  LYS146      0.2260
    100  O        -30.1500  -62.7870   35.0860 O.2   146  LYS146     -0.2867
    101  CB       -30.6110  -59.4300   35.2850 C.3   146  LYS146      0.0271
    102  CG       -31.0250  -58.5300   36.4400 C.3   146  LYS146      0.0035
    103  CD       -31.8170  -57.3110   36.0090 C.3   146  LYS146      0.0206
    104  CE       -32.2050  -56.4280   37.1810 C.3   146  LYS146      0.1093
    105  NZ       -31.0330  -55.7800   37.8330 N.3   146  LYS146     -0.1314
    106  N        -28.1230  -62.4530   40.1200 N.3   151  ASN151     -0.1240
    107  CA       -28.7650  -61.3040   40.7530 C.3   151  ASN151      0.1653
    108  C        -29.9630  -61.7420   41.6280 C.2   151  ASN151      0.2266
    109  O        -30.9340  -60.9910   41.7560 O.2   151  ASN151     -0.2867
    110  CB       -29.1810  -60.2810   39.6760 C.3   151  ASN151      0.1155
    111  CG       -29.5910  -58.9280   40.1930 C.2   151  ASN151      0.2627
    112  OD1      -30.5200  -58.3020   39.6670 O.2   151  ASN151     -0.2716
    113  ND2      -28.9320  -58.4570   41.2530 N.am  151  ASN151     -0.0877
    114  N        -27.5230  -58.9690   45.3820 N.3   159  SER159     -0.1202
    115  CA       -28.4790  -57.8990   45.0460 C.3   159  SER159      0.2020
    116  C        -27.8820  -56.9070   44.0280 C.2   159  SER159      0.2619
    117  O        -26.6500  -56.8330   43.8800 O.2   159  SER159     -0.2717
    118  CB       -28.9010  -57.1420   46.3010 C.3   159  SER159      0.2103
    119  OG       -27.8090  -56.4560   46.8950 O.3   159  SER159     -0.2182
    120  N        -28.7610  -56.1210   43.3530 N.am  160  SER160     -0.1937
    121  CA       -28.3420  -55.1320   42.3690 C.3   160  SER160      0.2055
    122  C        -27.5580  -54.0450   43.0540 C.2   160  SER160      0.2643
    123  O        -26.5270  -53.6360   42.5260 O.2   160  SER160     -0.2714
    124  CB       -29.5270  -54.5640   41.6100 C.3   160  SER160      0.2130
    125  OG       -30.2420  -55.5850   40.9410 O.3   160  SER160     -0.2179
    126  N        -27.9730  -53.6550   44.2790 N.am  161  TYR161     -0.1973
    127  CA       -27.2600  -52.6610   45.1070 C.3   161  TYR161      0.1639
    128  C        -25.8260  -53.1310   45.3840 C.2   161  TYR161      0.2290
    129  O        -24.9030  -52.3150   45.3380 O.2   161  TYR161     -0.2864
    130  CB       -28.0160  -52.3970   46.4240 C.3   161  TYR161      0.0560
    131  CG       -27.3340  -51.4160   47.3490 C.ar  161  TYR161     -0.0198
    132  CD1      -27.1540  -50.0840   46.9800 C.ar  161  TYR161     -0.0009
    133  CD2      -26.9070  -51.8050   48.6090 C.ar  161  TYR161     -0.0009
    134  CE1      -26.5300  -49.1750   47.8330 C.ar  161  TYR161      0.0417
    135  CE2      -26.3070  -50.9010   49.4790 C.ar  161  TYR161      0.0417
    136  CZ       -26.1230  -49.5850   49.0890 C.ar  161  TYR161      0.1957
    137  OH       -25.5310  -48.6950   49.9530 O.3   161  TYR161     -0.2866
    138  N        -23.7600  -52.4830   42.3330 N.3   164  VAL164     -0.1245
    139  CA       -23.5290  -51.0350   42.2110 C.3   164  VAL164      0.1561
    140  C        -22.3280  -50.6530   43.0940 C.2   164  VAL164      0.2260
    141  O        -21.4480  -49.9090   42.6440 O.2   164  VAL164     -0.2867
    142  CB       -24.7950  -50.1970   42.5350 C.3   164  VAL164      0.0252
    143  CG1      -24.5120  -48.7090   42.4240 C.3   164  VAL164      0.0019
    144  CG2      -25.9480  -50.5680   41.6120 C.3   164  VAL164      0.0019
    145  N        -21.3630  -51.9890   53.6000 N.3   279  ASP279     -0.1239
    146  CA       -22.1750  -50.8260   53.2300 C.3   279  ASP279      0.1674
    147  C        -21.4220  -49.5190   53.5580 C.2   279  ASP279      0.2266
    148  O        -20.7450  -49.4630   54.5950 O.2   279  ASP279     -0.2867
    149  CB       -23.5400  -50.8520   53.9340 C.3   279  ASP279      0.1410
    150  CG       -24.4960  -49.7860   53.4220 C.2   279  ASP279      0.3668
    151  OD1      -24.5420  -48.6800   54.0280 O.co2 279  ASP279     -0.2456
    152  OD2      -25.1260  -50.0130   52.3680 O.co2 279  ASP279     -0.2456
    153  N        -23.4770  -53.8860   58.2850 N.3   285  HIS285     -0.1241
    154  CA       -24.2080  -54.6600   57.2970 C.3   285  HIS285      0.1621
    155  C        -23.3650  -55.0680   56.1080 C.2   285  HIS285      0.2264
    156  O        -22.9190  -54.2300   55.3270 O.2   285  HIS285     -0.2867
    157  CB       -25.4550  -53.8800   56.8230 C.3   285  HIS285      0.0745
    158  CG       -26.1980  -54.4960   55.6700 C.ar  285  HIS285      0.0817
    159  ND1      -26.6270  -55.8190   55.6990 N.ar  285  HIS285     -0.2268
    160  CD2      -26.6070  -53.9340   54.5050 C.ar  285  HIS285      0.1154
    161  CE1      -27.2400  -56.0260   54.5420 C.ar  285  HIS285      0.1986
    162  NE2      -27.2600  -54.9230   53.7940 N.ar  285  HIS285     -0.2212
    163  N        -23.5330  -56.2260   52.6720 N.3   287  VAL287     -0.1245
    164  CA       -24.4560  -56.1970   51.5400 C.3   287  VAL287      0.1561
    165  C        -24.4170  -57.5650   50.7920 C.2   287  VAL287      0.2260
    166  O        -25.4250  -57.9670   50.2220 O.2   287  VAL287     -0.2867
    167  CB       -24.1320  -54.9860   50.6320 C.3   287  VAL287      0.0252
    168  CG1      -25.0270  -54.9500   49.4100 C.3   287  VAL287      0.0019
    169  CG2      -24.2680  -53.6820   51.4060 C.3   287  VAL287      0.0019
@<TRIPOS>BOND
     1    37    35    1
     2    32    31    1
     3    32    33    2
     4    31    34    1
     5    31    30    1
     6    34    35    1
     7    35    36    1
     8    99   100    2
     9    99    98    1
    10    90    91    2
    11    90    89    1
    12   101    98    1
    13   101   102    1
    14    38    39    1
    15    98    97    1
    16    88    89    1
    17   103   102    1
    18   103   104    1
    19    89    92    1
    20    92    93    1
    21    39    42    1
    22    39    40    1
    23    42    43    1
    24   104   105    1
    25    24    23    1
    26    24    25    2
    27    23    22    1
    28    23    26    1
    29    41    40    2
    30    40    44   am
    31    29    27    1
    32    93    94    1
    33    95    94    1
    34    95    96    1
    35    26    27    1
    36    27    28    1
    37    44    45    1
    38    50    49   ar
    39   112   111    2
    40   110   111    1
    41   110   107    1
    42    19    18    2
    43    45    46    1
    44    45    48    1
    45   106   107    1
    46   111   113   am
    47    20    21    1
    48    20    17    1
    49    18    17    1
    50    49    51   ar
    51    49    48    1
    52   107   108    1
    53    47    46    2
    54   125   124    1
    55    17    16    1
    56   124   121    1
    57   144   142    1
    58   108   109    2
    59   139   138    1
    60   139   142    1
    61   139   140    1
    62    83    82    2
    63   121   122    1
    64   121   120    1
    65    16    14   am
    66   143   142    1
    67   123   122    2
    68   141   140    2
    69   122   126   am
    70    15    14    2
    71    82    81    1
    72   120   116   am
    73    14    13    1
    74   117   116    2
    75   116   115    1
    76    84    81    1
    77    84    85    1
    78   126   127    1
    79    81    80    1
    80    52    53    1
    81    13    12    1
    82    59    57   ar
    83    86    85    1
    84     4     3    2
    85   115   114    1
    86   115   118    1
    87    87    85    1
    88   127   128    1
    89   127   130    1
    90   129   128    2
    91    12     3   am
    92     3     2    1
    93    57    56    1
    94    57    58   ar
    95    53    56    1
    96    53    54    1
    97    76    75    2
    98    79    77    1
    99    55    54    2
   100   118   119    1
   101   130   131    1
   102     1     2    1
   103     2     5    1
   104   132   131   ar
   105   132   134   ar
   106    75    74    1
   107    77    74    1
   108    77    78    1
   109   131   133   ar
   110    74    73    1
   111   134   136   ar
   112    68    67    2
   113     5     6    1
   114   133   135   ar
   115    73    67   am
   116     6     7   ar
   117     6     8   ar
   118     7     9   ar
   119    67    66    1
   120   136   135   ar
   121   136   137    1
   122     8    10   ar
   123     9    11   ar
   124    71    70    2
   125   168   167    1
   126    10    11   ar
   127   166   165    2
   128    63    62    2
   129    66    69    1
   130    66    65    1
   131    70    69    1
   132    70    72   am
   133   167   169    1
   134   167   164    1
   135   165   164    1
   136    62    61    1
   137   164   163    1
   138    64    61    1
   139    61    60    1
   140   152   150   ar
   141   146   147    1
   142   146   145    1
   143   146   149    1
   144   150   149    1
   145   150   151   ar
   146   147   148    2
   147   162   160   ar
   148   162   161   ar
   149   160   158   ar
   150   161   159   ar
   151   156   155    2
   152   158   159   ar
   153   158   157    1
   154   155   154    1
   155   157   154    1
   156   154   153    1
