@<TRIPOS>MOLECULE
tmp/4e84A01.pdb
 106 96 0 0 0
SMALL
GASTEIGER

@<TRIPOS>ATOM
      1  N         25.6320  -59.0890   25.2640 N.3    25  ASP25      -0.1239
      2  CA        24.8370  -58.0570   25.9160 C.3    25  ASP25       0.1674
      3  C         24.7860  -58.2850   27.4200 C.2    25  ASP25       0.2266
      4  O         23.9900  -59.0860   27.9120 O.2    25  ASP25      -0.2867
      5  CB        23.4220  -58.0150   25.3360 C.3    25  ASP25       0.1410
      6  CG        23.3970  -57.5250   23.9020 C.2    25  ASP25       0.3668
      7  OD1       24.3220  -56.7810   23.5100 O.co2  25  ASP25      -0.2456
      8  OD2       22.4500  -57.8760   23.1670 O.co2  25  ASP25      -0.2456
      9  N         23.9770  -61.2800   21.6840 N.3    54  GLY54      -0.1210
     10  CA        23.5980  -60.0950   20.9380 C.3    54  GLY54       0.1956
     11  C         24.2540  -60.0190   19.5750 C.2    54  GLY54       0.2612
     12  O         25.1100  -60.8370   19.2400 O.2    54  GLY54      -0.2717
     13  N         23.8490  -59.0300   18.7850 N.am   55  GLY55      -0.1956
     14  CA        24.3970  -58.8390   17.4560 C.3    55  GLY55       0.1869
     15  C         23.9940  -59.9630   16.5250 C.2    55  GLY55       0.2309
     16  O         22.8480  -60.4130   16.5410 O.2    55  GLY55      -0.2863
     17  N         28.4460  -55.1330   24.8290 N.3   109  LYS109     -0.1245
     18  CA        27.6520  -53.9540   25.1430 C.3   109  LYS109      0.1561
     19  C         27.1980  -54.0210   26.5910 C.2   109  LYS109      0.2260
     20  O         26.3540  -54.8400   26.9540 O.2   109  LYS109     -0.2867
     21  CB        26.4370  -53.8630   24.2200 C.3   109  LYS109      0.0271
     22  CG        26.7850  -53.9130   22.7430 C.3   109  LYS109      0.0035
     23  CD        27.7030  -52.7720   22.3530 C.3   109  LYS109      0.0206
     24  CE        28.1240  -52.8860   20.8990 C.3   109  LYS109      0.1093
     25  NZ        28.8630  -51.6800   20.4340 N.3   109  LYS109     -0.1314
     26  N         25.3470  -52.4530   29.6910 N.3   111  ARG111     -0.1245
     27  CA        24.3180  -51.4860   30.0610 C.3   111  ARG111      0.1563
     28  C         24.1320  -51.4240   31.5730 C.2   111  ARG111      0.2260
     29  O         23.7850  -52.4210   32.2090 O.2   111  ARG111     -0.2867
     30  CB        22.9950  -51.8350   29.3790 C.3   111  ARG111      0.0307
     31  CG        23.0870  -51.9020   27.8640 C.3   111  ARG111      0.0489
     32  CD        21.8330  -52.4990   27.2630 C.3   111  ARG111      0.2205
     33  NE        21.8810  -52.5380   25.8050 N.pl3 111  ARG111     -0.0865
     34  CZ        22.4800  -53.4940   25.1020 C.cat 111  ARG111      0.5346
     35  NH1       23.0930  -54.4920   25.7230 N.pl3 111  ARG111      0.1354
     36  NH2       22.4700  -53.4500   23.7770 N.pl3 111  ARG111      0.1354
     37  N         25.6440  -46.7590   28.6350 N.3   121  ARG121     -0.1245
     38  CA        26.0610  -47.9840   27.9710 C.3   121  ARG121      0.1563
     39  C         27.5570  -47.9370   27.6900 C.2   121  ARG121      0.2260
     40  O         28.0650  -46.9750   27.1170 O.2   121  ARG121     -0.2867
     41  CB        25.2830  -48.2260   26.6780 C.3   121  ARG121      0.0307
     42  CG        25.3370  -49.6760   26.2250 C.3   121  ARG121      0.0489
     43  CD        24.5910  -49.9020   24.9270 C.3   121  ARG121      0.2205
     44  NE        25.4490  -49.6880   23.7680 N.pl3 121  ARG121     -0.0865
     45  CZ        25.0280  -49.7440   22.5110 C.cat 121  ARG121      0.5346
     46  NH1       23.7540  -50.0030   22.2480 N.pl3 121  ARG121      0.1354
     47  NH2       25.8780  -49.5390   21.5160 N.pl3 121  ARG121      0.1354
     48  N         27.4260  -54.9310   11.6920 N.3   153  TYR153     -0.1241
     49  CA        27.3830  -53.9300   12.7520 C.3   153  TYR153      0.1605
     50  C         28.6310  -53.0540   12.7210 C.2   153  TYR153      0.2264
     51  O         28.9440  -52.3700   13.6960 O.2   153  TYR153     -0.2867
     52  CB        27.2220  -54.5890   14.1240 C.3   153  TYR153      0.0534
     53  CG        25.7910  -54.9580   14.4420 C.ar  153  TYR153     -0.0201
     54  CD1       24.9330  -54.0410   15.0360 C.ar  153  TYR153     -0.0009
     55  CD2       25.2920  -56.2170   14.1320 C.ar  153  TYR153     -0.0009
     56  CE1       23.6200  -54.3670   15.3200 C.ar  153  TYR153      0.0417
     57  CE2       23.9800  -56.5550   14.4130 C.ar  153  TYR153      0.0417
     58  CZ        23.1490  -55.6270   15.0080 C.ar  153  TYR153      0.1957
     59  OH        21.8430  -55.9540   15.2900 O.3   153  TYR153     -0.2866
     60  N         31.6550  -53.7230   13.0160 N.3   155  LYS155     -0.1245
     61  CA        32.6790  -54.0630   13.9970 C.3   155  LYS155      0.1561
     62  C         33.8550  -54.7590   13.3200 C.2   155  LYS155      0.2260
     63  O         34.7430  -55.2910   13.9870 O.2   155  LYS155     -0.2867
     64  CB        32.1030  -54.9370   15.1140 C.3   155  LYS155      0.0271
     65  CG        30.8290  -54.3850   15.7400 C.3   155  LYS155      0.0035
     66  CD        31.0220  -52.9590   16.2300 C.3   155  LYS155      0.0206
     67  CE        29.7310  -52.3970   16.8040 C.3   155  LYS155      0.1093
     68  NZ        29.8150  -50.9250   17.0260 N.3   155  LYS155     -0.1314
     69  N         25.0480  -51.3060    7.4410 N.3   179  LYS179     -0.1245
     70  CA        25.7470  -50.4100    8.3550 C.3   179  LYS179      0.1561
     71  C         26.7530  -49.5720    7.5710 C.2   179  LYS179      0.2260
     72  O         27.4520  -50.0860    6.6980 O.2   179  LYS179     -0.2867
     73  CB        26.4660  -51.2010    9.4530 C.3   179  LYS179      0.0271
     74  CG        25.7910  -51.1350   10.8180 C.3   179  LYS179      0.0035
     75  CD        25.6300  -49.6970   11.2860 C.3   179  LYS179      0.0206
     76  CE        24.9600  -49.6380   12.6510 C.3   179  LYS179      0.1093
     77  NZ        23.5930  -50.2310   12.6090 N.3   179  LYS179     -0.1314
     78  N         15.1370  -52.8500   21.8600 N.3   258  SER258     -0.1202
     79  CA        16.5070  -53.2570   21.5350 C.3   258  SER258      0.2020
     80  C         16.6180  -54.6050   20.8230 C.2   258  SER258      0.2619
     81  O         16.3280  -55.6560   21.4000 O.2   258  SER258     -0.2717
     82  CB        17.3740  -53.2640   22.7980 C.3   258  SER258      0.2103
     83  OG        18.6920  -53.7050   22.5160 O.3   258  SER258     -0.2182
     84  N         17.0360  -54.5550   19.5620 N.am  259  GLY259     -0.1956
     85  CA        17.2390  -55.7560   18.7730 C.3   259  GLY259      0.1869
     86  C         16.0200  -56.1930   17.9830 C.2   259  GLY259      0.2309
     87  O         15.9360  -57.3460   17.5610 O.2   259  GLY259     -0.2863
     88  N         15.1070  -55.1470   14.9980 N.3   261  GLY261     -0.1210
     89  CA        15.5470  -55.3730   13.6330 C.3   261  GLY261      0.1956
     90  C         16.2180  -56.7230   13.4520 C.2   261  GLY261      0.2611
     91  O         16.2060  -57.2880   12.3560 O.2   261  GLY261     -0.2717
     92  N         16.8120  -57.2380   14.5250 N.am  262  ASP262     -0.1973
     93  CA        17.4170  -58.5650   14.4990 C.3   262  ASP262      0.1709
     94  C         16.3400  -59.6240   14.2990 C.2   262  ASP262      0.2293
     95  O         16.4600  -60.4880   13.4310 O.2   262  ASP262     -0.2864
     96  CB        18.1830  -58.8350   15.7960 C.3   262  ASP262      0.1436
     97  CG        19.5190  -58.1210   15.8450 C.2   262  ASP262      0.3671
     98  OD1       19.7670  -57.2570   14.9770 O.co2 262  ASP262     -0.2456
     99  OD2       20.3200  -58.4210   16.7560 O.co2 262  ASP262     -0.2456
    100  N         17.3030  -58.1940   24.8960 N.3   297  THR297     -0.1218
    101  CA        17.4350  -58.8040   23.5790 C.3   297  THR297      0.1862
    102  C         16.8030  -60.1840   23.6000 C.2   297  THR297      0.2287
    103  O         17.4890  -61.1890   23.7910 O.2   297  THR297     -0.2866
    104  CB        18.9070  -58.9580   23.1780 C.3   297  THR297      0.1770
    105  OG1       19.7380  -58.2880   24.1340 O.3   297  THR297     -0.2211
    106  CG2       19.1460  -58.3750   21.7970 C.3   297  THR297      0.0375
@<TRIPOS>BOND
     1    72    71    2
     2    69    70    1
     3    71    70    1
     4    70    73    1
     5    73    74    1
     6    74    75    1
     7    75    76    1
     8    48    49    1
     9    91    90    2
    10    77    76    1
    11    50    49    1
    12    50    51    2
    13    49    52    1
    14    60    61    1
    15    62    63    2
    16    62    61    1
    17    95    94    2
    18    90    89    1
    19    90    92   am
    20    89    88    1
    21    61    64    1
    22    52    53    1
    23    55    57   ar
    24    55    53   ar
    25    94    93    1
    26    57    58   ar
    27    53    54   ar
    28    93    92    1
    29    93    96    1
    30    98    97   ar
    31    58    59    1
    32    58    56   ar
    33    54    56   ar
    34    64    65    1
    35    65    66    1
    36    96    97    1
    37    97    99   ar
    38    66    67    1
    39    15    16    2
    40    15    14    1
    41    67    68    1
    42    14    13    1
    43    87    86    2
    44    86    85    1
    45    85    84    1
    46    13    11   am
    47    12    11    2
    48    84    80   am
    49    11    10    1
    50    25    24    1
    51    80    81    2
    52    80    79    1
    53    24    23    1
    54    10     9    1
    55    47    45    1
    56    79    78    1
    57    79    82    1
    58   106   104    1
    59    46    45    1
    60    23    22    1
    61    45    44    2
    62    83    82    1
    63    22    21    1
    64     8     6   ar
    65   104   101    1
    66   104   105    1
    67     7     6   ar
    68   101   102    1
    69   101   100    1
    70   102   103    2
    71    44    43    1
    72    36    34    1
    73     6     5    1
    74    21    18    1
    75    17    18    1
    76    43    42    1
    77    34    35    1
    78    34    33    2
    79    18    19    1
    80     1     2    1
    81     5     2    1
    82    33    32    1
    83     2     3    1
    84    42    41    1
    85    19    20    2
    86    41    38    1
    87    40    39    2
    88    32    31    1
    89     3     4    2
    90    39    38    1
    91    31    30    1
    92    38    37    1
    93    30    27    1
    94    26    27    1
    95    27    28    1
    96    28    29    2
