@<TRIPOS>MOLECULE
tmp/4e84B01.pdb
 147 132 0 0 0
SMALL
GASTEIGER

@<TRIPOS>ATOM
      1  N         40.7850  -49.6480   42.5190 N.3    22  ASP22      -0.1239
      2  CA        40.3700  -48.4940   41.7280 C.3    22  ASP22       0.1674
      3  C         40.6620  -48.7270   40.2540 C.2    22  ASP22       0.2266
      4  O         41.8130  -48.6710   39.8210 O.2    22  ASP22      -0.2867
      5  CB        41.0810  -47.2250   42.1990 C.3    22  ASP22       0.1410
      6  CG        40.6300  -46.7780   43.5720 C.2    22  ASP22       0.3668
      7  OD1       39.4600  -47.0290   43.9280 O.co2  22  ASP22      -0.2456
      8  OD2       41.4480  -46.1730   44.2950 O.co2  22  ASP22      -0.2456
      9  N         43.3200  -49.1600   46.1960 N.3    51  GLY51      -0.1210
     10  CA        42.4510  -48.2160   46.8720 C.3    51  GLY51       0.1956
     11  C         42.0130  -48.6780   48.2460 C.2    51  GLY51       0.2612
     12  O         42.2710  -49.8150   48.6420 O.2    51  GLY51      -0.2717
     13  N         41.3390  -47.7920   48.9740 N.am   52  GLY52      -0.1956
     14  CA        40.8810  -48.0930   50.3180 C.3    52  GLY52       0.1869
     15  C         42.0430  -48.3090   51.2670 C.2    52  GLY52       0.2309
     16  O         42.9680  -47.5010   51.3220 O.2    52  GLY52      -0.2863
     17  N         45.4060  -48.3610   49.5930 N.3    55  ASN55      -0.1240
     18  CA        45.9120  -47.0320   49.2730 C.3    55  ASN55       0.1653
     19  C         46.6060  -46.4220   50.4800 C.2    55  ASN55       0.2266
     20  O         47.6230  -45.7420   50.3490 O.2    55  ASN55      -0.2867
     21  CB        44.7810  -46.1150   48.8100 C.3    55  ASN55       0.1155
     22  CG        45.2620  -44.7100   48.5060 C.2    55  ASN55       0.2627
     23  OD1       46.3880  -44.5120   48.0490 O.2    55  ASN55      -0.2716
     24  ND2       44.4120  -43.7240   48.7670 N.am   55  ASN55      -0.0877
     25  N         35.9460  -50.1470   42.6810 N.3   106  LYS106     -0.1245
     26  CA        35.3410  -48.8730   42.3190 C.3   106  LYS106      0.1561
     27  C         35.6820  -48.5440   40.8720 C.2   106  LYS106      0.2260
     28  O         36.8220  -48.2060   40.5500 O.2   106  LYS106     -0.2867
     29  CB        35.8330  -47.7640   43.2490 C.3   106  LYS106      0.0271
     30  CG        35.6450  -48.0610   44.7330 C.3   106  LYS106      0.0035
     31  CD        34.1740  -48.1280   45.1180 C.3   106  LYS106      0.0206
     32  CE        34.0110  -48.2470   46.6280 C.3   106  LYS106      0.1093
     33  NZ        32.5850  -48.1630   47.0570 N.3   106  LYS106     -0.1314
     34  N         35.4740  -46.3340   37.6480 N.3   108  ARG108     -0.1245
     35  CA        35.2160  -44.9820   37.1720 C.3   108  ARG108      0.1563
     36  C         35.2600  -44.9110   35.6490 C.2   108  ARG108      0.2260
     37  O         36.2710  -45.2460   35.0280 O.2   108  ARG108     -0.2867
     38  CB        36.2100  -44.0000   37.7950 C.3   108  ARG108      0.0307
     39  CG        36.0870  -43.8950   39.3080 C.3   108  ARG108      0.0489
     40  CD        37.3280  -43.2830   39.9250 C.3   108  ARG108      0.2205
     41  NE        37.2590  -43.2330   41.3830 N.pl3 108  ARG108     -0.0865
     42  CZ        37.5370  -44.2610   42.1810 C.cat 108  ARG108      0.5346
     43  NH1       37.8930  -45.4310   41.6650 N.pl3 108  ARG108      0.1354
     44  NH2       37.4520  -44.1210   43.4970 N.pl3 108  ARG108      0.1354
     45  N         30.3400  -43.7030   38.2800 N.3   118  ARG118     -0.1245
     46  CA        31.1550  -44.6330   39.0480 C.3   118  ARG118      0.1563
     47  C         30.3490  -45.8760   39.4020 C.2   118  ARG118      0.2260
     48  O         29.2620  -45.7820   39.9690 O.2   118  ARG118     -0.2867
     49  CB        31.7190  -43.9810   40.3100 C.3   118  ARG118      0.0307
     50  CG        32.9530  -44.6970   40.8420 C.3   118  ARG118      0.0489
     51  CD        33.4730  -44.0800   42.1250 C.3   118  ARG118      0.2205
     52  NE        32.7320  -44.5480   43.2920 N.pl3 118  ARG118     -0.0865
     53  CZ        33.0240  -44.2090   44.5420 C.cat 118  ARG118      0.5346
     54  NH1       34.0430  -43.3960   44.7860 N.pl3 118  ARG118      0.1354
     55  NH2       32.3000  -44.6820   45.5470 N.pl3 118  ARG118      0.1354
     56  N         30.1080  -49.4070   41.4480 N.3   120  ASP120     -0.1239
     57  CA        30.6450  -50.0450   42.6440 C.3   120  ASP120      0.1674
     58  C         30.1780  -51.4860   42.8110 C.2   120  ASP120      0.2266
     59  O         28.9860  -51.7810   42.7120 O.2   120  ASP120     -0.2867
     60  CB        30.2600  -49.2460   43.8940 C.3   120  ASP120      0.1410
     61  CG        30.9260  -47.8860   43.9520 C.2   120  ASP120      0.3668
     62  OD1       31.4350  -47.4170   42.9120 O.co2 120  ASP120     -0.2456
     63  OD2       30.9350  -47.2790   45.0420 O.co2 120  ASP120     -0.2456
     64  N         35.7020  -48.2830   55.6140 N.3   150  TYR150     -0.1241
     65  CA        34.8810  -47.8010   54.5090 C.3   150  TYR150      0.1605
     66  C         33.5020  -48.4510   54.5380 C.2   150  TYR150      0.2264
     67  O         32.7760  -48.4300   53.5460 O.2   150  TYR150     -0.2867
     68  CB        35.5690  -48.0500   53.1650 C.3   150  TYR150      0.0534
     69  CG        36.6830  -47.0730   52.8800 C.ar  150  TYR150     -0.0201
     70  CD1       36.4270  -45.8710   52.2350 C.ar  150  TYR150     -0.0009
     71  CD2       37.9870  -47.3430   53.2690 C.ar  150  TYR150     -0.0009
     72  CE1       37.4380  -44.9670   51.9790 C.ar  150  TYR150      0.0417
     73  CE2       39.0070  -46.4470   53.0150 C.ar  150  TYR150      0.0417
     74  CZ        38.7260  -45.2610   52.3700 C.ar  150  TYR150      0.1957
     75  OH        39.7330  -44.3600   52.1140 O.3   150  TYR150     -0.2866
     76  N         32.5390  -51.5780   54.5650 N.3   152  LYS152     -0.1245
     77  CA        32.3220  -52.7110   53.6720 C.3   152  LYS152      0.1561
     78  C         32.2540  -54.0090   54.4690 C.2   152  LYS152      0.2260
     79  O         32.1800  -55.0970   53.8990 O.2   152  LYS152     -0.2867
     80  CB        33.4220  -52.7950   52.6140 C.3   152  LYS152      0.0271
     81  CG        33.7070  -51.4800   51.9050 C.3   152  LYS152      0.0035
     82  CD        32.4450  -50.8840   51.2990 C.3   152  LYS152      0.0206
     83  CE        32.7560  -49.6000   50.5450 C.3   152  LYS152      0.1093
     84  NZ        31.5200  -48.8660   50.1600 N.3   152  LYS152     -0.1314
     85  N         40.2980  -44.2300   60.7190 N.3   174  ASP174     -0.1239
     86  CA        39.6240  -43.4780   59.6690 C.3   174  ASP174      0.1674
     87  C         38.1570  -43.8920   59.6800 C.2   174  ASP174      0.2266
     88  O         37.8070  -44.9650   59.1900 O.2   174  ASP174     -0.2867
     89  CB        40.2490  -43.7670   58.3040 C.3   174  ASP174      0.1410
     90  CG        39.7790  -42.8030   57.2360 C.2   174  ASP174      0.3668
     91  OD1       39.6150  -41.6040   57.5470 O.co2 174  ASP174     -0.2456
     92  OD2       39.5700  -43.2390   56.0830 O.co2 174  ASP174     -0.2456
     93  N         33.8700  -44.1980   59.5190 N.3   176  LYS176     -0.1245
     94  CA        32.8260  -44.3070   58.5100 C.3   176  LYS176      0.1561
     95  C         31.5550  -44.8330   59.1730 C.2   176  LYS176      0.2260
     96  O         31.5790  -45.8740   59.8330 O.2   176  LYS176     -0.2867
     97  CB        33.2540  -45.2420   57.3780 C.3   176  LYS176      0.0271
     98  CG        32.3290  -45.2140   56.1710 C.3   176  LYS176      0.0035
     99  CD        32.5050  -43.9300   55.3760 C.3   176  LYS176      0.0206
    100  CE        33.8840  -43.8730   54.7320 C.3   176  LYS176      0.1093
    101  NZ        34.0670  -42.6530   53.8940 N.3   176  LYS176     -0.1314
    102  N         36.6070  -36.5040   58.0220 N.3   192  ASN192     -0.1240
    103  CA        36.4170  -35.2680   57.2760 C.3   192  ASN192      0.1653
    104  C         35.1360  -34.6020   57.7700 C.2   192  ASN192      0.2266
    105  O         34.4950  -35.1150   58.6870 O.2   192  ASN192     -0.2867
    106  CB        36.3980  -35.5110   55.7600 C.3   192  ASN192      0.1155
    107  CG        35.3230  -36.4990   55.3230 C.2   192  ASN192      0.2627
    108  OD1       34.3360  -36.7260   56.0240 O.2   192  ASN192     -0.2716
    109  ND2       35.5100  -37.0830   54.1440 N.am  192  ASN192     -0.0877
    110  N         31.9380  -36.8790   57.5610 N.3   195  GLU195     -0.1245
    111  CA        31.9690  -37.9760   58.5240 C.3   195  GLU195      0.1567
    112  C         31.7310  -37.4980   59.9580 C.2   195  GLU195      0.2260
    113  O         31.0370  -38.1600   60.7300 O.2   195  GLU195     -0.2867
    114  CB        33.2900  -38.7440   58.4240 C.3   195  GLU195      0.0388
    115  CG        33.4510  -39.5450   57.1360 C.3   195  GLU195      0.1160
    116  CD        34.9030  -39.8560   56.8210 C.2   195  GLU195      0.3649
    117  OE1       35.7920  -39.3030   57.5030 O.co2 195  GLU195     -0.2457
    118  OE2       35.1590  -40.6490   55.8890 O.co2 195  GLU195     -0.2457
    119  N         40.5770  -37.1730   45.3320 N.3   255  SER255     -0.1202
    120  CA        40.2560  -38.5360   45.7670 C.3   255  SER255      0.2020
    121  C         41.3950  -39.2970   46.4550 C.2   255  SER255      0.2619
    122  O         42.4670  -39.4940   45.8820 O.2   255  SER255     -0.2717
    123  CB        39.7240  -39.3510   44.5830 C.3   255  SER255      0.2103
    124  OG        39.4760  -40.6940   44.9610 O.3   255  SER255     -0.2182
    125  N         41.1430  -39.7170   47.6920 N.am  256  GLY256     -0.1956
    126  CA        42.1040  -40.4920   48.4570 C.3   256  GLY256      0.1869
    127  C         43.0380  -39.6740   49.3300 C.2   256  GLY256      0.2309
    128  O         43.9310  -40.2270   49.9720 O.2   256  GLY256     -0.2863
    129  N         42.4400  -38.1590   52.0760 N.3   258  GLY258     -0.1210
    130  CA        42.2460  -38.5480   53.4600 C.3   258  GLY258      0.1956
    131  C         43.0800  -39.7600   53.8350 C.2   258  GLY258      0.2611
    132  O         43.5090  -39.8950   54.9810 O.2   258  GLY258     -0.2717
    133  N         43.3070  -40.6460   52.8680 N.am  259  ASP259     -0.1973
    134  CA        44.1430  -41.8200   53.0900 C.3   259  ASP259      0.1709
    135  C         45.5900  -41.4000   53.2950 C.2   259  ASP259      0.2293
    136  O         46.2870  -41.9250   54.1630 O.2   259  ASP259     -0.2864
    137  CB        44.0510  -42.7830   51.9060 C.3   259  ASP259      0.1436
    138  CG        42.7170  -43.4920   51.8320 C.2   259  ASP259      0.3671
    139  OD1       42.0490  -43.6150   52.8810 O.co2 259  ASP259     -0.2456
    140  OD2       42.3430  -43.9350   50.7250 O.co2 259  ASP259     -0.2456
    141  N         44.2330  -41.8760   42.7580 N.3   294  THR294     -0.1218
    142  CA        44.5640  -42.1110   44.1580 C.3   294  THR294      0.1862
    143  C         46.0540  -42.3880   44.2920 C.2   294  THR294      0.2287
    144  O         46.4720  -43.5290   44.5000 O.2   294  THR294     -0.2866
    145  CB        43.7650  -43.2900   44.7310 C.3   294  THR294      0.1770
    146  OG1       44.1440  -44.4980   44.0580 O.3   294  THR294     -0.2211
    147  CG2       42.2730  -43.0530   44.5410 C.3   294  THR294      0.0375
@<TRIPOS>BOND
     1    37    36    2
     2    36    35    1
     3    35    34    1
     4    35    38    1
     5    38    39    1
     6    45    46    1
     7    46    47    1
     8    46    49    1
     9    39    40    1
    10    47    48    2
    11     4     3    2
    12    40    41    1
    13     3     2    1
    14    49    50    1
    15    28    27    2
    16    50    51    1
    17    27    26    1
    18    41    42    2
    19    56    57    1
    20    43    42    1
    21     2     5    1
    22     2     1    1
    23    51    52    1
    24    42    44    1
    25     5     6    1
    26    26    25    1
    27    26    29    1
    28    57    58    1
    29    57    60    1
    30    59    58    2
    31   141   142    1
    32    62    61   ar
    33    29    30    1
    34    52    53    2
    35     6     7   ar
    36     6     8   ar
    37    60    61    1
    38    61    63   ar
    39   146   145    1
    40   142   143    1
    41   142   145    1
    42   143   144    2
    43   147   145    1
    44    53    54    1
    45    53    55    1
    46   123   124    1
    47   123   120    1
    48    30    31    1
    49    31    32    1
    50   119   120    1
    51   120   121    1
    52   122   121    2
    53     9    10    1
    54   121   125   am
    55    32    33    1
    56    10    11    1
    57   125   126    1
    58    23    22    2
    59    11    12    2
    60    11    13   am
    61   126   127    1
    62    22    24   am
    63    22    21    1
    64    21    18    1
    65    13    14    1
    66    18    17    1
    67    18    19    1
    68   127   128    2
    69    84    83    1
    70    14    15    1
    71    20    19    2
    72    83    82    1
    73   140   138   ar
    74    15    16    2
    75    82    81    1
    76   138   137    1
    77   138   139   ar
    78    81    80    1
    79   137   134    1
    80    72    70   ar
    81    72    74   ar
    82   129   130    1
    83    75    74    1
    84    70    69   ar
    85    74    73   ar
    86    80    77    1
    87   133   134    1
    88   133   131   am
    89    69    68    1
    90    69    71   ar
    91    73    71   ar
    92   134   135    1
    93    68    65    1
    94   135   136    2
    95   130   131    1
    96    67    66    2
    97    77    78    1
    98    77    76    1
    99   131   132    2
   100   101   100    1
   101    79    78    2
   102   109   107   am
   103    65    66    1
   104    65    64    1
   105   100    99    1
   106   107   106    1
   107   107   108    2
   108    99    98    1
   109   106   103    1
   110   118   116   ar
   111    92    90   ar
   112    98    97    1
   113   116   115    1
   114   116   117   ar
   115   115   114    1
   116    90    91   ar
   117    90    89    1
   118   103   104    1
   119   103   102    1
   120    97    94    1
   121   110   111    1
   122   104   105    2
   123    89    86    1
   124   114   111    1
   125    94    95    1
   126    94    93    1
   127   111   112    1
   128    95    96    2
   129    88    87    2
   130    86    87    1
   131    86    85    1
   132   112   113    2
