@<TRIPOS>MOLECULE
tmp/4e84A00.pdb
 133 120 0 0 0
SMALL
GASTEIGER

@<TRIPOS>ATOM
      1  N         21.7280  -56.9560    6.7460 N.3   177  ASP177     -0.1239
      2  CA        21.4480  -55.9100    7.7210 C.3   177  ASP177      0.1674
      3  C         22.5760  -54.8900    7.6170 C.2   177  ASP177      0.2266
      4  O         23.6880  -55.1440    8.0710 O.2   177  ASP177     -0.2867
      5  CB        21.3820  -56.4880    9.1340 C.3   177  ASP177      0.1410
      6  CG        20.7360  -55.5360   10.1270 C.2   177  ASP177      0.3668
      7  OD1       20.1200  -56.0230   11.0970 O.co2 177  ASP177     -0.2456
      8  OD2       20.8420  -54.3050    9.9430 O.co2 177  ASP177     -0.2456
      9  N         17.0350  -49.8330    8.9500 N.3   195  ASN195     -0.1240
     10  CA        16.0680  -49.0100    9.6590 C.3   195  ASN195      0.1653
     11  C         16.0720  -47.6190    9.0420 C.2   195  ASN195      0.2266
     12  O         16.8040  -47.3700    8.0810 O.2   195  ASN195     -0.2867
     13  CB        16.3310  -48.9760   11.1730 C.3   195  ASN195      0.1155
     14  CG        17.7330  -48.4910   11.5320 C.2   195  ASN195      0.2627
     15  OD1       18.3210  -47.6600   10.8400 O.2   195  ASN195     -0.2716
     16  ND2       18.2660  -49.0080   12.6340 N.am  195  ASN195     -0.0877
     17  N         19.5770  -45.9360    9.0970 N.3   198  GLU198     -0.1245
     18  CA        20.5260  -46.5880    8.1980 C.3   198  GLU198      0.1567
     19  C         20.2750  -46.2100    6.7380 C.2   198  GLU198      0.2260
     20  O         21.2170  -46.0300    5.9640 O.2   198  GLU198     -0.2867
     21  CB        20.4890  -48.1070    8.3840 C.3   198  GLU198      0.0388
     22  CG        21.1490  -48.5860    9.6700 C.3   198  GLU198      0.1160
     23  CD        20.6460  -49.9460   10.1140 C.2   198  GLU198      0.3649
     24  OE1       19.5110  -50.3100    9.7440 O.co2 198  GLU198     -0.2457
     25  OE2       21.3870  -50.6470   10.8340 O.co2 198  GLU198     -0.2457
     26  N         12.4950  -50.9090    7.9720 N.3   231  THR231     -0.1218
     27  CA        11.8260  -50.9210    9.2680 C.3   231  THR231      0.1862
     28  C         11.7440  -49.4960    9.7920 C.2   231  THR231      0.2287
     29  O         12.7260  -48.7550    9.7510 O.2   231  THR231     -0.2866
     30  CB        12.5590  -51.8040   10.2930 C.3   231  THR231      0.1770
     31  OG1       13.8940  -51.3200   10.4810 O.3   231  THR231     -0.2211
     32  CG2       12.6140  -53.2430    9.8130 C.3   231  THR231      0.0375
     33  N         10.2730  -48.4200   12.9640 N.3   233  SER233     -0.1202
     34  CA         9.8740  -48.3650   14.3670 C.3   233  SER233      0.2020
     35  C          8.3670  -48.4830   14.5770 C.2   233  SER233      0.2618
     36  O          7.7520  -49.4820   14.2030 O.2   233  SER233     -0.2717
     37  CB        10.3930  -47.0760   15.0090 C.3   233  SER233      0.2103
     38  OG        11.8050  -46.9960   14.9240 O.3   233  SER233     -0.2182
     39  N          7.7810  -47.4550   15.1830 N.am  234  GLU234     -0.1979
     40  CA         6.3500  -47.4460   15.4840 C.3   234  GLU234      0.1602
     41  C          5.4880  -47.2910   14.2320 C.2   234  GLU234      0.2287
     42  O          4.2680  -47.4460   14.2870 O.2   234  GLU234     -0.2864
     43  CB         6.0070  -46.3460   16.4940 C.3   234  GLU234      0.0415
     44  CG         6.0560  -44.9330   15.9320 C.3   234  GLU234      0.1163
     45  CD         7.4680  -44.4090   15.7780 C.2   234  GLU234      0.3649
     46  OE1        8.3670  -44.9020   16.4930 O.co2 234  GLU234     -0.2457
     47  OE2        7.6830  -43.5050   14.9420 O.co2 234  GLU234     -0.2457
     48  N          6.0040  -49.2410   11.7690 N.3   236  GLY236     -0.1225
     49  CA         5.9980  -50.5930   11.2480 C.3   236  GLY236      0.1811
     50  C          7.1380  -50.8030   10.2750 C.2   236  GLY236      0.2280
     51  O          8.3030  -50.6060   10.6210 O.2   236  GLY236     -0.2866
     52  N          2.8730  -51.1160   12.8050 N.3   249  ALA249     -0.1231
     53  CA         3.3060  -51.7230   14.0560 C.3   249  ALA249      0.1694
     54  C          2.1280  -52.4120   14.7370 C.2   249  ALA249      0.2592
     55  O          1.0130  -51.8890   14.7440 O.2   249  ALA249     -0.2718
     56  CB         3.9130  -50.6770   14.9670 C.3   249  ALA249      0.0304
     57  N          2.3780  -53.5860   15.3070 N.am  250  LEU250     -0.1966
     58  CA         1.3050  -54.4070   15.8580 C.3   250  LEU250      0.1728
     59  C          1.3560  -54.5280   17.3780 C.2   250  LEU250      0.2616
     60  O          0.3700  -54.9050   18.0090 O.2   250  LEU250     -0.2715
     61  CB         1.3310  -55.8020   15.2290 C.3   250  LEU250      0.0311
     62  CG         1.1710  -55.8530   13.7090 C.3   250  LEU250      0.0022
     63  CD1        1.1890  -57.2930   13.2180 C.3   250  LEU250      0.0001
     64  CD2       -0.1060  -55.1480   13.2800 C.3   250  LEU250      0.0001
     65  N          2.5060  -54.2060   17.9600 N.am  251  ALA251     -0.1977
     66  CA         2.7080  -54.3340   19.4000 C.3   251  ALA251      0.1597
     67  C          1.7440  -53.4690   20.2150 C.2   251  ALA251      0.2287
     68  O          1.7190  -52.2470   20.0690 O.2   251  ALA251     -0.2864
     69  CB         4.1480  -53.9930   19.7540 C.3   251  ALA251      0.0319
     70  N          4.7310  -51.9910   24.3790 N.3   254  VAL254     -0.1245
     71  CA         6.1100  -51.7080   24.0110 C.3   254  VAL254      0.1561
     72  C          6.9610  -51.5480   25.2620 C.2   254  VAL254      0.2260
     73  O          6.9340  -50.5060   25.9150 O.2   254  VAL254     -0.2867
     74  CB         6.2150  -50.4350   23.1530 C.3   254  VAL254      0.0252
     75  CG1        7.6630  -50.1670   22.7800 C.3   254  VAL254      0.0019
     76  CG2        5.3550  -50.5720   21.9040 C.3   254  VAL254      0.0019
     77  N         12.7050  -52.3260   22.9490 N.3   257  VAL257     -0.1231
     78  CA        12.7680  -52.4240   21.4960 C.3   257  VAL257      0.1692
     79  C         14.1160  -52.9720   21.0120 C.2   257  VAL257      0.2593
     80  O         14.2160  -53.5100   19.9060 O.2   257  VAL257     -0.2718
     81  CB        12.4710  -51.0410   20.8610 C.3   257  VAL257      0.0266
     82  CG1       12.6040  -51.0770   19.3490 C.3   257  VAL257      0.0020
     83  CG2       11.0770  -50.5700   21.2550 C.3   257  VAL257      0.0020
     84  N         15.1370  -52.8500   21.8600 N.am  258  SER258     -0.1938
     85  CA        16.5070  -53.2570   21.5350 C.3   258  SER258      0.2055
     86  C         16.6180  -54.6050   20.8230 C.2   258  SER258      0.2644
     87  O         16.3280  -55.6560   21.4000 O.2   258  SER258     -0.2714
     88  CB        17.3740  -53.2640   22.7980 C.3   258  SER258      0.2130
     89  OG        18.6920  -53.7050   22.5160 O.3   258  SER258     -0.2179
     90  N         17.0360  -54.5550   19.5620 N.am  259  GLY259     -0.1939
     91  CA        17.2390  -55.7560   18.7730 C.3   259  GLY259      0.2014
     92  C         16.0200  -56.1930   17.9830 C.2   259  GLY259      0.2639
     93  O         15.9360  -57.3460   17.5610 O.2   259  GLY259     -0.2714
     94  N         15.0760  -55.2800   17.7770 N.am  260  ALA260     -0.1963
     95  CA        13.8620  -55.6020   17.0340 C.3   260  ALA260      0.1728
     96  C         14.1670  -55.8960   15.5660 C.2   260  ALA260      0.2616
     97  O         13.5670  -56.7860   14.9670 O.2   260  ALA260     -0.2715
     98  CB        12.8410  -54.4810   17.1600 C.3   260  ALA260      0.0334
     99  N         15.1070  -55.1470   14.9980 N.am  261  GLY261     -0.1955
    100  CA        15.5470  -55.3730   13.6330 C.3   261  GLY261      0.1869
    101  C         16.2180  -56.7230   13.4520 C.2   261  GLY261      0.2309
    102  O         16.2060  -57.2880   12.3560 O.2   261  GLY261     -0.2863
    103  N         13.4410  -59.1570   13.0830 N.3   264  VAL264     -0.1245
    104  CA        12.8800  -58.9210   11.7580 C.3   264  VAL264      0.1561
    105  C         13.6060  -59.6910   10.6520 C.2   264  VAL264      0.2260
    106  O         12.9990  -60.5090    9.9590 O.2   264  VAL264     -0.2867
    107  CB        12.8690  -57.4150   11.4140 C.3   264  VAL264      0.0252
    108  CG1       12.6700  -57.2030    9.9240 C.3   264  VAL264      0.0019
    109  CG2       11.7920  -56.6970   12.2100 C.3   264  VAL264      0.0019
    110  N          6.9280  -58.8450   10.7210 N.3   285  ASN285     -0.1240
    111  CA         6.2970  -57.7240   11.4020 C.3   285  ASN285      0.1653
    112  C          5.5120  -58.1870   12.6170 C.2   285  ASN285      0.2266
    113  O          5.3810  -57.4600   13.6010 O.2   285  ASN285     -0.2867
    114  CB         5.3780  -56.9550   10.4530 C.3   285  ASN285      0.1155
    115  CG         4.8180  -55.6980   11.0840 C.2   285  ASN285      0.2627
    116  OD1        5.5500  -54.7410   11.3390 O.2   285  ASN285     -0.2716
    117  ND2        3.5150  -55.6900   11.3360 N.am  285  ASN285     -0.0877
    118  N          8.2800  -59.0640   15.2540 N.3   288  ALA288     -0.1231
    119  CA         8.8230  -57.8330   15.8150 C.3   288  ALA288      0.1694
    120  C          7.8760  -57.2490   16.8540 C.2   288  ALA288      0.2592
    121  O          8.3100  -56.7810   17.9080 O.2   288  ALA288     -0.2718
    122  CB         9.0870  -56.8220   14.7130 C.3   288  ALA288      0.0304
    123  N          6.5810  -57.2830   16.5530 N.am  289  GLY289     -0.1957
    124  CA         5.5710  -56.7820   17.4640 C.3   289  GLY289      0.1869
    125  C          5.5200  -57.5810   18.7510 C.2   289  GLY289      0.2309
    126  O          5.2060  -57.0460   19.8150 O.2   289  GLY289     -0.2863
    127  N          8.9920  -57.0540   20.8680 N.3   292  VAL292     -0.1245
    128  CA         9.0400  -55.7160   21.4380 C.3   292  VAL292      0.1561
    129  C          8.4200  -55.6990   22.8430 C.2   292  VAL292      0.2260
    130  O          8.8600  -54.9560   23.7240 O.2   292  VAL292     -0.2867
    131  CB         8.3710  -54.6930   20.4840 C.3   292  VAL292      0.0252
    132  CG1        7.7280  -53.5530   21.2490 C.3   292  VAL292      0.0019
    133  CG2        9.3880  -54.1720   19.4700 C.3   292  VAL292      0.0019
@<TRIPOS>BOND
     1    20    19    2
     2    19    18    1
     3     1     2    1
     4     3     2    1
     5     3     4    2
     6     2     5    1
     7    26    27    1
     8    12    11    2
     9    18    21    1
    10    18    17    1
    11    21    22    1
    12     9    10    1
    13    11    10    1
    14     5     6    1
    15    27    28    1
    16    27    30    1
    17    10    13    1
    18    22    23    1
    19    24    23   ar
    20    29    28    2
    21    32    30    1
    22   108   107    1
    23     8     6   ar
    24   106   105    2
    25    23    25   ar
    26     6     7   ar
    27    50    51    2
    28    50    49    1
    29    30    31    1
    30   114   115    1
    31   114   111    1
    32   105   104    1
    33   110   111    1
    34    15    14    2
    35   115   117   am
    36   115   116    2
    37    13    14    1
    38    49    48    1
    39   111   112    1
    40   107   104    1
    41   107   109    1
    42    14    16   am
    43   104   103    1
    44   102   101    2
    45   112   113    2
    46    52    53    1
    47    33    34    1
    48    63    62    1
    49    64    62    1
    50   101   100    1
    51   100    99    1
    52    62    61    1
    53    53    54    1
    54    53    56    1
    55    36    35    2
    56    41    42    2
    57    41    40    1
    58    34    35    1
    59    34    37    1
    60    35    39   am
    61   122   119    1
    62    54    55    2
    63    54    57   am
    64    38    37    1
    65    47    45   ar
    66    97    96    2
    67    99    96   am
    68    39    40    1
    69    61    58    1
    70   118   119    1
    71    57    58    1
    72    40    43    1
    73    96    95    1
    74    45    44    1
    75    45    46   ar
    76   119   120    1
    77    58    59    1
    78    44    43    1
    79   123   120   am
    80   123   124    1
    81   120   121    2
    82    95    98    1
    83    95    94    1
    84    59    65   am
    85    59    60    2
    86   124   125    1
    87    93    92    2
    88    94    92   am
    89    65    66    1
    90    92    91    1
    91   125   126    2
    92    91    90    1
    93    82    81    1
    94    66    69    1
    95    66    67    1
    96   133   131    1
    97    90    86   am
    98    80    79    2
    99    68    67    2
   100   131   132    1
   101   131   128    1
   102    86    87    2
   103    86    85    1
   104    81    83    1
   105    81    78    1
   106   127   128    1
   107    79    78    1
   108    79    84   am
   109   128   129    1
   110    78    77    1
   111    85    84    1
   112    85    88    1
   113    76    74    1
   114    89    88    1
   115    75    74    1
   116   129   130    2
   117    74    71    1
   118    71    70    1
   119    71    72    1
   120    72    73    2
