@<TRIPOS>MOLECULE
tmp/4e8aA00.pdb
 120 113 0 0 0
SMALL
GASTEIGER

@<TRIPOS>ATOM
      1  N         -1.6750    2.3040  -28.1230 N.3   167  PRO167     -0.2102
      2  CA        -2.0900    1.9880  -29.4950 C.3   167  PRO167      0.1504
      3  C         -1.8160    3.1130  -30.4870 C.2   167  PRO167      0.2575
      4  O         -1.5680    2.8270  -31.6640 O.2   167  PRO167     -0.2718
      5  CB        -3.5940    1.7400  -29.3750 C.3   167  PRO167      0.0282
      6  CG        -3.8330    1.4900  -27.9070 C.3   167  PRO167      0.0208
      7  CD        -2.8260    2.3250  -27.2010 C.3   167  PRO167      0.0893
      8  N         -1.8350    4.3720  -30.0430 N.am  168  GLU168     -0.1980
      9  CA        -1.4130    5.4460  -30.9350 C.3   168  GLU168      0.1602
     10  C          0.0600    5.2780  -31.2870 C.2   168  GLU168      0.2287
     11  O          0.4840    5.6560  -32.3750 O.2   168  GLU168     -0.2864
     12  CB        -1.6650    6.8400  -30.3500 C.3   168  GLU168      0.0415
     13  CG        -1.0840    7.0840  -28.9620 C.3   168  GLU168      0.1163
     14  CD        -2.0780    6.8000  -27.8420 C.2   168  GLU168      0.3649
     15  OE1       -3.0070    5.9980  -28.0320 O.co2 168  GLU168     -0.2457
     16  OE2       -1.9330    7.3860  -26.7560 O.co2 168  GLU168     -0.2457
     17  N          0.3100    2.2110  -33.8200 N.3   171  LEU171     -0.1231
     18  CA        -0.2280    2.4060  -35.1380 C.3   171  LEU171      0.1693
     19  C          0.3200    3.6830  -35.7330 C.2   171  LEU171      0.2592
     20  O         -0.2860    4.2600  -36.6280 O.2   171  LEU171     -0.2718
     21  CB        -1.7510    2.3430  -35.1170 C.3   171  LEU171      0.0284
     22  CG        -2.3000    1.1630  -34.2940 C.3   171  LEU171      0.0019
     23  CD1       -3.7790    1.0330  -34.5150 C.3   171  LEU171      0.0001
     24  CD2       -1.5920   -0.1710  -34.5890 C.3   171  LEU171      0.0001
     25  N          1.4950    4.0810  -35.2320 N.am  172  ASN172     -0.1960
     26  CA         2.2640    5.2460  -35.6910 C.3   172  ASN172      0.1819
     27  C          1.5540    6.6090  -35.5520 C.2   172  ASN172      0.2621
     28  O          2.1120    7.6470  -35.9210 O.2   172  ASN172     -0.2715
     29  CB         2.7350    5.0480  -37.1430 C.3   172  ASN172      0.1195
     30  CG         3.9300    4.0970  -37.2820 C.2   172  ASN172      0.2630
     31  OD1        4.3110    3.7250  -38.4060 O.2   172  ASN172     -0.2716
     32  ND2        4.5400    3.7180  -36.1530 N.am  172  ASN172     -0.0877
     33  N          0.3380    6.5910  -35.0090 N.am  173  TRP173     -0.1960
     34  CA        -0.6020    7.7080  -35.0290 C.3   173  TRP173      0.1771
     35  C          0.0150    9.0370  -34.5620 C.2   173  TRP173      0.2619
     36  O          0.7540    9.0870  -33.5760 O.2   173  TRP173     -0.2715
     37  CB        -1.8040    7.3000  -34.1930 C.3   173  TRP173      0.0590
     38  CG        -3.0760    8.0750  -34.3470 C.ar  173  TRP173      0.0006
     39  CD1       -4.0910    8.1790  -33.4070 C.ar  173  TRP173      0.0946
     40  CD2       -3.4990    8.8340  -35.4760 C.ar  173  TRP173      0.0152
     41  NE1       -5.1120    8.9510  -33.8990 N.ar  173  TRP173     -0.2442
     42  CE2       -4.7770    9.3680  -35.1650 C.ar  173  TRP173      0.0810
     43  CE3       -2.9290    9.1230  -36.7200 C.ar  173  TRP173      0.0012
     44  CZ2       -5.4930   10.1750  -36.0640 C.ar  173  TRP173      0.0191
     45  CZ3       -3.6410    9.9270  -37.6170 C.ar  173  TRP173      0.0001
     46  CH2       -4.9100   10.4490  -37.2810 C.ar  173  TRP173      0.0015
     47  N         -0.2650   10.1060  -35.3020 N.am  174  MET174     -0.1977
     48  CA         0.2940   11.4250  -35.0020 C.3   174  MET174      0.1605
     49  C         -0.3660   12.0740  -33.8090 C.2   174  MET174      0.2287
     50  O          0.2700   12.8680  -33.1110 O.2   174  MET174     -0.2864
     51  CB         0.2030   12.3520  -36.2160 C.3   174  MET174      0.0413
     52  CG         1.3730   12.1750  -37.1710 C.3   174  MET174      0.0598
     53  SD         0.8360   12.2330  -38.8910 S.3   174  MET174     -0.1393
     54  CE         2.2100   11.3900  -39.7320 C.3   174  MET174      0.0692
     55  N         -3.9750   -5.3060  -30.9220 N.3   208  LEU208     -0.1245
     56  CA        -5.0090   -4.3100  -31.0810 C.3   208  LEU208      0.1561
     57  C         -6.4480   -4.8740  -30.9320 C.2   208  LEU208      0.2260
     58  O         -7.3170   -4.2210  -30.3230 O.2   208  LEU208     -0.2867
     59  CB        -4.8010   -3.5750  -32.4070 C.3   208  LEU208      0.0270
     60  CG        -5.8360   -2.5310  -32.7930 C.3   208  LEU208      0.0019
     61  CD1       -5.6420   -1.2180  -32.0160 C.3   208  LEU208      0.0001
     62  CD2       -5.7990   -2.3170  -34.3110 C.3   208  LEU208      0.0001
     63  N         -9.1420   -3.4440  -28.3540 N.3   212  LEU212     -0.1245
     64  CA       -10.4950   -3.0510  -28.7330 C.3   212  LEU212      0.1561
     65  C        -11.6060   -3.8730  -28.0860 C.2   212  LEU212      0.2260
     66  O        -12.7480   -3.4320  -27.9930 O.2   212  LEU212     -0.2867
     67  CB       -10.6570   -2.9920  -30.2490 C.3   212  LEU212      0.0270
     68  CG        -9.8910   -1.8730  -30.9710 C.3   212  LEU212      0.0019
     69  CD1      -10.5670   -1.6380  -32.2950 C.3   212  LEU212      0.0001
     70  CD2       -9.8200   -0.5700  -30.1500 C.3   212  LEU212      0.0001
     71  N        -13.9060    2.7470  -31.5040 N.3   218  PRO218     -0.2116
     72  CA       -13.8800    4.1990  -31.2660 C.3   218  PRO218      0.1372
     73  C        -15.2610    4.8070  -31.3300 C.2   218  PRO218      0.2244
     74  O        -16.0460    4.4210  -32.1840 O.2   218  PRO218     -0.2868
     75  CB       -13.0260    4.7270  -32.4230 C.3   218  PRO218      0.0268
     76  CG       -12.2180    3.5570  -32.8780 C.3   218  PRO218      0.0207
     77  CD       -13.1320    2.3860  -32.7050 C.3   218  PRO218      0.0892
     78  N        -14.0800   10.0750  -31.3990 N.3   222  LEU222     -0.1245
     79  CA       -12.8080    9.5400  -31.8830 C.3   222  LEU222      0.1561
     80  C        -12.6730    9.3950  -33.4170 C.2   222  LEU222      0.2260
     81  O        -11.5940    9.6150  -33.9290 O.2   222  LEU222     -0.2867
     82  CB       -12.4240    8.2540  -31.1620 C.3   222  LEU222      0.0270
     83  CG       -10.9510    7.8710  -31.3250 C.3   222  LEU222      0.0019
     84  CD1      -10.0220    9.0160  -30.9950 C.3   222  LEU222      0.0001
     85  CD2      -10.6020    6.7080  -30.4490 C.3   222  LEU222      0.0001
     86  N         -9.6940   10.8170  -37.0420 N.3   226  ILE226     -0.1245
     87  CA        -8.9430    9.9710  -37.9700 C.3   226  ILE226      0.1561
     88  C         -9.0270   10.6020  -39.3480 C.2   226  ILE226      0.2260
     89  O        -10.1260   10.8000  -39.8640 O.2   226  ILE226     -0.2867
     90  CB        -9.5190    8.5300  -37.9690 C.3   226  ILE226      0.0252
     91  CG1       -9.2580    7.8910  -36.6010 C.3   226  ILE226      0.0019
     92  CG2       -8.9170    7.6760  -39.0780 C.3   226  ILE226      0.0019
     93  CD1      -10.2480    6.8450  -36.2310 C.3   226  ILE226      0.0001
     94  N         -7.1510    9.6100  -42.4540 N.3   228  SER228     -0.1217
     95  CA        -7.1700    8.6140  -43.5490 C.3   228  SER228      0.1889
     96  C         -8.5640    8.0340  -43.7900 C.2   228  SER228      0.2288
     97  O         -9.2090    7.5430  -42.8630 O.2   228  SER228     -0.2866
     98  CB        -6.1830    7.4620  -43.2900 C.3   228  SER228      0.2089
     99  OG        -5.0540    7.8440  -42.5070 O.3   228  SER228     -0.2183
    100  N         -8.2230    4.1820  -43.2970 N.3   231  ALA231     -0.1245
    101  CA        -8.1320    3.9710  -41.8430 C.3   231  ALA231      0.1562
    102  C         -9.4960    4.0290  -41.1790 C.2   231  ALA231      0.2260
    103  O         -9.8620    3.1150  -40.4240 O.2   231  ALA231     -0.2867
    104  CB        -7.2130    4.9840  -41.2150 C.3   231  ALA231      0.0290
    105  N        -11.2930    0.7530  -39.5890 N.3   235  ILE235     -0.1245
    106  CA       -11.6180    0.7050  -38.1620 C.3   235  ILE235      0.1561
    107  C        -13.0670    0.2540  -37.9410 C.2   235  ILE235      0.2260
    108  O        -13.3270   -0.6580  -37.1470 O.2   235  ILE235     -0.2867
    109  CB       -11.2610    2.0450  -37.4490 C.3   235  ILE235      0.0252
    110  CG1       -9.7940    2.0050  -37.0150 C.3   235  ILE235      0.0019
    111  CG2      -12.1520    2.3020  -36.2500 C.3   235  ILE235      0.0019
    112  CD1       -9.0230    3.2880  -37.2320 C.3   235  ILE235      0.0001
    113  N         -8.9640    4.9850  -25.3530 N.3   267  LEU267     -0.1245
    114  CA        -8.4250    4.9990  -26.6880 C.3   267  LEU267      0.1561
    115  C         -7.9750    6.4000  -27.1200 C.2   267  LEU267      0.2260
    116  O         -6.8600    6.5680  -27.6240 O.2   267  LEU267     -0.2867
    117  CB        -9.4570    4.4120  -27.6330 C.3   267  LEU267      0.0270
    118  CG        -8.9220    3.4430  -28.6760 C.3   267  LEU267      0.0019
    119  CD1       -7.9660    2.4360  -28.0720 C.3   267  LEU267      0.0001
    120  CD2      -10.0970    2.7530  -29.2470 C.3   267  LEU267      0.0001
@<TRIPOS>BOND
     1    96    95    1
     2    96    97    2
     3    95    98    1
     4    95    94    1
     5   100   101    1
     6    98    99    1
     7   101   104    1
     8   101   102    1
     9   102   103    2
    10    89    88    2
    11    54    53    1
    12   105   106    1
    13    88    87    1
    14    92    90    1
    15    53    52    1
    16    31    30    2
    17   106   107    1
    18   106   109    1
    19    87    90    1
    20    87    86    1
    21    90    91    1
    22   107   108    2
    23    45    46   ar
    24    45    43   ar
    25   109   110    1
    26   109   111    1
    27    30    29    1
    28    30    32   am
    29    46    44   ar
    30   112   110    1
    31    52    51    1
    32    29    26    1
    33    43    40   ar
    34    20    19    2
    35    91    93    1
    36    51    48    1
    37    44    42   ar
    38    28    27    2
    39    19    25   am
    40    19    18    1
    41    26    27    1
    42    26    25    1
    43    27    33   am
    44    40    42   ar
    45    40    38   ar
    46    47    48    1
    47    47    35   am
    48    42    41   ar
    49    18    21    1
    50    18    17    1
    51    21    22    1
    52    34    33    1
    53    34    35    1
    54    34    37    1
    55    48    49    1
    56    24    22    1
    57    35    36    2
    58    23    22    1
    59    38    37    1
    60    38    39   ar
    61    62    60    1
    62    81    80    2
    63    41    39   ar
    64    49    50    2
    65    80    79    1
    66    76    77    1
    67    76    75    1
    68    60    59    1
    69    60    61    1
    70    77    71    1
    71    75    72    1
    72    59    56    1
    73    11    10    2
    74    69    68    1
    75    74    73    2
    76    79    78    1
    77    79    82    1
    78     4     3    2
    79    71    72    1
    80    73    72    1
    81    83    82    1
    82    83    84    1
    83    83    85    1
    84    10     9    1
    85    56    57    1
    86    56    55    1
    87    68    67    1
    88    68    70    1
    89     9    12    1
    90     9     8    1
    91    57    58    2
    92     3     8   am
    93     3     2    1
    94    12    13    1
    95    67    64    1
    96     2     5    1
    97     2     1    1
    98     5     6    1
    99   120   118    1
   100    13    14    1
   101    64    63    1
   102    64    65    1
   103   118   119    1
   104   118   117    1
   105     1     7    1
   106    65    66    2
   107    15    14   ar
   108     6     7    1
   109    14    16   ar
   110   117   114    1
   111   116   115    2
   112   115   114    1
   113   114   113    1
