@<TRIPOS>MOLECULE
tmp/4e8cA00.pdb
 141 141 0 0 0
SMALL
GASTEIGER

@<TRIPOS>ATOM
      1  N         11.1390    4.5380   49.2290 N.3    51  TYR51      -0.1241
      2  CA        10.5610    5.4180   48.2380 C.3    51  TYR51       0.1605
      3  C          9.6980    6.4430   48.9560 C.2    51  TYR51       0.2264
      4  O          9.3460    6.2650   50.1090 O.2    51  TYR51      -0.2867
      5  CB         9.6270    4.6230   47.3080 C.3    51  TYR51       0.0534
      6  CG        10.3180    3.8190   46.2310 C.ar   51  TYR51      -0.0201
      7  CD1       11.3190    4.3820   45.4470 C.ar   51  TYR51      -0.0009
      8  CD2        9.9650    2.4950   45.9950 C.ar   51  TYR51      -0.0009
      9  CE1       11.9400    3.6490   44.4410 C.ar   51  TYR51       0.0417
     10  CE2       10.5860    1.7530   45.0040 C.ar   51  TYR51       0.0417
     11  CZ        11.5680    2.3350   44.2290 C.ar   51  TYR51       0.1957
     12  OH        12.1800    1.5990   43.2420 O.3    51  TYR51      -0.2866
     13  N          8.1710    5.9280   41.0020 N.3    94  ILE94      -0.1231
     14  CA         8.9070    4.9870   41.8500 C.3    94  ILE94       0.1692
     15  C          8.6810    3.5380   41.4320 C.2    94  ILE94       0.2592
     16  O          9.3210    2.6300   41.9660 O.2    94  ILE94      -0.2718
     17  CB         8.5010    5.1230   43.3500 C.3    94  ILE94       0.0266
     18  CG1        6.9900    4.9020   43.5160 C.3    94  ILE94       0.0019
     19  CG2        8.9270    6.4740   43.8960 C.3    94  ILE94       0.0020
     20  CD1        6.5120    4.9410   44.9720 C.3    94  ILE94       0.0001
     21  N          7.7620    3.3270   40.4900 N.am   95  CYS95      -0.1956
     22  CA         7.4490    1.9810   40.0060 C.3    95  CYS95       0.1843
     23  C          6.8450    1.1910   41.1620 C.2    95  CYS95       0.2625
     24  O          5.6580    1.3220   41.4450 O.2    95  CYS95      -0.2714
     25  CB         8.7200    1.3010   39.4800 C.3    95  CYS95       0.0997
     26  SG         8.4480   -0.2450   38.5950 S.3    95  CYS95      -0.0797
     27  N          7.6710    0.3800   41.8300 N.am   96  ALA96      -0.1963
     28  CA         7.3740   -0.1250   43.1840 C.3    96  ALA96       0.1728
     29  C          6.1540   -1.0240   43.3200 C.2    96  ALA96       0.2616
     30  O          5.6510   -1.2060   44.4270 O.2    96  ALA96      -0.2715
     31  CB         7.2430    1.0430   44.1640 C.3    96  ALA96       0.0334
     32  N          5.6590   -1.5770   42.2160 N.am   97  GLU97      -0.1977
     33  CA         4.3880   -2.3010   42.2610 C.3    97  GLU97       0.1602
     34  C          3.3230   -1.4360   42.9310 C.2    97  GLU97       0.2287
     35  O          2.5270   -1.9070   43.7510 O.2    97  GLU97      -0.2864
     36  CB         4.5360   -3.6250   43.0110 C.3    97  GLU97       0.0415
     37  CG         5.2760   -4.7130   42.2400 C.3    97  GLU97       0.1163
     38  CD         6.7630   -4.4500   42.1140 C.2    97  GLU97       0.3649
     39  OE1        7.4960   -4.5710   43.1400 O.co2  97  GLU97      -0.2457
     40  OE2        7.2070   -4.1250   40.9830 O.co2  97  GLU97      -0.2457
     41  N         13.9750    6.9800   38.6530 N.3   154  ASN154     -0.1225
     42  CA        13.9870    5.5830   39.0690 C.3   154  ASN154      0.1785
     43  C         14.0460    4.6360   37.8760 C.2   154  ASN154      0.2597
     44  O         13.0660    4.4890   37.1610 O.2   154  ASN154     -0.2718
     45  CB        12.7430    5.2520   39.9080 C.3   154  ASN154      0.1169
     46  CG        12.7760    3.8380   40.4370 C.2   154  ASN154      0.2627
     47  OD1       13.3660    3.5650   41.4890 O.2   154  ASN154     -0.2716
     48  ND2       12.1840    2.9180   39.6880 N.am  154  ASN154     -0.0877
     49  N         15.2020    4.0010   37.6660 N.am  155  GLU155     -0.1979
     50  CA        15.3870    3.0990   36.5350 C.3   155  GLU155      0.1602
     51  C         14.9090    3.7550   35.2580 C.2   155  GLU155      0.2287
     52  O         14.1870    3.1440   34.4670 O.2   155  GLU155     -0.2864
     53  CB        14.6010    1.8070   36.7420 C.3   155  GLU155      0.0415
     54  CG        15.1180    0.9300   37.8750 C.3   155  GLU155      0.1163
     55  CD        14.6570   -0.5020   37.7130 C.2   155  GLU155      0.3649
     56  OE1       13.6390   -0.7140   37.0080 O.co2 155  GLU155     -0.2457
     57  OE2       15.3130   -1.4090   38.2640 O.co2 155  GLU155     -0.2457
     58  N         18.8140   -2.0650   44.5110 N.3   237  GLU237     -0.1245
     59  CA        17.7150   -2.9860   44.7600 C.3   237  GLU237      0.1567
     60  C         18.1890   -4.4060   44.5250 C.2   237  GLU237      0.2260
     61  O         18.2870   -4.8530   43.3850 O.2   237  GLU237     -0.2867
     62  CB        16.4990   -2.6920   43.8580 C.3   237  GLU237      0.0388
     63  CG        15.9570   -1.2620   43.9040 C.3   237  GLU237      0.1160
     64  CD        14.8730   -1.0250   42.8420 C.2   237  GLU237      0.3649
     65  OE1       14.3670   -2.0210   42.2950 O.co2 237  GLU237     -0.2457
     66  OE2       14.5390    0.1430   42.5440 O.co2 237  GLU237     -0.2457
     67  N         16.7870   -7.6880   44.6060 N.3   239  TRP239     -0.1241
     68  CA        15.4770   -8.3090   44.6830 C.3   239  TRP239      0.1605
     69  C         15.5820   -9.6570   45.3780 C.2   239  TRP239      0.2264
     70  O         16.0760  -10.6190   44.8020 O.2   239  TRP239     -0.2867
     71  CB        14.8890   -8.4650   43.2730 C.3   239  TRP239      0.0550
     72  CG        14.8930   -7.1810   42.4830 C.ar  239  TRP239      0.0003
     73  CD1       14.4970   -5.9470   42.9220 C.ar  239  TRP239      0.0946
     74  CD2       15.2900   -7.0090   41.1130 C.ar  239  TRP239      0.0152
     75  NE1       14.6340   -5.0180   41.9140 N.ar  239  TRP239     -0.2442
     76  CE2       15.1150   -5.6430   40.7950 C.ar  239  TRP239      0.0810
     77  CE3       15.7720   -7.8760   40.1270 C.ar  239  TRP239      0.0012
     78  CZ2       15.4060   -5.1240   39.5290 C.ar  239  TRP239      0.0191
     79  CZ3       16.0630   -7.3540   38.8590 C.ar  239  TRP239      0.0001
     80  CH2       15.8760   -5.9920   38.5780 C.ar  239  TRP239      0.0015
     81  N          9.8240  -11.7270   45.5130 N.3   242  TRP242     -0.1227
     82  CA         9.0680  -11.1900   44.3760 C.3   242  TRP242      0.1737
     83  C          7.6060  -10.9560   44.7440 C.2   242  TRP242      0.2595
     84  O          7.1220  -11.4470   45.7660 O.2   242  TRP242     -0.2718
     85  CB         9.1660  -12.1110   43.1570 C.3   242  TRP242      0.0564
     86  CG         8.9930  -11.4150   41.8040 C.ar  242  TRP242      0.0003
     87  CD1        7.9690  -11.5940   40.9050 C.ar  242  TRP242      0.0946
     88  CD2        9.8920  -10.4700   41.1970 C.ar  242  TRP242      0.0152
     89  NE1        8.1740  -10.8110   39.7850 N.ar  242  TRP242     -0.2442
     90  CE2        9.3440  -10.1120   39.9420 C.ar  242  TRP242      0.0810
     91  CE3       11.1060   -9.8910   41.5940 C.ar  242  TRP242      0.0012
     92  CZ2        9.9680   -9.1980   39.0860 C.ar  242  TRP242      0.0191
     93  CZ3       11.7200   -8.9830   40.7450 C.ar  242  TRP242      0.0001
     94  CH2       11.1510   -8.6470   39.5080 C.ar  242  TRP242      0.0015
     95  N          6.9110  -10.2050   43.8940 N.am  243  PHE243     -0.1976
     96  CA         5.5240   -9.8500   44.1440 C.3   243  PHE243      0.1639
     97  C          4.5820  -10.8810   43.5280 C.2   243  PHE243      0.2290
     98  O          5.0060  -11.7440   42.7470 O.2   243  PHE243     -0.2864
     99  CB         5.2190   -8.4420   43.6170 C.3   243  PHE243      0.0560
    100  CG         5.4790   -8.2660   42.1390 C.ar  243  PHE243     -0.0200
    101  CD1        6.7320   -7.8660   41.6850 C.ar  243  PHE243     -0.0042
    102  CD2        4.4640   -8.4820   41.2080 C.ar  243  PHE243     -0.0042
    103  CE1        6.9770   -7.6950   40.3300 C.ar  243  PHE243     -0.0003
    104  CE2        4.6930   -8.3110   39.8550 C.ar  243  PHE243     -0.0003
    105  CZ         5.9580   -7.9210   39.4090 C.ar  243  PHE243     -0.0000
    106  N         15.7740   -5.4140   48.6290 N.3   274  TYR274     -0.1241
    107  CA        14.4140   -5.1010   48.1940 C.3   274  TYR274      0.1605
    108  C         13.5900   -6.3950   48.1230 C.2   274  TYR274      0.2264
    109  O         13.7850   -7.1820   47.1920 O.2   274  TYR274     -0.2867
    110  CB        14.4490   -4.4560   46.7840 C.3   274  TYR274      0.0534
    111  CG        13.1410   -3.8030   46.4060 C.ar  274  TYR274     -0.0201
    112  CD1       12.0720   -4.5570   45.9350 C.ar  274  TYR274     -0.0009
    113  CD2       12.9580   -2.4370   46.5630 C.ar  274  TYR274     -0.0009
    114  CE1       10.8590   -3.9640   45.6160 C.ar  274  TYR274      0.0417
    115  CE2       11.7410   -1.8290   46.2500 C.ar  274  TYR274      0.0417
    116  CZ        10.6970   -2.5980   45.7780 C.ar  274  TYR274      0.1957
    117  OH         9.4800   -1.9980   45.4890 O.3   274  TYR274     -0.2866
    118  N          5.9120  -10.1890   49.5590 N.3   304  TYR304     -0.1241
    119  CA         7.0870  -10.1670   48.6870 C.3   304  TYR304      0.1605
    120  C          8.0330  -11.3430   48.9090 C.2   304  TYR304      0.2264
    121  O          9.0740  -11.4230   48.2620 O.2   304  TYR304     -0.2867
    122  CB         7.8660   -8.8500   48.8630 C.3   304  TYR304      0.0534
    123  CG         8.6860   -8.4450   47.6540 C.ar  304  TYR304     -0.0201
    124  CD1        8.0840   -7.8400   46.5470 C.ar  304  TYR304     -0.0009
    125  CD2       10.0580   -8.6570   47.6180 C.ar  304  TYR304     -0.0009
    126  CE1        8.8340   -7.4650   45.4410 C.ar  304  TYR304      0.0417
    127  CE2       10.8150   -8.2940   46.5050 C.ar  304  TYR304      0.0417
    128  CZ        10.2000   -7.6990   45.4280 C.ar  304  TYR304      0.1957
    129  OH        10.9540   -7.3330   44.3410 O.3   304  TYR304     -0.2866
    130  N          4.6720    0.6370   35.1940 N.3   454  TYR454     -0.1241
    131  CA         5.9590    0.4100   34.5370 C.3   454  TYR454      0.1605
    132  C          5.8110    0.2050   33.0310 C.2   454  TYR454      0.2264
    133  O          4.7820   -0.2820   32.5650 O.2   454  TYR454     -0.2867
    134  CB         6.5980   -0.8330   35.1680 C.3   454  TYR454      0.0534
    135  CG         7.8700   -1.3330   34.5370 C.ar  454  TYR454     -0.0201
    136  CD1        7.8540   -2.4280   33.6840 C.ar  454  TYR454     -0.0009
    137  CD2        9.0980   -0.7420   34.8280 C.ar  454  TYR454     -0.0009
    138  CE1        9.0280   -2.9070   33.1160 C.ar  454  TYR454      0.0417
    139  CE2       10.2850   -1.2160   34.2650 C.ar  454  TYR454      0.0417
    140  CZ        10.2350   -2.2930   33.4050 C.ar  454  TYR454      0.1957
    141  OH        11.3850   -2.7770   32.8390 O.3   454  TYR454     -0.2866
@<TRIPOS>BOND
     1   133   132    2
     2   141   140    1
     3   132   131    1
     4   138   140   ar
     5   138   136   ar
     6   140   139   ar
     7   136   135   ar
     8   139   137   ar
     9    52    51    2
    10   135   137   ar
    11   135   134    1
    12   131   134    1
    13   131   130    1
    14    51    50    1
    15    50    53    1
    16    50    49    1
    17    53    54    1
    18    56    55   ar
    19    44    43    2
    20    49    43   am
    21    55    54    1
    22    55    57   ar
    23    43    42    1
    24    80    79   ar
    25    80    78   ar
    26    26    25    1
    27    41    42    1
    28    79    77   ar
    29    42    45    1
    30    92    94   ar
    31    92    90   ar
    32   105   104   ar
    33   105   103   ar
    34    25    22    1
    35    94    93   ar
    36    78    76   ar
    37    48    46   am
    38    89    90   ar
    39    89    87   ar
    40   104   102   ar
    41    45    46    1
    42    90    88   ar
    43    22    21    1
    44    22    23    1
    45    77    74   ar
    46   103   101   ar
    47    46    47    2
    48    21    15   am
    49    93    91   ar
    50    76    74   ar
    51    76    75   ar
    52    87    86   ar
    53    40    38   ar
    54    13    14    1
    55    74    72   ar
    56    23    24    2
    57    23    27   am
    58    88    91   ar
    59    88    86   ar
    60   102   100   ar
    61    15    14    1
    62    15    16    2
    63   101   100   ar
    64    86    85    1
    65    27    28    1
    66    14    17    1
    67    75    73   ar
    68    38    37    1
    69    38    39   ar
    70   100    99    1
    71    32    33    1
    72    32    29   am
    73    37    36    1
    74    33    34    1
    75    33    36    1
    76    65    64   ar
    77    72    73   ar
    78    72    71    1
    79    66    64   ar
    80    98    97    2
    81    64    63    1
    82    34    35    2
    83    85    82    1
    84    28    29    1
    85    28    31    1
    86    12    11    1
    87    71    68    1
    88    29    30    2
    89    17    18    1
    90    17    19    1
    91    61    60    2
    92    18    20    1
    93    97    96    1
    94    99    96    1
    95    62    63    1
    96    62    59    1
    97    95    96    1
    98    95    83   am
    99    11     9   ar
   100    11    10   ar
   101   129   128    1
   102    82    83    1
   103    82    81    1
   104     9     7   ar
   105    58    59    1
   106    60    59    1
   107    67    68    1
   108    68    69    1
   109    83    84    2
   110    70    69    2
   111    10     8   ar
   112   128   126   ar
   113   128   127   ar
   114   126   124   ar
   115     7     6   ar
   116   117   116    1
   117   114   116   ar
   118   114   112   ar
   119   116   115   ar
   120   112   111   ar
   121     8     6   ar
   122     6     5    1
   123   115   113   ar
   124   111   113   ar
   125   111   110    1
   126   127   125   ar
   127   124   123   ar
   128   110   107    1
   129   109   108    2
   130     5     2    1
   131   125   123   ar
   132   123   122    1
   133   108   107    1
   134   107   106    1
   135     2     3    1
   136     2     1    1
   137   121   120    2
   138   119   122    1
   139   119   120    1
   140   119   118    1
   141     3     4    2
