@<TRIPOS>MOLECULE
tmp/4e8hC00.pdb
 116 115 0 0 0
SMALL
GASTEIGER

@<TRIPOS>ATOM
      1  N        -14.8430   -3.2980   54.7210 N.3    15  SER15      -0.1203
      2  CA       -16.2380   -3.4200   54.2810 C.3    15  SER15       0.2005
      3  C        -16.3780   -3.4950   52.7540 C.2    15  SER15       0.2461
      4  O        -16.0420   -2.5370   52.0550 O.2    15  SER15      -0.2732
      5  CB       -17.0700   -2.2700   54.8600 C.3    15  SER15       0.2103
      6  OG       -18.3190   -2.1380   54.2010 O.3    15  SER15      -0.2182
      7  N        -16.8650   -4.6430   52.2360 N.am   16  PRO16      -0.2718
      8  CA       -17.0100   -4.8290   50.7870 C.3    16  PRO16       0.1520
      9  C        -17.8260   -3.7390   50.0540 C.2    16  PRO16       0.2440
     10  O        -17.3950   -3.2930   48.9870 O.2    16  PRO16      -0.2731
     11  CB       -17.6740   -6.2090   50.6710 C.3    16  PRO16       0.0310
     12  CG       -17.2510   -6.9240   51.9060 C.3    16  PRO16       0.0237
     13  CD       -17.2210   -5.8690   52.9790 C.3    16  PRO16       0.0939
     14  N        -18.9870   -3.3130   50.6070 N.am   17  PRO17      -0.2727
     15  CA       -19.7030   -2.2170   49.9400 C.3    17  PRO17       0.1402
     16  C        -18.9630   -0.8760   49.9610 C.2    17  PRO17       0.2269
     17  O        -19.0760   -0.1040   49.0040 O.2    17  PRO17      -0.2865
     18  CB       -21.0220   -2.1240   50.7210 C.3    17  PRO17       0.0296
     19  CG       -20.7800   -2.8290   51.9990 C.3    17  PRO17       0.0237
     20  CD       -19.8080   -3.9110   51.6770 C.3    17  PRO17       0.0939
     21  N        -18.2090   -0.3040   63.2460 N.3    39  ILE39      -0.1245
     22  CA       -19.3950   -1.0110   63.7560 C.3    39  ILE39       0.1561
     23  C        -19.1280   -1.6990   65.0990 C.2    39  ILE39       0.2260
     24  O        -19.9920   -1.7190   65.9830 O.2    39  ILE39      -0.2867
     25  CB       -19.9100   -2.0690   62.7280 C.3    39  ILE39       0.0252
     26  CG1      -20.1840   -1.4470   61.3360 C.3    39  ILE39       0.0019
     27  CG2      -21.1350   -2.8160   63.2510 C.3    39  ILE39       0.0019
     28  CD1      -20.9380   -0.1000   61.3690 C.3    39  ILE39       0.0001
     29  N        -21.8360    3.5940   64.6160 N.3    44  HIS44      -0.1241
     30  CA       -23.0280    3.6630   63.7690 C.3    44  HIS44       0.1621
     31  C        -24.3260    3.8340   64.5660 C.2    44  HIS44       0.2264
     32  O        -25.3810    4.0960   63.9850 O.2    44  HIS44      -0.2867
     33  CB       -23.1230    2.3940   62.9170 C.3    44  HIS44       0.0745
     34  CG       -23.1800    1.1300   63.7230 C.ar   44  HIS44       0.0817
     35  ND1      -24.1050    0.1360   63.4890 N.ar   44  HIS44      -0.2268
     36  CD2      -22.4310    0.7080   64.7700 C.ar   44  HIS44       0.1154
     37  CE1      -23.9170   -0.8480   64.3510 C.ar   44  HIS44       0.1986
     38  NE2      -22.9090   -0.5250   65.1400 N.ar   44  HIS44      -0.2212
     39  N        -28.6030    2.8440   60.1140 N.3    56  HIS56      -0.1226
     40  CA       -27.2860    2.7010   60.7550 C.3    56  HIS56       0.1752
     41  C        -26.3600    1.7180   60.0320 C.2    56  HIS56       0.2597
     42  O        -25.8930    0.7350   60.6120 O.2    56  HIS56      -0.2718
     43  CB       -27.4180    2.3530   62.2490 C.3    56  HIS56       0.0759
     44  CG       -28.3820    1.2440   62.5390 C.ar   56  HIS56       0.0818
     45  ND1      -28.0320   -0.0880   62.4670 N.ar   56  HIS56      -0.2268
     46  CD2      -29.6850    1.2700   62.9080 C.ar   56  HIS56       0.1154
     47  CE1      -29.0790   -0.8330   62.7750 C.ar   56  HIS56       0.1986
     48  NE2      -30.0940   -0.0340   63.0460 N.ar   56  HIS56      -0.2212
     49  N        -26.1140    1.9980   58.7560 N.am   57  THR57      -0.1939
     50  CA       -25.2310    1.1810   57.9330 C.3    57  THR57       0.2028
     51  C        -24.0670    1.9970   57.3810 C.2    57  THR57       0.2642
     52  O        -24.1230    3.2280   57.3280 O.2    57  THR57      -0.2714
     53  CB       -25.9800    0.5540   56.7320 C.3    57  THR57       0.1808
     54  OG1      -26.6050    1.5910   55.9630 O.3    57  THR57      -0.2208
     55  CG2      -27.0330   -0.4390   57.1970 C.3    57  THR57       0.0379
     56  N        -23.0120    1.2940   56.9810 N.am   58  ILE58      -0.1963
     57  CA       -21.9530    1.8620   56.1530 C.3    58  ILE58       0.1712
     58  C        -21.9410    1.1060   54.8190 C.2    58  ILE58       0.2458
     59  O        -22.3050   -0.0690   54.7800 O.2    58  ILE58      -0.2730
     60  CB       -20.5530    1.7980   56.8350 C.3    58  ILE58       0.0289
     61  CG1      -20.2350    0.3810   57.3320 C.3    58  ILE58       0.0022
     62  CG2      -20.4620    2.8150   57.9700 C.3    58  ILE58       0.0023
     63  CD1      -18.7460    0.0950   57.4870 C.3    58  ILE58       0.0001
     64  N        -21.5480    1.7750   53.7170 N.am   59  PRO59      -0.2727
     65  CA       -21.1650    3.1810   53.6190 C.3    59  PRO59       0.1402
     66  C        -22.3680    4.1210   53.6440 C.2    59  PRO59       0.2269
     67  O        -23.4470    3.7690   53.1550 O.2    59  PRO59      -0.2865
     68  CB       -20.4760    3.2550   52.2540 C.3    59  PRO59       0.0296
     69  CG       -21.1390    2.2030   51.4490 C.3    59  PRO59       0.0237
     70  CD       -21.4160    1.0850   52.4190 C.3    59  PRO59       0.0939
     71  N        -26.7090    2.5600   50.8060 N.3    70  GLU70      -0.1231
     72  CA       -26.7580    1.5210   49.7690 C.3    70  GLU70       0.1699
     73  C        -25.6900    1.7930   48.7180 C.2    70  GLU70       0.2593
     74  O        -25.8360    2.6780   47.8700 O.2    70  GLU70      -0.2718
     75  CB       -28.1480    1.3580   49.1330 C.3    70  GLU70       0.0402
     76  CG       -29.1760    0.6730   50.0290 C.3    70  GLU70       0.1161
     77  CD       -28.9150   -0.8150   50.2580 C.2    70  GLU70       0.3649
     78  OE1      -28.0230   -1.4020   49.6020 O.co2  70  GLU70      -0.2457
     79  OE2      -29.6210   -1.4010   51.1050 O.co2  70  GLU70      -0.2457
     80  N        -24.6140    1.0150   48.8050 N.am   71  SER71      -0.1938
     81  CA       -23.4090    1.1970   48.0010 C.3    71  SER71       0.2055
     82  C        -23.6650    1.3540   46.5070 C.2    71  SER71       0.2642
     83  O        -23.0590    2.2090   45.8630 O.2    71  SER71      -0.2714
     84  CB       -22.4400    0.0390   48.2360 C.3    71  SER71       0.2130
     85  OG       -23.0200   -1.1930   47.8400 O.3    71  SER71      -0.2179
     86  N        -24.5560    0.5300   45.9580 N.am   72  ARG72      -0.1977
     87  CA       -24.8210    0.5470   44.5190 C.3    72  ARG72       0.1597
     88  C        -25.5560    1.8130   44.0680 C.2    72  ARG72       0.2287
     89  O        -25.3200    2.3090   42.9630 O.2    72  ARG72      -0.2864
     90  CB       -25.5450   -0.7300   44.0800 C.3    72  ARG72       0.0334
     91  CG       -24.6360   -1.9600   44.1130 C.3    72  ARG72       0.0492
     92  CD       -25.4130   -3.2620   44.2620 C.3    72  ARG72       0.2205
     93  NE       -24.5610   -4.3260   44.7950 N.pl3  72  ARG72      -0.0865
     94  CZ       -24.3760   -4.5690   46.0920 C.cat  72  ARG72       0.5346
     95  NH1      -24.9900   -3.8320   47.0120 N.pl3  72  ARG72       0.1354
     96  NH2      -23.5770   -5.5570   46.4720 N.pl3  72  ARG72       0.1354
     97  N        -26.2920   -7.6610   44.2050 N.3   107  LEU107     -0.1245
     98  CA       -26.9130   -7.5170   45.5220 C.3   107  LEU107      0.1561
     99  C        -27.7570   -8.7320   45.9170 C.2   107  LEU107      0.2260
    100  O        -27.5230   -9.3400   46.9640 O.2   107  LEU107     -0.2867
    101  CB       -27.7510   -6.2310   45.6010 C.3   107  LEU107      0.0270
    102  CG       -28.6380   -6.0260   46.8390 C.3   107  LEU107      0.0019
    103  CD1      -27.8170   -5.9210   48.1240 C.3   107  LEU107      0.0001
    104  CD2      -29.5290   -4.8040   46.6710 C.3   107  LEU107      0.0001
    105  N        -23.6680  -11.3580   46.0760 N.3   111  TYR111     -0.1241
    106  CA       -23.2300  -10.9120   47.4020 C.3   111  TYR111      0.1605
    107  C        -23.9300  -11.6620   48.5290 C.2   111  TYR111      0.2264
    108  O        -23.3050  -11.9880   49.5410 O.2   111  TYR111     -0.2867
    109  CB       -23.4050   -9.3980   47.5880 C.3   111  TYR111      0.0534
    110  CG       -22.6950   -8.8570   48.8150 C.ar  111  TYR111     -0.0201
    111  CD1      -21.3070   -8.9450   48.9290 C.ar  111  TYR111     -0.0009
    112  CD2      -23.4050   -8.2610   49.8590 C.ar  111  TYR111     -0.0009
    113  CE1      -20.6420   -8.4580   50.0460 C.ar  111  TYR111      0.0417
    114  CE2      -22.7430   -7.7640   50.9880 C.ar  111  TYR111      0.0417
    115  CZ       -21.3610   -7.8700   51.0720 C.ar  111  TYR111      0.1957
    116  OH       -20.6870   -7.3890   52.1740 O.3   111  TYR111     -0.2866
@<TRIPOS>BOND
     1    89    88    2
     2    88    87    1
     3    90    91    1
     4    90    87    1
     5    91    92    1
     6    97    98    1
     7    92    93    1
     8    87    86    1
     9    93    94    2
    10    98   101    1
    11    98    99    1
    12   101   102    1
    13    83    82    2
    14    99   100    2
    15    86    82   am
    16   105   106    1
    17    94    96    1
    18    94    95    1
    19    82    81    1
    20   104   102    1
    21   102   103    1
    22   106   109    1
    23   106   107    1
    24   109   110    1
    25    85    84    1
    26    74    73    2
    27    81    84    1
    28    81    80    1
    29   107   108    2
    30    73    80   am
    31    73    72    1
    32   110   111   ar
    33   110   112   ar
    34   111   113   ar
    35    10     9    2
    36    17    16    2
    37    75    72    1
    38    75    76    1
    39    78    77   ar
    40    72    71    1
    41   112   114   ar
    42    15    16    1
    43    15    14    1
    44    15    18    1
    45    76    77    1
    46   113   115   ar
    47     9    14   am
    48     9     8    1
    49    77    79   ar
    50    14    20    1
    51    11     8    1
    52    11    12    1
    53    18    19    1
    54     8     7    1
    55   114   115   ar
    56   115   116    1
    57    69    68    1
    58    69    70    1
    59    20    19    1
    60    12    13    1
    61     4     3    2
    62     7     3   am
    63     7    13    1
    64    68    65    1
    65    70    64    1
    66     3     2    1
    67    67    66    2
    68    65    66    1
    69    65    64    1
    70    64    58   am
    71     6     5    1
    72     2     1    1
    73     2     5    1
    74    59    58    2
    75    58    57    1
    76    54    53    1
    77    57    60    1
    78    57    56    1
    79    53    55    1
    80    53    50    1
    81    60    61    1
    82    60    62    1
    83    56    51   am
    84    52    51    2
    85    61    63    1
    86    51    50    1
    87    50    49    1
    88    49    41   am
    89    41    42    2
    90    41    40    1
    91    39    40    1
    92    40    43    1
    93    26    28    1
    94    26    25    1
    95    43    44    1
    96    45    44   ar
    97    45    47   ar
    98    44    46   ar
    99    25    27    1
   100    25    22    1
   101    47    48   ar
   102    46    48   ar
   103    33    34    1
   104    33    30    1
   105    21    22    1
   106    35    34   ar
   107    35    37   ar
   108    34    36   ar
   109    22    23    1
   110    30    31    1
   111    30    29    1
   112    32    31    2
   113    37    38   ar
   114    36    38   ar
   115    23    24    2
