@<TRIPOS>MOLECULE
tmp/4e8wA00.pdb
 112 100 0 0 0
SMALL
GASTEIGER

@<TRIPOS>ATOM
      1  N         10.9320  -39.0070  -28.5390 N.3   193  ASN193     -0.1240
      2  CA        11.8960  -40.0680  -28.2760 C.3   193  ASN193      0.1653
      3  C         11.4150  -41.3640  -28.9090 C.2   193  ASN193      0.2266
      4  O         10.4050  -41.3780  -29.6070 O.2   193  ASN193     -0.2867
      5  CB        12.1710  -40.2360  -26.7740 C.3   193  ASN193      0.1155
      6  CG        10.9290  -40.6020  -25.9750 C.2   193  ASN193      0.2627
      7  OD1       10.0240  -41.2750  -26.4690 O.2   193  ASN193     -0.2716
      8  ND2       10.8870  -40.1600  -24.7240 N.am  193  ASN193     -0.0877
      9  N         10.1190  -44.0790  -27.4600 N.3   195  ALA195     -0.1245
     10  CA         8.8270  -44.4720  -26.8960 C.3   195  ALA195      0.1562
     11  C          7.6810  -43.6430  -27.4700 C.2   195  ALA195      0.2260
     12  O          6.6450  -44.1840  -27.8530 O.2   195  ALA195     -0.2867
     13  CB         8.8520  -44.3620  -25.3790 C.3   195  ALA195      0.0290
     14  N         15.2570  -38.7700  -30.6480 N.3   229  THR229     -0.1218
     15  CA        16.2160  -39.0150  -29.5790 C.3   229  THR229      0.1862
     16  C         16.1380  -40.4820  -29.1660 C.2   229  THR229      0.2287
     17  O         15.0460  -41.0250  -28.9970 O.2   229  THR229     -0.2866
     18  CB        15.9540  -38.1000  -28.3660 C.3   229  THR229      0.1770
     19  OG1       14.5830  -38.2070  -27.9670 O.3   229  THR229     -0.2211
     20  CG2       16.2480  -36.6480  -28.7190 C.3   229  THR229      0.0375
     21  N         18.3810  -42.0270  -26.6790 N.3   231  SER231     -0.1202
     22  CA        19.1740  -42.2580  -25.4650 C.3   231  SER231      0.2020
     23  C         20.5340  -42.8160  -25.8940 C.2   231  SER231      0.2618
     24  O         21.2210  -42.2230  -26.7250 O.2   231  SER231     -0.2717
     25  CB        18.4780  -43.2070  -24.4830 C.3   231  SER231      0.2103
     26  OG        17.2960  -42.6220  -23.9650 O.3   231  SER231     -0.2182
     27  N         20.9110  -43.9580  -25.3260 N.am  232  GLU232     -0.1979
     28  CA        22.2120  -44.5640  -25.6010 C.3   232  GLU232      0.1602
     29  C         22.6690  -44.5350  -27.0600 C.2   232  GLU232      0.2287
     30  O         23.8640  -44.4360  -27.3410 O.2   232  GLU232     -0.2864
     31  CB        22.2650  -46.0000  -25.0680 C.3   232  GLU232      0.0415
     32  CG        21.0320  -46.4380  -24.2900 C.3   232  GLU232      0.1163
     33  CD        20.0400  -47.2050  -25.1470 C.2   232  GLU232      0.3649
     34  OE1       20.1540  -47.1430  -26.3880 O.co2 232  GLU232     -0.2457
     35  OE2       19.1520  -47.8770  -24.5790 O.co2 232  GLU232     -0.2457
     36  N         21.9180  -42.2240  -29.1960 N.3   234  GLY234     -0.1210
     37  CA        22.1100  -40.8550  -29.6360 C.3   234  GLY234      0.1956
     38  C         20.8790  -40.2030  -30.2390 C.2   234  GLY234      0.2611
     39  O         19.7610  -40.3840  -29.7530 O.2   234  GLY234     -0.2717
     40  N         21.0880  -39.4300  -31.2990 N.am  235  MET235     -0.1979
     41  CA        19.9940  -38.7730  -31.9990 C.3   235  MET235      0.1605
     42  C         20.0300  -39.0780  -33.4890 C.2   235  MET235      0.2287
     43  O         21.0540  -39.5050  -34.0230 O.2   235  MET235     -0.2864
     44  CB        20.0750  -37.2600  -31.8160 C.3   235  MET235      0.0413
     45  CG        19.8380  -36.7690  -30.4070 C.3   235  MET235      0.0598
     46  SD        19.9890  -34.9750  -30.3380 S.3   235  MET235     -0.1393
     47  CE        21.5850  -34.7670  -31.1190 C.3   235  MET235      0.0692
     48  N         26.1140  -40.5280  -28.1820 N.3   248  ALA248     -0.1231
     49  CA        26.2250  -39.8990  -26.8690 C.3   248  ALA248      0.1694
     50  C         27.6780  -39.6160  -26.4930 C.2   248  ALA248      0.2592
     51  O         28.6010  -40.0830  -27.1580 O.2   248  ALA248     -0.2718
     52  CB        25.5650  -40.7720  -25.8090 C.3   248  ALA248      0.0304
     53  N         27.8680  -38.8390  -25.4310 N.am  249  LEU249     -0.1966
     54  CA        29.1970  -38.5730  -24.8800 C.3   249  LEU249      0.1728
     55  C         29.1380  -38.3550  -23.3680 C.2   249  LEU249      0.2616
     56  O         29.0270  -37.2230  -22.8960 O.2   249  LEU249     -0.2715
     57  CB        29.8700  -37.3830  -25.5790 C.3   249  LEU249      0.0311
     58  CG        29.0310  -36.4020  -26.4020 C.3   249  LEU249      0.0022
     59  CD1       28.0850  -35.5960  -25.5240 C.3   249  LEU249      0.0001
     60  CD2       29.9400  -35.4730  -27.1880 C.3   249  LEU249      0.0001
     61  N         29.2050  -39.4490  -22.6160 N.am  250  ALA250     -0.1977
     62  CA        29.1550  -39.3860  -21.1590 C.3   250  ALA250      0.1597
     63  C         29.9560  -40.5160  -20.5130 C.2   250  ALA250      0.2287
     64  O         30.0740  -40.5860  -19.2880 O.2   250  ALA250     -0.2864
     65  CB        27.7090  -39.4070  -20.6730 C.3   250  ALA250      0.0319
     66  N         19.8510  -37.6020  -15.9460 N.3   251  VAL251     -0.1245
     67  CA        19.1230  -38.0530  -17.1260 C.3   251  VAL251      0.1561
     68  C         17.8640  -37.2170  -17.3530 C.2   251  VAL251      0.2260
     69  O         17.4540  -36.9820  -18.4900 O.2   251  VAL251     -0.2867
     70  CB        18.7640  -39.5550  -17.0210 C.3   251  VAL251      0.0252
     71  CG1       18.0010  -39.8430  -15.7340 C.3   251  VAL251      0.0019
     72  CG2       17.9730  -40.0120  -18.2390 C.3   251  VAL251      0.0019
     73  N         16.5250  -33.7010  -19.8260 N.3   254  ALA254     -0.1231
     74  CA        17.4420  -33.6900  -20.9560 C.3   254  ALA254      0.1694
     75  C         16.6940  -33.4040  -22.2520 C.2   254  ALA254      0.2592
     76  O         17.2400  -32.7960  -23.1740 O.2   254  ALA254     -0.2718
     77  CB        18.1810  -35.0140  -21.0490 C.3   254  ALA254      0.0304
     78  N         15.4440  -33.8510  -22.3170 N.am  255  GLY255     -0.1957
     79  CA        14.6090  -33.5960  -23.4740 C.3   255  GLY255      0.1869
     80  C         14.3380  -32.1130  -23.6040 C.2   255  GLY255      0.2309
     81  O         14.3120  -31.5700  -24.7080 O.2   255  GLY255     -0.2863
     82  N         17.6580  -30.4520  -24.9460 N.3   258  VAL258     -0.1245
     83  CA        17.9970  -30.6330  -26.3590 C.3   258  VAL258      0.1561
     84  C         17.1790  -29.7480  -27.3060 C.2   258  VAL258      0.2260
     85  O         17.7290  -29.1410  -28.2210 O.2   258  VAL258     -0.2867
     86  CB        17.9260  -32.1210  -26.8070 C.3   258  VAL258      0.0252
     87  CG1       18.9740  -32.9450  -26.0760 C.3   258  VAL258      0.0019
     88  CG2       16.5460  -32.7030  -26.5860 C.3   258  VAL258      0.0019
     89  N         23.5220  -32.3760  -28.8480 N.3   280  ASN280     -0.1240
     90  CA        24.0300  -33.6430  -28.3540 C.3   280  ASN280      0.1653
     91  C         25.0140  -33.4360  -27.2110 C.2   280  ASN280      0.2266
     92  O         25.0060  -34.1830  -26.2330 O.2   280  ASN280     -0.2867
     93  CB        24.7020  -34.4240  -29.4790 C.3   280  ASN280      0.1155
     94  CG        24.6060  -35.9130  -29.2800 C.2   280  ASN280      0.2627
     95  OD1       23.6320  -36.4110  -28.7120 O.2   280  ASN280     -0.2716
     96  ND2       25.6180  -36.6380  -29.7370 N.am  280  ASN280     -0.0877
     97  N         23.2410  -32.3760  -24.2590 N.3   283  ALA283     -0.1231
     98  CA        22.5960  -33.5630  -23.7190 C.3   283  ALA283      0.1694
     99  C         23.5690  -34.4010  -22.8910 C.2   283  ALA283      0.2592
    100  O         23.2230  -34.8930  -21.8180 O.2   283  ALA283     -0.2718
    101  CB        22.0310  -34.3860  -24.8420 C.3   283  ALA283      0.0304
    102  N         24.7890  -34.5520  -23.3970 N.am  284  GLY284     -0.1957
    103  CA        25.7980  -35.3460  -22.7280 C.3   284  GLY284      0.1869
    104  C         26.2430  -34.7510  -21.4070 C.2   284  GLY284      0.2309
    105  O         26.9290  -35.4130  -20.6280 O.2   284  GLY284     -0.2863
    106  N         23.0370  -34.8370  -18.2360 N.3   287  VAL287     -0.1245
    107  CA        22.8900  -36.1800  -17.7070 C.3   287  VAL287      0.1561
    108  C         24.0230  -36.4580  -16.7220 C.2   287  VAL287      0.2260
    109  O         24.0270  -37.5070  -16.0560 O.2   287  VAL287     -0.2867
    110  CB        22.8860  -37.2550  -18.8230 C.3   287  VAL287      0.0252
    111  CG1       21.6640  -37.1020  -19.7290 C.3   287  VAL287      0.0019
    112  CG2       24.1750  -37.1940  -19.6120 C.3   287  VAL287      0.0019
@<TRIPOS>BOND
     1    43    42    2
     2    42    41    1
     3    41    44    1
     4    41    40    1
     5    44    45    1
     6    40    38   am
     7    47    46    1
     8    14    15    1
     9    45    46    1
    10    38    39    2
    11    38    37    1
    12    96    94   am
    13    37    36    1
    14     4     3    2
    15    15    16    1
    16    15    18    1
    17    93    94    1
    18    93    90    1
    19    94    95    2
    20    16    17    2
    21     3     2    1
    22    89    90    1
    23    20    18    1
    24     1     2    1
    25    18    19    1
    26    90    91    1
    27     2     5    1
    28    85    84    2
    29    48    49    1
    30    12    11    2
    31    11    10    1
    32     9    10    1
    33    30    29    2
    34    84    83    1
    35    91    92    2
    36    60    58    1
    37    51    50    2
    38    29    28    1
    39    10    13    1
    40    49    50    1
    41    49    52    1
    42    86    88    1
    43    86    83    1
    44    86    87    1
    45     5     6    1
    46    24    23    2
    47    21    22    1
    48    50    53   am
    49     7     6    2
    50    58    57    1
    51    58    59    1
    52    34    33   ar
    53    83    82    1
    54     6     8   am
    55    23    22    1
    56    23    27   am
    57    28    27    1
    58    28    31    1
    59    57    54    1
    60    22    25    1
    61    53    54    1
    62    33    35   ar
    63    33    32    1
    64    31    32    1
    65    54    55    1
    66   101    98    1
    67    81    80    2
    68    25    26    1
    69    97    98    1
    70    98    99    1
    71    80    79    1
    72    79    78    1
    73   102    99   am
    74   102   103    1
    75    55    56    2
    76    55    61   am
    77    76    75    2
    78    99   100    2
    79   103   104    1
    80    61    62    1
    81    78    75   am
    82    75    74    1
    83   104   105    2
    84    62    65    1
    85    62    63    1
    86    77    74    1
    87    74    73    1
    88    63    64    2
    89   111   110    1
    90   112   110    1
    91   110   107    1
    92    69    68    2
    93    72    70    1
    94   106   107    1
    95   107   108    1
    96    68    67    1
    97    67    70    1
    98    67    66    1
    99    70    71    1
   100   108   109    2
