@<TRIPOS>MOLECULE
tmp/4e8zB00.pdb
 114 101 0 0 0
SMALL
GASTEIGER

@<TRIPOS>ATOM
      1  N        -57.1840  -50.2620   22.0810 N.3   197  ASN197     -0.1240
      2  CA       -57.8590  -51.3550   21.3970 C.3   197  ASN197      0.1653
      3  C        -57.6970  -52.6410   22.1960 C.2   197  ASN197      0.2266
      4  O        -56.9750  -52.6680   23.1930 O.2   197  ASN197     -0.2867
      5  CB       -57.3600  -51.5260   19.9580 C.3   197  ASN197      0.1155
      6  CG       -55.8680  -51.7660   19.8780 C.2   197  ASN197      0.2627
      7  OD1      -55.3750  -52.8270   20.2600 O.2   197  ASN197     -0.2716
      8  ND2      -55.1400  -50.7870   19.3570 N.am  197  ASN197     -0.0877
      9  N        -56.1510  -55.3670   21.6460 N.3   199  ALA199     -0.1245
     10  CA       -54.7860  -55.8790   21.6800 C.3   199  ALA199      0.1562
     11  C        -53.8920  -55.0330   22.5820 C.2   199  ALA199      0.2260
     12  O        -53.0830  -55.5650   23.3430 O.2   199  ALA199     -0.2867
     13  CB       -54.2100  -55.9510   20.2720 C.3   199  ALA199      0.0290
     14  N        -61.7860  -50.3860   22.0810 N.3   233  THR233     -0.1218
     15  CA       -62.1730  -50.6890   20.7070 C.3   233  THR233      0.1862
     16  C        -61.8250  -52.1360   20.3500 C.2   233  THR233      0.2287
     17  O        -60.6580  -52.5230   20.3530 O.2   233  THR233     -0.2866
     18  CB       -61.5180  -49.7170   19.7030 C.3   233  THR233      0.1770
     19  OG1      -60.1030  -49.6770   19.9190 O.3   233  THR233     -0.2211
     20  CG2      -62.0800  -48.3160   19.8760 C.3   233  THR233      0.0375
     21  N        -62.7600  -53.8340   17.4730 N.3   235  SER235     -0.1202
     22  CA       -62.9650  -54.0670   16.0430 C.3   235  SER235      0.2020
     23  C        -64.3690  -54.6400   15.8390 C.2   235  SER235      0.2618
     24  O        -65.3570  -54.0260   16.2380 O.2   235  SER235     -0.2717
     25  CB       -61.8930  -55.0040   15.4760 C.3   235  SER235      0.2103
     26  OG       -60.6010  -54.4340   15.6040 O.3   235  SER235     -0.2182
     27  N        -64.4510  -55.8150   15.2220 N.am  236  GLU236     -0.1979
     28  CA       -65.7400  -56.4300   14.8980 C.3   236  GLU236      0.1602
     29  C        -66.7800  -56.4620   16.0170 C.2   236  GLU236      0.2287
     30  O        -67.9820  -56.5380   15.7580 O.2   236  GLU236     -0.2864
     31  CB       -65.5400  -57.8350   14.3190 C.3   236  GLU236      0.0415
     32  CG       -64.9880  -58.8530   15.3030 C.3   236  GLU236      0.1163
     33  CD       -63.4860  -58.7380   15.4880 C.2   236  GLU236      0.3649
     34  OE1      -62.8430  -58.0130   14.7000 O.co2 236  GLU236     -0.2457
     35  OE2      -62.9510  -59.3740   16.4210 O.co2 236  GLU236     -0.2457
     36  N        -67.1170  -53.9940   17.8340 N.3   238  GLY238     -0.1210
     37  CA       -67.3880  -52.5790   17.9840 C.3   238  GLY238      0.1956
     38  C        -66.5070  -51.9640   19.0520 C.2   238  GLY238      0.2611
     39  O        -65.3280  -52.2990   19.1570 O.2   238  GLY238     -0.2717
     40  N        -67.0730  -51.0620   19.8450 N.am  239  MET239     -0.1979
     41  CA       -66.3330  -50.4620   20.9480 C.3   239  MET239      0.1605
     42  C        -67.2370  -50.1490   22.1360 C.2   239  MET239      0.2287
     43  O        -68.4120  -49.8240   21.9670 O.2   239  MET239     -0.2864
     44  CB       -65.5840  -49.2100   20.4880 C.3   239  MET239      0.0413
     45  CG       -66.4700  -48.0400   20.1180 C.3   239  MET239      0.0598
     46  SD       -65.5240  -46.7390   19.3160 S.3   239  MET239     -0.1393
     47  CE       -66.6620  -45.3700   19.4530 C.3   239  MET239      0.0692
     48  N        -70.2200  -52.7790   15.2210 N.3   252  ALA252     -0.1231
     49  CA       -69.7020  -52.5030   13.8860 C.3   252  ALA252      0.1694
     50  C        -70.7470  -52.0850   12.8380 C.2   252  ALA252      0.2591
     51  O        -71.8700  -52.6060   12.8170 O.2   252  ALA252     -0.2718
     52  CB       -68.9180  -53.7110   13.3860 C.3   252  ALA252      0.0304
     53  N        -70.3340  -51.1940   11.9340 N.am  253  LEU253     -0.1980
     54  CA       -71.2130  -50.7440   10.8640 C.3   253  LEU253      0.1596
     55  C        -70.4890  -50.7340    9.5310 C.2   253  LEU253      0.2287
     56  O        -71.0710  -50.3630    8.5230 O.2   253  LEU253     -0.2864
     57  CB       -71.7550  -49.3500   11.1620 C.3   253  LEU253      0.0297
     58  CG       -72.9050  -49.2320   12.1580 C.3   253  LEU253      0.0022
     59  CD1      -73.0980  -47.7760   12.5380 C.3   253  LEU253      0.0001
     60  CD2      -74.1820  -49.7340   11.5110 C.3   253  LEU253      0.0001
     61  N        -65.5220  -53.6190    5.1300 N.3   255  VAL255     -0.1245
     62  CA       -64.1710  -53.4680    5.6580 C.3   255  VAL255      0.1561
     63  C        -63.1540  -53.6110    4.5320 C.2   255  VAL255      0.2260
     64  O        -62.7900  -54.7240    4.1490 O.2   255  VAL255     -0.2867
     65  CB       -63.8760  -54.5130    6.7500 C.3   255  VAL255      0.0252
     66  CG1      -62.4620  -54.3430    7.2790 C.3   255  VAL255      0.0019
     67  CG2      -64.8870  -54.3980    7.8790 C.3   255  VAL255      0.0019
     68  N        -58.2510  -50.9390    6.8920 N.3   258  VAL258     -0.1245
     69  CA       -58.2870  -50.5220    8.2880 C.3   258  VAL258      0.1561
     70  C        -56.9910  -49.8320    8.6930 C.2   258  VAL258      0.2260
     71  O        -56.1030  -50.4350    9.2980 O.2   258  VAL258     -0.2867
     72  CB       -58.5500  -51.7080    9.2280 C.3   258  VAL258      0.0252
     73  CG1      -58.8480  -51.2120   10.6340 C.3   258  VAL258      0.0019
     74  CG2      -59.7060  -52.5380    8.7070 C.3   258  VAL258      0.0019
     75  N        -58.2700  -45.6060   11.4420 N.3   261  ALA261     -0.1231
     76  CA       -59.5110  -45.7650   12.1930 C.3   261  ALA261      0.1694
     77  C        -59.3560  -45.3460   13.6520 C.2   261  ALA261      0.2592
     78  O        -60.2390  -44.7020   14.2170 O.2   261  ALA261     -0.2718
     79  CB       -60.0040  -47.2020   12.1030 C.3   261  ALA261      0.0304
     80  N        -58.2310  -45.7190   14.2550 N.am  262  GLY262     -0.1957
     81  CA       -57.9520  -45.3690   15.6350 C.3   262  GLY262      0.1869
     82  C        -57.8370  -43.8710   15.8290 C.2   262  GLY262      0.2309
     83  O        -58.3350  -43.3210   16.8120 O.2   262  GLY262     -0.2863
     84  N        -61.3910  -42.2980   15.5700 N.3   265  VAL265     -0.1245
     85  CA       -62.2040  -42.4680   16.7690 C.3   265  VAL265      0.1561
     86  C        -61.9230  -41.3940   17.8090 C.2   265  VAL265      0.2260
     87  O        -62.8170  -40.6390   18.1910 O.2   265  VAL265     -0.2867
     88  CB       -61.9770  -43.8430   17.4220 C.3   265  VAL265      0.0252
     89  CG1      -62.6800  -43.9130   18.7720 C.3   265  VAL265      0.0019
     90  CG2      -62.4630  -44.9470   16.5100 C.3   265  VAL265      0.0019
     91  N        -68.1380  -43.9580   16.7320 N.3   287  ASN287     -0.1240
     92  CA       -68.3020  -45.2550   16.0930 C.3   287  ASN287      0.1653
     93  C        -68.8380  -45.0940   14.6770 C.2   287  ASN287      0.2266
     94  O        -68.4170  -45.8030   13.7630 O.2   287  ASN287     -0.2867
     95  CB       -69.2220  -46.1590   16.9130 C.3   287  ASN287      0.1155
     96  CG       -69.2060  -47.5970   16.4270 C.2   287  ASN287      0.2627
     97  OD1      -68.4570  -48.4290   16.9390 O.2   287  ASN287     -0.2716
     98  ND2      -70.0310  -47.8940   15.4280 N.am  287  ASN287     -0.0877
     99  N        -65.8720  -43.9030   12.7080 N.3   290  ALA290     -0.1231
    100  CA       -64.9660  -45.0220   12.4860 C.3   290  ALA290      0.1694
    101  C        -65.5360  -45.9910   11.4620 C.2   290  ALA290      0.2592
    102  O        -64.8210  -46.4700   10.5850 O.2   290  ALA290     -0.2718
    103  CB       -64.6940  -45.7410   13.7910 C.3   290  ALA290      0.0304
    104  N        -66.8320  -46.2650   11.5750 N.am  291  GLY291     -0.1957
    105  CA       -67.5050  -47.1890   10.6800 C.3   291  GLY291      0.1869
    106  C        -67.5350  -46.7280    9.2330 C.2   291  GLY291      0.2309
    107  O        -67.8420  -47.5100    8.3330 O.2   291  GLY291     -0.2863
    108  N        -63.3260  -46.7910    7.6980 N.3   294  VAL294     -0.1245
    109  CA       -62.8560  -48.1280    7.3440 C.3   294  VAL294      0.1561
    110  C        -63.1220  -48.4420    5.8670 C.2   294  VAL294      0.2260
    111  O        -62.3800  -49.1970    5.2360 O.2   294  VAL294     -0.2867
    112  CB       -63.4830  -49.2020    8.2640 C.3   294  VAL294      0.0252
    113  CG1      -63.0450  -50.6000    7.8580 C.3   294  VAL294      0.0019
    114  CG2      -63.0940  -48.9360    9.7040 C.3   294  VAL294      0.0019
@<TRIPOS>BOND
     1    64    63    2
     2    63    62    1
     3    61    62    1
     4   111   110    2
     5    62    65    1
     6   110   109    1
     7    65    66    1
     8    65    67    1
     9    68    69    1
    10   109   108    1
    11   109   112    1
    12   113   112    1
    13   112   114    1
    14    69    70    1
    15    69    72    1
    16   107   106    2
    17    56    55    2
    18    70    71    2
    19    74    72    1
    20    72    73    1
    21   106   105    1
    22    55    54    1
    23   102   101    2
    24   105   104    1
    25    54    57    1
    26    54    53    1
    27    57    58    1
    28    75    76    1
    29   101   104   am
    30   101   100    1
    31    60    58    1
    32    53    50   am
    33    79    76    1
    34    58    59    1
    35    76    77    1
    36   100    99    1
    37   100   103    1
    38    51    50    2
    39    50    49    1
    40    52    49    1
    41    77    78    2
    42    77    80   am
    43    94    93    2
    44    49    48    1
    45    80    81    1
    46    31    28    1
    47    31    32    1
    48    93    92    1
    49    34    33   ar
    50    28    27    1
    51    28    29    1
    52    27    23   am
    53    32    33    1
    54    98    96   am
    55    25    26    1
    56    25    22    1
    57    33    35   ar
    58    84    85    1
    59    81    82    1
    60    30    29    2
    61    82    83    2
    62    23    22    1
    63    23    24    2
    64    22    21    1
    65    92    91    1
    66    92    95    1
    67    96    95    1
    68    96    97    2
    69    90    88    1
    70    85    88    1
    71    85    86    1
    72    88    89    1
    73    86    87    2
    74    36    37    1
    75    37    38    1
    76    38    39    2
    77    38    40   am
    78    46    47    1
    79    46    45    1
    80     8     6   am
    81    18    20    1
    82    18    19    1
    83    18    15    1
    84    40    41    1
    85     6     5    1
    86     6     7    2
    87     5     2    1
    88    45    44    1
    89    13    10    1
    90    16    17    2
    91    16    15    1
    92    44    41    1
    93    15    14    1
    94    41    42    1
    95     2     1    1
    96     2     3    1
    97     9    10    1
    98    10    11    1
    99    43    42    2
   100     3     4    2
   101    11    12    2
