@<TRIPOS>MOLECULE
tmp/4e90B00.pdb
 155 147 0 0 0
SMALL
GASTEIGER

@<TRIPOS>ATOM
      1  N        104.8890   30.1540    8.5520 N.3    74  PHE74      -0.1227
      2  CA       103.4780   29.9570    8.2350 C.3    74  PHE74       0.1736
      3  C        102.6040   31.2120    8.4500 C.2    74  PHE74       0.2595
      4  O        101.9520   31.6550    7.5110 O.2    74  PHE74      -0.2718
      5  CB       102.9220   28.7640    9.0290 C.3    74  PHE74       0.0547
      6  CG       101.5140   28.3650    8.6540 C.ar   74  PHE74      -0.0202
      7  CD1      101.2830   27.3980    7.6810 C.ar   74  PHE74      -0.0042
      8  CD2      100.4140   28.9410    9.2920 C.ar   74  PHE74      -0.0042
      9  CE1       99.9800   27.0020    7.3650 C.ar   74  PHE74      -0.0003
     10  CE2       99.1090   28.5640    8.9550 C.ar   74  PHE74      -0.0003
     11  CZ        98.9030   27.5920    7.9980 C.ar   74  PHE74      -0.0000
     12  N        102.5540   31.7390    9.6860 N.am   75  HIS75      -0.1975
     13  CA       101.7190   32.8880   10.0820 C.3    75  HIS75       0.1656
     14  C        102.3030   34.2200    9.5920 C.2    75  HIS75       0.2291
     15  O        102.8040   35.0470   10.3710 O.2    75  HIS75      -0.2864
     16  CB       101.4350   32.8560   11.6040 C.3    75  HIS75       0.0771
     17  CG       100.5860   31.6910   12.0030 C.ar   75  HIS75       0.0820
     18  ND1      101.1360   30.5470   12.5350 N.ar   75  HIS75      -0.2267
     19  CD2       99.2510   31.5140   11.8730 C.ar   75  HIS75       0.1154
     20  CE1      100.1220   29.7230   12.7360 C.ar   75  HIS75       0.1986
     21  NE2       98.9660   30.2710   12.3570 N.ar   75  HIS75      -0.2212
     22  N        102.2730   29.5480   19.5170 N.3   123  ASN123     -0.1240
     23  CA       100.8390   29.4930   19.8060 C.3   123  ASN123      0.1653
     24  C        100.4140   29.9170   21.2270 C.2   123  ASN123      0.2266
     25  O        101.2720   30.2180   22.0650 O.2   123  ASN123     -0.2867
     26  CB       100.2660   28.1290   19.3920 C.3   123  ASN123      0.1155
     27  CG       100.5860   26.9580   20.2840 C.2   123  ASN123      0.2627
     28  OD1      101.1610   27.0680   21.3770 O.2   123  ASN123     -0.2716
     29  ND2      100.1540   25.8010   19.8510 N.am  123  ASN123     -0.0877
     30  N         88.6180   32.2790   15.4220 N.3   186  THR186     -0.1218
     31  CA        89.7120   31.5490   14.7690 C.3   186  THR186      0.1862
     32  C         90.5750   30.7390   15.7390 C.2   186  THR186      0.2287
     33  O         91.4100   29.9540   15.2860 O.2   186  THR186     -0.2866
     34  CB        90.5270   32.4370   13.8170 C.3   186  THR186      0.1770
     35  OG1       91.2340   33.4180   14.5680 O.3   186  THR186     -0.2211
     36  CG2       89.6820   33.0640   12.7030 C.3   186  THR186      0.0375
     37  N         91.4720   27.7970   17.7040 N.3   188  MET188     -0.1245
     38  CA        91.1510   26.3720   17.6010 C.3   188  MET188      0.1570
     39  C         90.7300   25.7070   18.9010 C.2   188  MET188      0.2261
     40  O         90.0410   24.6960   18.8490 O.2   188  MET188     -0.2867
     41  CB        92.2250   25.5820   16.8540 C.3   188  MET188      0.0387
     42  CG        92.1420   25.7350   15.3320 C.3   188  MET188      0.0595
     43  SD        90.7050   24.9800   14.5240 S.3   188  MET188     -0.1393
     44  CE        90.9290   23.3040   14.9110 C.3   188  MET188      0.0692
     45  N         90.4080   29.9060    7.1440 N.3   225  ASP225     -0.1225
     46  CA        91.6440   29.8870    7.9220 C.3   225  ASP225      0.1805
     47  C         92.4330   28.5760    7.8040 C.2   225  ASP225      0.2597
     48  O         93.6480   28.6070    7.5990 O.2   225  ASP225     -0.2718
     49  CB        91.3420   30.2250    9.3950 C.3   225  ASP225      0.1424
     50  CG        92.5470   30.5240   10.2590 C.2   225  ASP225      0.3668
     51  OD1       93.6310   30.8130    9.6950 O.co2 225  ASP225     -0.2456
     52  OD2       92.4090   30.4820   11.4960 O.co2 225  ASP225     -0.2456
     53  N         91.7500   27.4370    7.9150 N.am  226  ILE226     -0.1980
     54  CA        92.3920   26.1160    7.8700 C.3   226  ILE226      0.1595
     55  C         92.2250   25.3870    6.5170 C.2   226  ILE226      0.2287
     56  O         92.5360   24.2050    6.4060 O.2   226  ILE226     -0.2864
     57  CB        92.0030   25.2740    9.1270 C.3   226  ILE226      0.0276
     58  CG1       90.4900   24.9530    9.1530 C.3   226  ILE226      0.0022
     59  CG2       92.4650   25.9780   10.4340 C.3   226  ILE226      0.0022
     60  CD1       90.0840   23.9950   10.2330 C.3   226  ILE226      0.0001
     61  N         93.9390   25.2990    3.6190 N.3   228  ASN228     -0.1225
     62  CA        95.0420   24.9520    2.7030 C.3   228  ASN228      0.1785
     63  C         94.8360   23.6750    1.9200 C.2   228  ASN228      0.2597
     64  O         95.0150   23.6890    0.7100 O.2   228  ASN228     -0.2718
     65  CB        96.4150   24.9650    3.3770 C.3   228  ASN228      0.1169
     66  CG        96.9150   26.3350    3.7520 C.2   228  ASN228      0.2627
     67  OD1       96.6330   27.3510    3.0990 O.2   228  ASN228     -0.2716
     68  ND2       97.6490   26.3890    4.8470 N.am  228  ASN228     -0.0877
     69  N         94.3820   22.6000    2.5810 N.am  229  GLU229     -0.1979
     70  CA        94.1420   21.3070    1.9400 C.3   229  GLU229      0.1602
     71  C         93.0540   21.2730    0.8540 C.2   229  GLU229      0.2287
     72  O         93.0020   20.3110    0.0910 O.2   229  GLU229     -0.2864
     73  CB        93.9800   20.1960    2.9880 C.3   229  GLU229      0.0415
     74  CG        95.2800   19.8290    3.7000 C.3   229  GLU229      0.1163
     75  CD        96.4490   19.3590    2.8460 C.2   229  GLU229      0.3649
     76  OE1       97.6050   19.5210    3.2920 O.co2 229  GLU229     -0.2457
     77  OE2       96.2210   18.8220    1.7410 O.co2 229  GLU229     -0.2457
     78  N        102.2630   22.6750    4.7370 N.3   240  VAL240     -0.1245
     79  CA       102.4720   21.7030    5.8280 C.3   240  VAL240      0.1561
     80  C        103.8750   21.8860    6.4160 C.2   240  VAL240      0.2260
     81  O        104.0210   22.0100    7.6330 O.2   240  VAL240     -0.2867
     82  CB       102.2240   20.2170    5.4230 C.3   240  VAL240      0.0252
     83  CG1      102.3140   19.3000    6.6380 C.3   240  VAL240      0.0019
     84  CG2      100.8850   20.0330    4.7220 C.3   240  VAL240      0.0019
     85  N        104.2440   25.1590    8.4290 N.3   243  LEU243     -0.1231
     86  CA       103.6480   25.0510    9.7530 C.3   243  LEU243      0.1693
     87  C        104.5230   24.2360   10.6840 C.2   243  LEU243      0.2591
     88  O        104.7460   24.6620   11.8180 O.2   243  LEU243     -0.2718
     89  CB       102.2220   24.4880    9.6870 C.3   243  LEU243      0.0284
     90  CG       101.4360   24.5030   11.0040 C.3   243  LEU243      0.0019
     91  CD1      101.3570   25.9100   11.6220 C.3   243  LEU243      0.0001
     92  CD2      100.0850   23.9260   10.8060 C.3   243  LEU243      0.0001
     93  N        105.0730   23.0970   10.1870 N.am  244  LEU244     -0.1980
     94  CA       105.9570   22.2350   10.9730 C.3   244  LEU244      0.1596
     95  C        107.2290   22.9700   11.3580 C.2   244  LEU244      0.2287
     96  O        107.7100   22.8090   12.4790 O.2   244  LEU244     -0.2864
     97  CB       106.2770   20.9250   10.2390 C.3   244  LEU244      0.0297
     98  CG       105.1530   19.8940   10.1510 C.3   244  LEU244      0.0022
     99  CD1      105.6360   18.6410    9.4510 C.3   244  LEU244      0.0001
    100  CD2      104.5820   19.5470   11.5340 C.3   244  LEU244      0.0001
    101  N        106.1880   25.0290   14.3010 N.3   247  TYR247     -0.1241
    102  CA       105.9090   24.1280   15.4020 C.3   247  TYR247      0.1605
    103  C        107.2020   23.6160   16.0330 C.2   247  TYR247      0.2264
    104  O        107.3060   23.6060   17.2620 O.2   247  TYR247     -0.2867
    105  CB       105.0050   22.9800   14.9140 C.3   247  TYR247      0.0534
    106  CG       103.5230   23.3050   14.8670 C.ar  247  TYR247     -0.0201
    107  CD1      103.0640   24.6080   15.0500 C.ar  247  TYR247     -0.0009
    108  CD2      102.5780   22.3100   14.6430 C.ar  247  TYR247     -0.0009
    109  CE1      101.7030   24.9090   15.0290 C.ar  247  TYR247      0.0417
    110  CE2      101.2130   22.6020   14.6060 C.ar  247  TYR247      0.0417
    111  CZ       100.7810   23.9050   14.8030 C.ar  247  TYR247      0.1957
    112  OH        99.4460   24.2140   14.7760 O.3   247  TYR247     -0.2866
    113  N        102.3260   16.6360   18.5460 N.3   264  PHE264     -0.1241
    114  CA       102.2050   17.0290   17.1410 C.3   264  PHE264      0.1605
    115  C        103.2590   18.0620   16.7030 C.2   264  PHE264      0.2264
    116  O        103.3070   18.4260   15.5240 O.2   264  PHE264     -0.2867
    117  CB       100.7730   17.4900   16.8060 C.3   264  PHE264      0.0534
    118  CG       100.2830   18.7270   17.5260 C.ar  264  PHE264     -0.0203
    119  CD1      100.5410   19.9960   17.0180 C.ar  264  PHE264     -0.0042
    120  CD2       99.5190   18.6220   18.6760 C.ar  264  PHE264     -0.0042
    121  CE1      100.0640   21.1370   17.6640 C.ar  264  PHE264     -0.0003
    122  CE2       99.0420   19.7670   19.3240 C.ar  264  PHE264     -0.0003
    123  CZ        99.3230   21.0160   18.8170 C.ar  264  PHE264     -0.0000
    124  N        100.0660   13.6970   10.6670 N.3   275  ALA275     -0.1231
    125  CA        99.6280   15.0360   11.0700 C.3   275  ALA275      0.1694
    126  C         98.4030   15.4670   10.2340 C.2   275  ALA275      0.2591
    127  O         97.4030   15.9220   10.7960 O.2   275  ALA275     -0.2718
    128  CB       100.7590   16.0360   10.8880 C.3   275  ALA275      0.0304
    129  N         98.4610   15.2450    8.9100 N.am  276  GLN276     -0.1979
    130  CA        97.3940   15.6210    7.9930 C.3   276  GLN276      0.1601
    131  C         96.1550   14.7280    7.9580 C.2   276  GLN276      0.2287
    132  O         95.0500   15.2790    7.9080 O.2   276  GLN276     -0.2864
    133  CB        97.9320   15.9480    6.5940 C.3   276  GLN276      0.0394
    134  CG        98.9020   17.1350    6.5400 C.3   276  GLN276      0.0908
    135  CD        98.2730   18.4000    7.0590 C.2   276  GLN276      0.2608
    136  OE1       98.3130   18.6920    8.2510 O.2   276  GLN276     -0.2717
    137  NE2       97.6290   19.1510    6.1870 N.am  276  GLN276     -0.0878
    138  N         93.7620   15.5200   10.8060 N.3   279  PHE279     -0.1241
    139  CA        93.2620   16.8810   10.6180 C.3   279  PHE279      0.1605
    140  C         92.2200   16.9780    9.5040 C.2   279  PHE279      0.2264
    141  O         91.2000   17.6560    9.6810 O.2   279  PHE279     -0.2867
    142  CB        94.4200   17.8570   10.3590 C.3   279  PHE279      0.0534
    143  CG        94.0230   19.3090   10.4710 C.ar  279  PHE279     -0.0203
    144  CD1       93.8130   19.8960   11.7140 C.ar  279  PHE279     -0.0042
    145  CD2       93.8900   20.1000    9.3360 C.ar  279  PHE279     -0.0042
    146  CE1       93.4680   21.2430   11.8200 C.ar  279  PHE279     -0.0003
    147  CE2       93.5340   21.4460    9.4450 C.ar  279  PHE279     -0.0003
    148  CZ        93.3370   22.0110   10.6840 C.ar  279  PHE279     -0.0000
    149  N         88.7490   17.2350   11.3920 N.3   283  VAL283     -0.1245
    150  CA        88.5530   18.6770   11.5250 C.3   283  VAL283      0.1561
    151  C         87.9720   19.2320   10.2370 C.2   283  VAL283      0.2260
    152  O         86.8480   19.7220   10.2570 O.2   283  VAL283     -0.2867
    153  CB        89.8150   19.4660   12.0140 C.3   283  VAL283      0.0252
    154  CG1       89.5030   20.9400   12.2250 C.3   283  VAL283      0.0019
    155  CG2       90.4050   18.8630   13.2830 C.3   283  VAL283      0.0019
@<TRIPOS>BOND
     1    72    71    2
     2    64    63    2
     3    71    70    1
     4    77    75   ar
     5    63    69   am
     6    63    62    1
     7    70    69    1
     8    70    73    1
     9    62    65    1
    10    62    61    1
    11    75    76   ar
    12    75    74    1
    13    73    74    1
    14    67    66    2
    15    65    66    1
    16    66    68   am
    17    84    82    1
    18    78    79    1
    19    82    79    1
    20    82    83    1
    21    79    80    1
    22   137   135   am
    23    56    55    2
    24    80    81    2
    25    55    54    1
    26   134   133    1
    27   134   135    1
    28   133   130    1
    29   135   136    2
    30    45    46    1
    31     9     7   ar
    32     9    11   ar
    33     4     3    2
    34    48    47    2
    35     7     6   ar
    36    47    53   am
    37    47    46    1
    38    54    53    1
    39    54    57    1
    40   132   131    2
    41    46    49    1
    42   131   130    1
    43   130   129    1
    44    11    10   ar
    45     2     3    1
    46     2     1    1
    47     2     5    1
    48    85    86    1
    49     3    12   am
    50     6     5    1
    51     6     8   ar
    52   129   126   am
    53    10     8   ar
    54    57    58    1
    55    57    59    1
    56    58    60    1
    57   145   147   ar
    58   145   143   ar
    59    49    50    1
    60   147   148   ar
    61    99    98    1
    62   140   141    2
    63   140   139    1
    64    14    13    1
    65    14    15    2
    66    12    13    1
    67    89    86    1
    68    89    90    1
    69    51    50   ar
    70    86    87    1
    71    13    16    1
    72    98    97    1
    73    98   100    1
    74    93    87   am
    75    93    94    1
    76   126   127    2
    77   126   125    1
    78   151   152    2
    79   151   150    1
    80    97    94    1
    81    50    52   ar
    82   142   143    1
    83   142   139    1
    84   143   144   ar
    85   139   138    1
    86   124   125    1
    87   148   146   ar
    88    87    88    2
    89    92    90    1
    90   128   125    1
    91    94    95    1
    92    90    91    1
    93    95    96    2
    94   149   150    1
    95   150   153    1
    96    16    17    1
    97   144   146   ar
    98    19    17   ar
    99    19    21   ar
   100    17    18   ar
   101   153   154    1
   102   153   155    1
   103    21    20   ar
   104    18    20   ar
   105    36    34    1
   106    34    35    1
   107    34    31    1
   108   101   102    1
   109    43    44    1
   110    43    42    1
   111   110   108   ar
   112   110   111   ar
   113   108   106   ar
   114    31    30    1
   115    31    32    1
   116   112   111    1
   117   111   109   ar
   118   106   105    1
   119   106   107   ar
   120   105   102    1
   121   109   107   ar
   122    33    32    2
   123    42    41    1
   124   102   103    1
   125   116   115    2
   126   103   104    2
   127   115   114    1
   128   117   114    1
   129   117   118    1
   130    41    38    1
   131   119   118   ar
   132   119   121   ar
   133   114   113    1
   134   118   120   ar
   135    38    37    1
   136    38    39    1
   137   121   123   ar
   138   120   122   ar
   139   123   122   ar
   140    40    39    2
   141    26    23    1
   142    26    27    1
   143    22    23    1
   144    23    24    1
   145    29    27   am
   146    27    28    2
   147    24    25    2
