@<TRIPOS>MOLECULE
tmp/4e91A01.pdb
 178 171 0 0 0
SMALL
GASTEIGER

@<TRIPOS>ATOM
      1  N          6.0910   39.7020   13.3830 N.3    17  TRP17      -0.1227
      2  CA         6.1720   39.1690   14.7490 C.3    17  TRP17       0.1737
      3  C          6.4010   37.6540   14.7390 C.2    17  TRP17       0.2595
      4  O          7.2000   37.1380   15.5280 O.2    17  TRP17      -0.2718
      5  CB         4.9000   39.5570   15.5200 C.3    17  TRP17       0.0564
      6  CG         4.7460   39.0170   16.9230 C.ar   17  TRP17       0.0003
      7  CD1        3.7270   38.2330   17.3810 C.ar   17  TRP17       0.0946
      8  CD2        5.6140   39.2420   18.0470 C.ar   17  TRP17       0.0152
      9  NE1        3.9060   37.9540   18.7150 N.ar   17  TRP17      -0.2442
     10  CE2        5.0560   38.5580   19.1460 C.ar   17  TRP17       0.0810
     11  CE3        6.8070   39.9480   18.2290 C.ar   17  TRP17       0.0012
     12  CZ2        5.6470   38.5650   20.4170 C.ar   17  TRP17       0.0191
     13  CZ3        7.3930   39.9630   19.4980 C.ar   17  TRP17       0.0001
     14  CH2        6.8100   39.2710   20.5720 C.ar   17  TRP17       0.0015
     15  N          5.7300   36.9440   13.8300 N.am   18  VAL18      -0.1980
     16  CA         5.9200   35.5040   13.6840 C.3    18  VAL18       0.1595
     17  C          7.4030   35.1830   13.5300 C.2    18  VAL18       0.2287
     18  O          7.9210   34.2420   14.1390 O.2    18  VAL18      -0.2864
     19  CB         5.1830   34.9610   12.4430 C.3    18  VAL18       0.0276
     20  CG1        5.5660   33.5140   12.1830 C.3    18  VAL18       0.0022
     21  CG2        3.6680   35.0990   12.6080 C.3    18  VAL18       0.0022
     22  N          9.4860   36.0420   16.8460 N.3    21  VAL21      -0.1231
     23  CA         9.3380   34.9960   17.8630 C.3    21  VAL21       0.1692
     24  C         10.1350   33.7490   17.5010 C.2    21  VAL21       0.2591
     25  O         10.7910   33.1410   18.3530 O.2    21  VAL21      -0.2718
     26  CB         7.8740   34.6290   18.1100 C.3    21  VAL21       0.0266
     27  CG1        7.7740   33.5090   19.1130 C.3    21  VAL21       0.0020
     28  CG2        7.1310   35.8270   18.6320 C.3    21  VAL21       0.0020
     29  N         10.1010   33.3800   16.2250 N.am   22  GLU22      -0.1979
     30  CA        10.8810   32.2370   15.7690 C.3    22  GLU22       0.1602
     31  C         12.3720   32.4420   16.0360 C.2    22  GLU22       0.2287
     32  O         13.0430   31.5650   16.6040 O.2    22  GLU22      -0.2864
     33  CB        10.6470   31.9760   14.2730 C.3    22  GLU22       0.0415
     34  CG        11.3600   30.7170   13.7920 C.3    22  GLU22       0.1163
     35  CD        11.3150   30.5250   12.2870 C.2    22  GLU22       0.3649
     36  OE1       11.4350   29.3640   11.8400 O.co2  22  GLU22      -0.2457
     37  OE2       11.1740   31.5260   11.5550 O.co2  22  GLU22      -0.2457
     38  N         13.1330   32.2720   19.7810 N.3    25  ALA25      -0.1231
     39  CA        12.3260   31.2450   20.4400 C.3    25  ALA25       0.1694
     40  C         12.8070   30.9690   21.8580 C.2    25  ALA25       0.2592
     41  O         14.0020   30.7830   22.0900 O.2    25  ALA25      -0.2718
     42  CB        12.3310   29.9640   19.6370 C.3    25  ALA25       0.0304
     43  N         11.8520   30.9710   22.7870 N.am   26  PHE26      -0.1962
     44  CA        12.0450   30.5540   24.1830 C.3    26  PHE26       0.1771
     45  C         12.9000   31.4960   25.0280 C.2    26  PHE26       0.2620
     46  O         13.2060   31.1900   26.1930 O.2    26  PHE26      -0.2715
     47  CB        12.5880   29.1180   24.2690 C.3    26  PHE26       0.0574
     48  CG        11.6600   28.0700   23.7340 C.ar   26  PHE26      -0.0200
     49  CD1       10.2940   28.2820   23.6440 C.ar   26  PHE26      -0.0042
     50  CD2       12.1690   26.8450   23.3240 C.ar   26  PHE26      -0.0042
     51  CE1        9.4540   27.2880   23.1420 C.ar   26  PHE26      -0.0003
     52  CE2       11.3460   25.8520   22.8430 C.ar   26  PHE26      -0.0003
     53  CZ         9.9830   26.0690   22.7430 C.ar   26  PHE26      -0.0000
     54  N         13.2600   32.6540   24.4690 N.am   27  SER27      -0.1950
     55  CA        14.0790   33.6140   25.2020 C.3    27  SER27       0.1924
     56  C         13.2140   34.6490   25.9280 C.2    27  SER27       0.2314
     57  O         12.1670   35.0570   25.4240 O.2    27  SER27      -0.2863
     58  CB        15.0890   34.2910   24.2730 C.3    27  SER27       0.2116
     59  OG        14.4940   35.3370   23.5340 O.3    27  SER27      -0.2180
     60  N         11.5220   38.1150   24.5820 N.3    30  VAL30      -0.1231
     61  CA        10.2640   38.1130   23.8390 C.3    30  VAL30       0.1692
     62  C          9.1150   38.6190   24.6990 C.2    30  VAL30       0.2591
     63  O          8.1700   39.2090   24.1950 O.2    30  VAL30      -0.2718
     64  CB         9.9450   36.6990   23.3000 C.3    30  VAL30       0.0266
     65  CG1        8.4970   36.5790   22.8110 C.3    30  VAL30       0.0020
     66  CG2       10.9230   36.3450   22.1960 C.3    30  VAL30       0.0020
     67  N          9.2040   38.4060   26.0070 N.am   31  ILE31      -0.1980
     68  CA         8.0540   38.7000   26.8750 C.3    31  ILE31       0.1595
     69  C          7.6650   40.1880   26.9210 C.2    31  ILE31       0.2287
     70  O          6.4940   40.5250   26.7020 O.2    31  ILE31      -0.2864
     71  CB         8.2030   38.0410   28.2600 C.3    31  ILE31       0.0276
     72  CG1        8.2320   36.5210   28.0750 C.3    31  ILE31       0.0022
     73  CG2        7.0460   38.4260   29.1670 C.3    31  ILE31       0.0022
     74  CD1        8.5710   35.7340   29.3380 C.3    31  ILE31       0.0001
     75  N          6.1050   41.0730   23.6380 N.3    34  PHE34      -0.1241
     76  CA         4.6980   40.6640   23.6490 C.3    34  PHE34       0.1605
     77  C          3.8380   41.7100   24.3480 C.2    34  PHE34       0.2264
     78  O          2.7770   42.0830   23.8550 O.2    34  PHE34      -0.2867
     79  CB         4.5250   39.2890   24.3280 C.3    34  PHE34       0.0534
     80  CG         3.1060   38.9870   24.7360 C.ar   34  PHE34      -0.0203
     81  CD1        2.1760   38.5520   23.8020 C.ar   34  PHE34      -0.0042
     82  CD2        2.7000   39.1660   26.0580 C.ar   34  PHE34      -0.0042
     83  CE1        0.8620   38.2880   24.1850 C.ar   34  PHE34      -0.0003
     84  CE2        1.4040   38.9100   26.4420 C.ar   34  PHE34      -0.0003
     85  CZ         0.4810   38.4660   25.5090 C.ar   34  PHE34      -0.0000
     86  N         -3.2590   36.1700   17.4010 N.3    49  MET49      -0.1230
     87  CA        -1.8060   36.2670   17.4320 C.3    49  MET49       0.1702
     88  C         -1.1540   34.9380   17.8110 C.2    49  MET49       0.2592
     89  O         -0.2110   34.4820   17.1520 O.2    49  MET49      -0.2718
     90  CB        -1.3800   37.3580   18.4150 C.3    49  MET49       0.0401
     91  CG         0.1080   37.6260   18.4530 C.3    49  MET49       0.0596
     92  SD         0.9250   36.5200   19.6060 S.3    49  MET49      -0.1393
     93  CE         0.1550   37.0590   21.1290 C.3    49  MET49       0.0692
     94  N         -1.6370   34.3300   18.8910 N.am   50  LEU50      -0.1980
     95  CA        -1.0920   33.0520   19.3330 C.3    50  LEU50       0.1596
     96  C         -1.2040   32.0030   18.2270 C.2    50  LEU50       0.2287
     97  O         -0.2660   31.2540   17.9820 O.2    50  LEU50      -0.2864
     98  CB        -1.8180   32.5510   20.5960 C.3    50  LEU50       0.0297
     99  CG        -1.6130   33.3830   21.8690 C.3    50  LEU50       0.0022
    100  CD1       -2.4040   32.7850   23.0340 C.3    50  LEU50       0.0001
    101  CD2       -0.1250   33.4920   22.2420 C.3    50  LEU50       0.0001
    102  N          1.3190   32.8990   15.4330 N.3    53  VAL53      -0.1231
    103  CA         2.6890   32.6180   15.8570 C.3    53  VAL53       0.1692
    104  C          2.9900   31.1160   15.8240 C.2    53  VAL53       0.2593
    105  O          4.0690   30.6980   15.3730 O.2    53  VAL53      -0.2718
    106  CB         2.9900   33.2230   17.2660 C.3    53  VAL53       0.0266
    107  CG1        4.2540   32.5990   17.8680 C.3    53  VAL53       0.0020
    108  CG2        3.1320   34.7470   17.1770 C.3    53  VAL53       0.0020
    109  N          2.0300   30.3110   16.2760 N.am   54  GLY54      -0.1942
    110  CA         2.1720   28.8660   16.2880 C.3    54  GLY54       0.2014
    111  C          3.4170   28.4610   17.0460 C.2    54  GLY54       0.2639
    112  O          3.6660   28.9530   18.1470 O.2    54  GLY54      -0.2714
    113  N          4.2090   27.5710   16.4550 N.am   55  GLY55      -0.1939
    114  CA         5.5010   27.2330   17.0210 C.3    55  GLY55       0.2014
    115  C          5.6230   25.7930   17.4810 C.2    55  GLY55       0.2638
    116  O          5.1590   24.8520   16.8270 O.2    55  GLY55      -0.2714
    117  N          6.2450   25.6450   18.6400 N.am   56  HIS56      -0.1973
    118  CA         6.6180   24.3610   19.2130 C.3    56  HIS56       0.1656
    119  C          5.4020   23.6900   19.8480 C.2    56  HIS56       0.2291
    120  O          4.7620   24.2530   20.7330 O.2    56  HIS56      -0.2864
    121  CB         7.7130   24.6530   20.2450 C.3    56  HIS56       0.0771
    122  CG         8.2870   23.4430   20.9030 C.ar   56  HIS56       0.0820
    123  ND1        7.6230   22.7540   21.8940 N.ar   56  HIS56      -0.2267
    124  CD2        9.4880   22.8350   20.7570 C.ar   56  HIS56       0.1154
    125  CE1        8.3740   21.7440   22.3010 C.ar   56  HIS56       0.1986
    126  NE2        9.5130   21.7740   21.6300 N.ar   56  HIS56      -0.2212
    127  N          5.2040   23.1660   23.7080 N.3    59  ALA59      -0.1231
    128  CA         5.1670   24.4810   24.3350 C.3    59  ALA59       0.1694
    129  C          3.7740   25.0930   24.2270 C.2    59  ALA59       0.2591
    130  O          3.2680   25.6740   25.1860 O.2    59  ALA59      -0.2718
    131  CB         6.2230   25.4020   23.7150 C.3    59  ALA59       0.0304
    132  N          3.1480   24.9380   23.0610 N.am   60  MET60      -0.1979
    133  CA         1.7910   25.4420   22.8400 C.3    60  MET60       0.1605
    134  C          0.8100   24.7830   23.7930 C.2    60  MET60       0.2287
    135  O         -0.0690   25.4440   24.3510 O.2    60  MET60      -0.2864
    136  CB         1.3620   25.2200   21.3850 C.3    60  MET60       0.0413
    137  CG         2.0600   26.1400   20.4070 C.3    60  MET60       0.0598
    138  SD         1.7080   25.7670   18.6650 S.3    60  MET60      -0.1393
    139  CE        -0.0640   25.9840   18.6250 C.3    60  MET60       0.0692
    140  N          1.3110   26.1690   27.2840 N.3    63  LEU63      -0.1245
    141  CA         0.6850   27.4830   27.3660 C.3    63  LEU63       0.1561
    142  C         -0.8190   27.3330   27.5300 C.2    63  LEU63       0.2260
    143  O         -1.4340   28.0140   28.3500 O.2    63  LEU63      -0.2867
    144  CB         1.0050   28.3130   26.1180 C.3    63  LEU63       0.0270
    145  CG         0.3450   29.6890   26.0210 C.3    63  LEU63       0.0019
    146  CD1        0.7210   30.5760   27.2180 C.3    63  LEU63       0.0001
    147  CD2        0.7260   30.3640   24.6920 C.3    63  LEU63       0.0001
    148  N         -1.2220   34.5340   29.8660 N.3   119  ILE119     -0.1245
    149  CA        -0.3150   34.1790   28.7780 C.3   119  ILE119      0.1561
    150  C          1.1300   34.3660   29.2350 C.2   119  ILE119      0.2260
    151  O          1.9800   33.5090   29.0000 O.2   119  ILE119     -0.2867
    152  CB        -0.6050   35.0160   27.5200 C.3   119  ILE119      0.0252
    153  CG1       -1.9910   34.6570   26.9620 C.3   119  ILE119      0.0019
    154  CG2        0.4850   34.7950   26.4610 C.3   119  ILE119      0.0019
    155  CD1       -2.5040   35.5910   25.8630 C.3   119  ILE119      0.0001
    156  N          4.2830   31.9030   29.2830 N.3   123  LEU123     -0.1245
    157  CA         5.5450   32.1720   28.5880 C.3   123  LEU123      0.1561
    158  C          6.7410   32.0380   29.5340 C.2   123  LEU123      0.2260
    159  O          7.7770   31.5010   29.1580 O.2   123  LEU123     -0.2867
    160  CB         5.5510   33.5570   27.9410 C.3   123  LEU123      0.0270
    161  CG         4.4610   33.8060   26.8920 C.3   123  LEU123      0.0019
    162  CD1        4.6290   35.2010   26.3320 C.3   123  LEU123      0.0001
    163  CD2        4.5490   32.7790   25.7810 C.3   123  LEU123      0.0001
    164  N          7.5090   28.4340   30.1940 N.3   126  ILE126     -0.1231
    165  CA         8.1580   27.8940   28.9900 C.3   126  ILE126      0.1692
    166  C          9.6380   28.3000   28.9110 C.2   126  ILE126      0.2591
    167  O         10.5040   27.4800   28.5730 O.2   126  ILE126     -0.2718
    168  CB         7.3870   28.3300   27.7390 C.3   126  ILE126      0.0266
    169  CG1        6.0330   27.6210   27.7090 C.3   126  ILE126      0.0019
    170  CG2        8.2010   28.0470   26.4650 C.3   126  ILE126      0.0020
    171  CD1        5.0420   28.2610   26.7540 C.3   126  ILE126      0.0001
    172  N          9.9410   29.5480   29.2530 N.am  127  VAL127     -0.1980
    173  CA        11.3380   29.9840   29.2950 C.3   127  VAL127      0.1595
    174  C         12.1470   29.0690   30.1990 C.2   127  VAL127      0.2287
    175  O         13.1950   28.5690   29.8080 O.2   127  VAL127     -0.2864
    176  CB        11.4810   31.4390   29.7770 C.3   127  VAL127      0.0276
    177  CG1       12.9440   31.7500   30.1590 C.3   127  VAL127      0.0022
    178  CG2       10.9930   32.3790   28.7090 C.3   127  VAL127      0.0022
@<TRIPOS>BOND
     1    37    35   ar
     2    36    35   ar
     3    20    19    1
     4    35    34    1
     5    19    21    1
     6    19    16    1
     7     1     2    1
     8    17    16    1
     9    17    18    2
    10    16    15    1
    11    34    33    1
    12    15     3   am
    13    33    30    1
    14     3     2    1
    15     3     4    2
    16     2     5    1
    17   105   104    2
    18   102   103    1
    19     5     6    1
    20    30    31    1
    21    30    29    1
    22   104   103    1
    23   104   109   am
    24   103   106    1
    25    31    32    2
    26    29    24   am
    27   109   110    1
    28   110   111    1
    29   113   114    1
    30   113   111   am
    31   116   115    2
    32    22    23    1
    33     6     7   ar
    34     6     8   ar
    35   114   115    1
    36   111   112    2
    37    89    88    2
    38   108   106    1
    39   106   107    1
    40     7     9   ar
    41    86    87    1
    42    87    88    1
    43    87    90    1
    44   115   117   am
    45    24    23    1
    46    24    25    2
    47    88    94   am
    48    23    26    1
    49    97    96    2
    50     8    11   ar
    51     8    10   ar
    52    26    28    1
    53    26    27    1
    54    96    95    1
    55    11    13   ar
    56    90    91    1
    57    91    92    1
    58   139   138    1
    59   117   118    1
    60   138   137    1
    61     9    10   ar
    62    94    95    1
    63    10    12   ar
    64   118   119    1
    65   118   121    1
    66    95    98    1
    67    13    14   ar
    68    92    93    1
    69    42    39    1
    70    38    39    1
    71   119   120    2
    72   121   122    1
    73   137   136    1
    74    12    14   ar
    75    39    40    1
    76    98    99    1
    77   124   122   ar
    78   124   126   ar
    79   122   123   ar
    80   136   133    1
    81   126   125   ar
    82    40    41    2
    83    40    43   am
    84    99   101    1
    85    99   100    1
    86   123   125   ar
    87    66    64    1
    88    53    52   ar
    89    53    51   ar
    90    43    44    1
    91    65    64    1
    92   133   132    1
    93   133   134    1
    94    52    50   ar
    95   132   129   am
    96    51    49   ar
    97    64    61    1
    98    50    48   ar
    99    59    58    1
   100    75    76    1
   101    49    48   ar
   102    76    79    1
   103    76    77    1
   104   127   128    1
   105   131   128    1
   106    48    47    1
   107   134   135    2
   108    81    83   ar
   109    81    80   ar
   110    61    60    1
   111    61    62    1
   112    78    77    2
   113    44    47    1
   114    44    45    1
   115    83    85   ar
   116    63    62    2
   117   129   128    1
   118   129   130    2
   119    58    55    1
   120    79    80    1
   121    54    45   am
   122    54    55    1
   123   147   145    1
   124    62    67   am
   125    80    82   ar
   126    45    46    2
   127    55    56    1
   128    57    56    2
   129    85    84   ar
   130   163   161    1
   131   155   153    1
   132    67    68    1
   133   145   144    1
   134   145   146    1
   135    82    84   ar
   136   144   141    1
   137   162   161    1
   138   154   152    1
   139   170   168    1
   140    70    69    2
   141   171   169    1
   142    68    69    1
   143    68    71    1
   144   161   160    1
   145   153   152    1
   146   140   141    1
   147   141   142    1
   148   152   149    1
   149   142   143    2
   150   169   168    1
   151   168   165    1
   152   160   157    1
   153    72    71    1
   154    72    74    1
   155    71    73    1
   156   167   166    2
   157   157   156    1
   158   157   158    1
   159   178   176    1
   160   149   150    1
   161   149   148    1
   162   166   165    1
   163   166   172   am
   164   165   164    1
   165   151   150    2
   166   159   158    2
   167   172   173    1
   168   173   176    1
   169   173   174    1
   170   176   177    1
   171   175   174    2
