@<TRIPOS>MOLECULE
tmp/4e92B01.pdb
 140 142 0 0 0
SMALL
GASTEIGER

@<TRIPOS>ATOM
      1  N         32.3810   18.4110    7.0850 N.3    80  TRP80      -0.1241
      2  CA        33.2170   18.1360    8.2480 C.3    80  TRP80       0.1605
      3  C         34.6270   17.7560    7.8170 C.2    80  TRP80       0.2264
      4  O         35.6080   18.3180    8.3040 O.2    80  TRP80      -0.2867
      5  CB        32.6230   17.0230    9.1130 C.3    80  TRP80       0.0550
      6  CG        33.5620   16.5640   10.1930 C.ar   80  TRP80       0.0003
      7  CD1       34.4640   15.5440   10.1140 C.ar   80  TRP80       0.0946
      8  CD2       33.7040   17.1240   11.5070 C.ar   80  TRP80       0.0152
      9  NE1       35.1530   15.4260   11.2980 N.ar   80  TRP80      -0.2442
     10  CE2       34.7070   16.3850   12.1690 C.ar   80  TRP80       0.0810
     11  CE3       33.0780   18.1730   12.1890 C.ar   80  TRP80       0.0012
     12  CZ2       35.0980   16.6600   13.4800 C.ar   80  TRP80       0.0191
     13  CZ3       33.4670   18.4460   13.4920 C.ar   80  TRP80       0.0001
     14  CH2       34.4680   17.6910   14.1230 C.ar   80  TRP80       0.0015
     15  N         38.0660   19.6750    8.6960 N.3    84  HIS84      -0.1227
     16  CA        38.8070   18.9620    9.7390 C.3    84  HIS84       0.1737
     17  C         39.6790   17.8150    9.2320 C.2    84  HIS84       0.2438
     18  O         39.3880   17.2180    8.1990 O.2    84  HIS84      -0.2733
     19  CB        37.8520   18.4870   10.8400 C.3    84  HIS84       0.0758
     20  CG        37.2660   19.6060   11.6410 C.ar   84  HIS84       0.0818
     21  ND1       35.9540   20.0060   11.5150 N.ar   84  HIS84      -0.2268
     22  CD2       37.8250   20.4340   12.5560 C.ar   84  HIS84       0.1154
     23  CE1       35.7260   21.0230   12.3270 C.ar   84  HIS84       0.1986
     24  NE2       36.8450   21.3030   12.9700 N.ar   84  HIS84      -0.2212
     25  N         40.7610   17.5110    9.9710 N.am   85  PRO85      -0.2729
     26  CA        41.7800   16.5210    9.5970 C.3    85  PRO85       0.1401
     27  C         41.2720   15.0820    9.5700 C.2    85  PRO85       0.2269
     28  O         40.1000   14.8150    9.8320 O.2    85  PRO85      -0.2865
     29  CB        42.8350   16.6660   10.7050 C.3    85  PRO85       0.0296
     30  CG        42.5830   18.0000   11.3180 C.3    85  PRO85       0.0237
     31  CD        41.1060   18.1950   11.2290 C.3    85  PRO85       0.0939
     32  N         43.9940    7.5630   20.7750 N.3    90  MET90      -0.1230
     33  CA        42.6430    7.8150   20.2770 C.3    90  MET90       0.1702
     34  C         42.6620    8.6100   18.9730 C.2    90  MET90       0.2592
     35  O         43.2580    9.6860   18.8970 O.2    90  MET90      -0.2718
     36  CB        41.7980    8.5320   21.3340 C.3    90  MET90       0.0401
     37  CG        40.3100    8.5720   21.0120 C.3    90  MET90       0.0596
     38  SD        39.3120    9.3040   22.3270 S.3    90  MET90      -0.1393
     39  CE        39.4960    8.0920   23.6330 C.3    90  MET90       0.0692
     40  N         42.0090    8.0680   17.9500 N.am   91  ARG91      -0.1966
     41  CA        41.9810    8.6860   16.6280 C.3    91  ARG91       0.1729
     42  C         40.9870    9.8450   16.5760 C.2    91  ARG91       0.2616
     43  O         40.1550   10.0030   17.4710 O.2    91  ARG91      -0.2715
     44  CB        41.6200    7.6440   15.5640 C.3    91  ARG91       0.0348
     45  CG        40.1870    7.1300   15.6680 C.3    91  ARG91       0.0492
     46  CD        39.9810    5.8370   14.8890 C.3    91  ARG91       0.2205
     47  NE        38.5990    5.3690   14.9730 N.pl3  91  ARG91      -0.0865
     48  CZ        37.6590    5.6650   14.0820 C.cat  91  ARG91       0.5346
     49  NH1       37.9540    6.4230   13.0340 N.pl3  91  ARG91       0.1354
     50  NH2       36.4250    5.2030   14.2330 N.pl3  91  ARG91       0.1354
     51  N         41.0820   10.6530   15.5250 N.am   92  GLU92      -0.1977
     52  CA        40.1600   11.7650   15.3310 C.3    92  GLU92       0.1602
     53  C         38.9930   11.3390   14.4480 C.2    92  GLU92       0.2287
     54  O         39.1910   10.6600   13.4390 O.2    92  GLU92      -0.2864
     55  CB        40.8740   12.9710   14.7130 C.3    92  GLU92       0.0415
     56  CG        41.0360   14.1500   15.6660 C.3    92  GLU92       0.1163
     57  CD        41.0620   15.4880   14.9450 C.2    92  GLU92       0.3649
     58  OE1       39.9770   15.9980   14.5870 O.co2  92  GLU92      -0.2457
     59  OE2       42.1690   16.0280   14.7390 O.co2  92  GLU92      -0.2457
     60  N         35.3160    9.9260   22.8000 N.3   111  TRP111     -0.1241
     61  CA        35.4190   11.2820   22.2790 C.3   111  TRP111      0.1605
     62  C         34.6700   12.2580   23.1820 C.2   111  TRP111      0.2264
     63  O         35.1590   13.3460   23.4770 O.2   111  TRP111     -0.2867
     64  CB        34.8650   11.3490   20.8540 C.3   111  TRP111      0.0550
     65  CG        35.7610   10.7240   19.8330 C.ar  111  TRP111      0.0003
     66  CD1       37.1170   10.8410   19.7520 C.ar  111  TRP111      0.0946
     67  CD2       35.3670    9.8700   18.7520 C.ar  111  TRP111      0.0152
     68  NE1       37.5920   10.1210   18.6830 N.ar  111  TRP111     -0.2442
     69  CE2       36.5380    9.5160   18.0520 C.ar  111  TRP111      0.0810
     70  CE3       34.1370    9.3780   18.3030 C.ar  111  TRP111      0.0012
     71  CZ2       36.5170    8.6830   16.9320 C.ar  111  TRP111      0.0191
     72  CZ3       34.1190    8.5510   17.1890 C.ar  111  TRP111      0.0001
     73  CH2       35.3000    8.2130   16.5180 C.ar  111  TRP111      0.0015
     74  N         36.4140   12.5320   26.8120 N.3   114  HIS114     -0.1241
     75  CA        37.8370   12.8560   26.7820 C.3   114  HIS114      0.1621
     76  C         38.1180   14.2640   27.2980 C.2   114  HIS114      0.2264
     77  O         37.2410   15.1290   27.2900 O.2   114  HIS114     -0.2867
     78  CB        38.3830   12.7090   25.3590 C.3   114  HIS114      0.0745
     79  CG        39.8700   12.8460   25.2630 C.ar  114  HIS114      0.0817
     80  ND1       40.5080   14.0670   25.2860 N.ar  114  HIS114     -0.2268
     81  CD2       40.8450   11.9150   25.1400 C.ar  114  HIS114      0.1154
     82  CE1       41.8120   13.8830   25.1850 C.ar  114  HIS114      0.1986
     83  NE2       42.0430   12.5860   25.0940 N.ar  114  HIS114     -0.2212
     84  N         40.7370   17.2750   26.4840 N.3   116  PRO116     -0.2103
     85  CA        39.4320   17.8910   26.2200 C.3   116  PRO116      0.1489
     86  C         38.5810   17.0490   25.2680 C.2   116  PRO116      0.2418
     87  O         39.1190   16.2090   24.5480 O.2   116  PRO116     -0.2734
     88  CB        39.8160   19.2070   25.5520 C.3   116  PRO116      0.0282
     89  CG        41.0430   18.8650   24.7950 C.3   116  PRO116      0.0208
     90  CD        41.7930   17.8650   25.6450 C.3   116  PRO116      0.0893
     91  N         37.2600   17.2870   25.2540 N.am  117  PRO117     -0.2718
     92  CA        36.3020   16.4440   24.5290 C.3   117  PRO117      0.1535
     93  C         36.0540   16.8460   23.0740 C.2   117  PRO117      0.2598
     94  O         36.2810   17.9900   22.6910 O.2   117  PRO117     -0.2715
     95  CB        35.0160   16.6540   25.3220 C.3   117  PRO117      0.0310
     96  CG        35.1100   18.0720   25.7710 C.3   117  PRO117      0.0237
     97  CD        36.5790   18.3270   26.0470 C.3   117  PRO117      0.0939
     98  N         35.5970   15.8820   22.2780 N.am  118  ILE118     -0.1964
     99  CA        34.9740   16.1650   20.9890 C.3   118  ILE118      0.1712
    100  C         33.5330   15.6830   21.1040 C.2   118  ILE118      0.2458
    101  O         33.2820   14.4780   21.1560 O.2   118  ILE118     -0.2730
    102  CB        35.6590   15.4240   19.8350 C.3   118  ILE118      0.0289
    103  CG1       37.1340   15.8160   19.7430 C.3   118  ILE118      0.0022
    104  CG2       34.9430   15.7120   18.5210 C.3   118  ILE118      0.0023
    105  CD1       37.8850   15.1130   18.6360 C.3   118  ILE118      0.0001
    106  N         32.5790   16.6220   21.1750 N.am  119  PRO119     -0.2727
    107  CA        31.1810   16.2680   21.4470 C.3   119  PRO119      0.1402
    108  C         30.4710   15.7440   20.2030 C.2   119  PRO119      0.2269
    109  O         29.6020   16.4220   19.6470 O.2   119  PRO119     -0.2865
    110  CB        30.5740   17.5980   21.8920 C.3   119  PRO119      0.0296
    111  CG        31.3660   18.6200   21.1570 C.3   119  PRO119      0.0237
    112  CD        32.7700   18.0790   21.0670 C.3   119  PRO119      0.0939
    113  N         26.7150   16.0220   20.0270 N.3   122  GLU122     -0.1231
    114  CA        26.2420   17.3800   19.7900 C.3   122  GLU122      0.1699
    115  C         26.4340   17.7740   18.3340 C.2   122  GLU122      0.2592
    116  O         25.5810   18.4370   17.7480 O.2   122  GLU122     -0.2718
    117  CB        26.9680   18.3750   20.7020 C.3   122  GLU122      0.0402
    118  CG        26.5980   18.2550   22.1750 C.3   122  GLU122      0.1161
    119  CD        25.1030   18.3960   22.4120 C.2   122  GLU122      0.3649
    120  OE1       24.5370   19.4490   22.0500 O.co2 122  GLU122     -0.2457
    121  OE2       24.4930   17.4470   22.9480 O.co2 122  GLU122     -0.2457
    122  N         27.5610   17.3740   17.7560 N.am  123  ILE123     -0.1980
    123  CA        27.8540   17.6980   16.3650 C.3   123  ILE123      0.1595
    124  C         26.8310   17.0310   15.4430 C.2   123  ILE123      0.2287
    125  O         26.2310   17.6810   14.5930 O.2   123  ILE123     -0.2864
    126  CB        29.2760   17.2690   15.9730 C.3   123  ILE123      0.0276
    127  CG1       30.3080   18.0330   16.8120 C.3   123  ILE123      0.0022
    128  CG2       29.5140   17.5060   14.4860 C.3   123  ILE123      0.0022
    129  CD1       31.7120   17.4960   16.6870 C.3   123  ILE123      0.0001
    130  N         23.3740   18.6580   15.4660 N.3   126  ARG126     -0.1245
    131  CA        23.2240   19.8490   14.6340 C.3   126  ARG126      0.1563
    132  C         22.9030   19.4800   13.1860 C.2   126  ARG126      0.2260
    133  O         22.0860   20.1440   12.5420 O.2   126  ARG126     -0.2867
    134  CB        24.4640   20.7450   14.6870 C.3   126  ARG126      0.0307
    135  CG        24.8020   21.2520   16.0840 C.3   126  ARG126      0.0489
    136  CD        25.6600   22.5110   16.0170 C.3   126  ARG126      0.2205
    137  NE        26.8030   22.3490   15.1210 N.pl3 126  ARG126     -0.0865
    138  CZ        28.0150   21.9760   15.5180 C.cat 126  ARG126      0.5346
    139  NH1       28.2440   21.7280   16.8000 N.pl3 126  ARG126      0.1354
    140  NH2       28.9980   21.8540   14.6360 N.pl3 126  ARG126      0.1354
@<TRIPOS>BOND
     1     1     2    1
     2     3     2    1
     3     3     4    2
     4    18    17    2
     5     2     5    1
     6    15    16    1
     7     5     6    1
     8    17    16    1
     9    17    25   am
    10    27    26    1
    11    27    28    2
    12    26    25    1
    13    26    29    1
    14    16    19    1
    15    25    31    1
    16     7     6   ar
    17     7     9   ar
    18     6     8   ar
    19    29    30    1
    20    19    20    1
    21    31    30    1
    22     9    10   ar
    23     8    10   ar
    24     8    11   ar
    25    21    20   ar
    26    21    23   ar
    27    20    22   ar
    28    10    12   ar
    29    11    13   ar
    30    23    24   ar
    31   133   132    2
    32    22    24   ar
    33    49    48    1
    34   132   131    1
    35    54    53    2
    36    12    14   ar
    37    13    14   ar
    38    48    50    1
    39    48    47    2
    40    53    52    1
    41   128   126    1
    42    58    57   ar
    43   125   124    2
    44   131   134    1
    45   131   130    1
    46   140   138    1
    47   134   135    1
    48    55    52    1
    49    55    56    1
    50    59    57   ar
    51    46    47    1
    52    46    45    1
    53    57    56    1
    54   137   138    2
    55   137   136    1
    56    52    51    1
    57   124   123    1
    58   138   139    1
    59    51    42   am
    60    44    45    1
    61    44    41    1
    62   126   123    1
    63   126   127    1
    64   136   135    1
    65   123   122    1
    66    73    71   ar
    67    73    72   ar
    68    42    41    1
    69    42    43    2
    70    41    40    1
    71   129   127    1
    72    71    69   ar
    73    72    70   ar
    74   116   115    2
    75   122   115   am
    76    40    34   am
    77    69    68   ar
    78    69    67   ar
    79    70    67   ar
    80   115   114    1
    81   104   102    1
    82   105   103    1
    83    68    66   ar
    84    67    65   ar
    85    35    34    2
    86    34    33    1
    87   109   108    2
    88   103   102    1
    89    66    65   ar
    90   114   113    1
    91   114   117    1
    92    65    64    1
    93   102    99    1
    94   108   107    1
    95    33    32    1
    96    33    36    1
    97   117   118    1
    98    64    61    1
    99    99   100    1
   100    99    98    1
   101    37    36    1
   102    37    38    1
   103   112   111    1
   104   112   106    1
   105   100   101    2
   106   100   106   am
   107   111   110    1
   108   106   107    1
   109   107   110    1
   110   120   119   ar
   111   118   119    1
   112    98    93   am
   113    61    60    1
   114    61    62    1
   115    38    39    1
   116   119   121   ar
   117    94    93    2
   118    93    92    1
   119    62    63    2
   120    92    91    1
   121    92    95    1
   122    87    86    2
   123    89    88    1
   124    89    90    1
   125    83    81   ar
   126    83    82   ar
   127    81    79   ar
   128    82    80   ar
   129    91    86   am
   130    91    97    1
   131    79    80   ar
   132    79    78    1
   133    86    85    1
   134    95    96    1
   135    78    75    1
   136    88    85    1
   137    90    84    1
   138    96    97    1
   139    85    84    1
   140    75    74    1
   141    75    76    1
   142    77    76    2
