@<TRIPOS>MOLECULE
tmp/4e92B02.pdb
 166 160 0 0 0
SMALL
GASTEIGER

@<TRIPOS>ATOM
      1  N          9.2210   10.8260   21.6640 N.3    23  TRP23      -0.1241
      2  CA         9.7010   11.2890   20.3650 C.3    23  TRP23       0.1605
      3  C          8.7290   10.9150   19.2420 C.2    23  TRP23       0.2264
      4  O          8.3320   11.7590   18.4330 O.2    23  TRP23      -0.2867
      5  CB        11.0860   10.7030   20.0980 C.3    23  TRP23       0.0550
      6  CG        11.5980   10.9070   18.7090 C.ar   23  TRP23       0.0003
      7  CD1       12.0650    9.9470   17.8610 C.ar   23  TRP23       0.0946
      8  CD2       11.6990   12.1520   18.0030 C.ar   23  TRP23       0.0152
      9  NE1       12.4560   10.5150   16.6710 N.ar   23  TRP23      -0.2442
     10  CE2       12.2400   11.8670   16.7320 C.ar   23  TRP23       0.0810
     11  CE3       11.3850   13.4750   18.3220 C.ar   23  TRP23       0.0012
     12  CZ2       12.4760   12.8600   15.7790 C.ar   23  TRP23       0.0191
     13  CZ3       11.6150   14.4640   17.3670 C.ar   23  TRP23       0.0001
     14  CH2       12.1540   14.1460   16.1140 C.ar   23  TRP23       0.0015
     15  N          6.2350   13.5590   16.8270 N.3    27  VAL27      -0.1231
     16  CA         6.3520   13.4780   15.3780 C.3    27  VAL27       0.1692
     17  C          4.9720   13.2070   14.7550 C.2    27  VAL27       0.2591
     18  O          4.6710   13.6860   13.6630 O.2    27  VAL27      -0.2718
     19  CB         7.3870   12.4100   14.9540 C.3    27  VAL27       0.0266
     20  CG1        7.3930   12.2260   13.4470 C.3    27  VAL27       0.0020
     21  CG2        8.7790   12.8000   15.4380 C.3    27  VAL27       0.0020
     22  N          4.1290   12.4650   15.4730 N.am   28  GLU28      -0.1979
     23  CA         2.7700   12.1680   15.0090 C.3    28  GLU28       0.1602
     24  C          1.8110   13.3360   15.2200 C.2    28  GLU28       0.2287
     25  O          1.1340   13.7750   14.2900 O.2    28  GLU28      -0.2864
     26  CB         2.2150   10.9240   15.7110 C.3    28  GLU28       0.0415
     27  CG         2.9730    9.6400   15.4140 C.3    28  GLU28       0.1163
     28  CD         2.3970    8.4410   16.1530 C.2    28  GLU28       0.3649
     29  OE1        2.7210    7.2990   15.7690 O.co2  28  GLU28      -0.2457
     30  OE2        1.6240    8.6420   17.1150 O.co2  28  GLU28      -0.2457
     31  N          3.0300   16.5140   13.0810 N.3    31  ALA31      -0.1231
     32  CA         3.6320   16.1880   11.7890 C.3    31  ALA31       0.1694
     33  C          3.8710   17.4350   10.9430 C.2    31  ALA31       0.2592
     34  O          2.9630   18.2460   10.7600 O.2    31  ALA31      -0.2718
     35  CB         2.7600   15.2050   11.0300 C.3    31  ALA31       0.0304
     36  N          5.0920   17.5630   10.4270 N.am   32  PHE32      -0.1962
     37  CA         5.4970   18.6710    9.5560 C.3    32  PHE32       0.1771
     38  C          5.7980   19.9710   10.3070 C.2    32  PHE32       0.2620
     39  O          6.3210   20.9170    9.7170 O.2    32  PHE32      -0.2715
     40  CB         4.4410   18.9660    8.4690 C.3    32  PHE32       0.0574
     41  CG         4.2230   17.8400    7.4850 C.ar   32  PHE32      -0.0200
     42  CD1        5.0630   16.7420    7.4570 C.ar   32  PHE32      -0.0042
     43  CD2        3.1730   17.8950    6.5780 C.ar   32  PHE32      -0.0042
     44  CE1        4.8570   15.7130    6.5490 C.ar   32  PHE32      -0.0003
     45  CE2        2.9590   16.8670    5.6640 C.ar   32  PHE32      -0.0003
     46  CZ         3.8000   15.7790    5.6490 C.ar   32  PHE32      -0.0000
     47  N          5.4630   20.0320   11.5910 N.am   33  SER33      -0.1950
     48  CA         5.5590   21.3030   12.3110 C.3    33  SER33       0.1924
     49  C          6.9420   21.5600   12.8930 C.2    33  SER33       0.2314
     50  O          7.5760   20.6480   13.4190 O.2    33  SER33      -0.2863
     51  CB         4.5120   21.3880   13.4240 C.3    33  SER33       0.2116
     52  OG         4.6890   22.5770   14.1860 O.3    33  SER33      -0.2180
     53  N          8.1730   20.3950   16.4010 N.3    36  VAL36      -0.1231
     54  CA         8.8670   19.1310   16.6200 C.3    36  VAL36       0.1692
     55  C         10.3320   19.3310   17.0070 C.2    36  VAL36       0.2591
     56  O         10.8980   18.5370   17.7550 O.2    36  VAL36      -0.2718
     57  CB         8.7850   18.2360   15.3590 C.3    36  VAL36       0.0266
     58  CG1        9.7380   17.0520   15.4580 C.3    36  VAL36       0.0020
     59  CG2        7.3480   17.7610   15.1490 C.3    36  VAL36       0.0020
     60  N         10.9410   20.3990   16.4970 N.am   37  ILE37      -0.1980
     61  CA        12.3860   20.5720   16.6060 C.3    37  ILE37       0.1595
     62  C         12.8530   20.8670   18.0410 C.2    37  ILE37       0.2287
     63  O         13.7820   20.2230   18.5310 O.2    37  ILE37      -0.2864
     64  CB        12.9160   21.5980   15.5650 C.3    37  ILE37       0.0276
     65  CG1       12.4820   21.1620   14.1550 C.3    37  ILE37       0.0022
     66  CG2       14.4340   21.7300   15.6590 C.3    37  ILE37       0.0022
     67  CD1       12.9230   22.0720   13.0390 C.3    37  ILE37       0.0001
     68  N         16.0670    8.1270   15.2920 N.3    56  LEU56      -0.1245
     69  CA        15.7180    8.3030   13.8900 C.3    56  LEU56       0.1561
     70  C         15.0680    7.0570   13.2920 C.2    56  LEU56       0.2260
     71  O         14.1470    7.1590   12.4840 O.2    56  LEU56      -0.2867
     72  CB        16.9490    8.7000   13.0770 C.3    56  LEU56       0.0270
     73  CG        17.5460   10.0490   13.4710 C.3    56  LEU56       0.0019
     74  CD1       18.7000   10.4050   12.5490 C.3    56  LEU56       0.0001
     75  CD2       16.4740   11.1270   13.4370 C.3    56  LEU56       0.0001
     76  N         11.2550    6.4610   13.5140 N.3    59  VAL59      -0.1245
     77  CA        10.3940    7.2330   12.6190 C.3    59  VAL59       0.1561
     78  C         10.8350    7.0450   11.1750 C.2    59  VAL59       0.2260
     79  O         10.5000    7.8450   10.2970 O.2    59  VAL59      -0.2867
     80  CB        10.4000    8.7400   12.9660 C.3    59  VAL59       0.0252
     81  CG1        9.6570    8.9950   14.2690 C.3    59  VAL59       0.0019
     82  CG2       11.8270    9.2660   13.0400 C.3    59  VAL59       0.0019
     83  N          9.9800    5.0270    8.9030 N.3    61  GLY61      -0.1210
     84  CA         8.9660    4.6500    7.9320 C.3    61  GLY61       0.1956
     85  C          8.5120    5.7830    7.0250 C.2    61  GLY61       0.2612
     86  O          8.0140    5.5450    5.9250 O.2    61  GLY61      -0.2717
     87  N          8.6760    7.0180    7.4870 N.am   62  HIS62      -0.1961
     88  CA         8.3130    8.1850    6.6880 C.3    62  HIS62       0.1787
     89  C          9.4060    8.4500    5.6600 C.2    62  HIS62       0.2620
     90  O         10.3380    9.2190    5.8990 O.2    62  HIS62      -0.2715
     91  CB         8.0780    9.3910    7.5970 C.3    62  HIS62       0.0785
     92  CG         7.1230    9.1130    8.7170 C.ar   62  HIS62       0.0821
     93  ND1        5.7620    9.0130    8.5270 N.ar   62  HIS62      -0.2267
     94  CD2        7.3350    8.9010   10.0370 C.ar   62  HIS62       0.1154
     95  CE1        5.1750    8.7560    9.6840 C.ar   62  HIS62       0.1986
     96  NE2        6.1090    8.6800   10.6160 N.ar   62  HIS62      -0.2212
     97  N          9.2720    7.7930    4.5120 N.am   63  GLN63      -0.1963
     98  CA        10.3500    7.6590    3.5320 C.3    63  GLN63       0.1733
     99  C         10.9420    8.9710    3.0040 C.2    63  GLN63       0.2616
    100  O         12.1580    9.1500    3.0190 O.2    63  GLN63      -0.2715
    101  CB         9.8820    6.7750    2.3710 C.3    63  GLN63       0.0408
    102  CG         9.3620    5.4110    2.8240 C.3    63  GLN63       0.0908
    103  CD         8.5570    4.6990    1.7480 C.2    63  GLN63       0.2608
    104  OE1        8.7880    4.8930    0.5520 O.2    63  GLN63      -0.2717
    105  NE2        7.5960    3.8770    2.1710 N.am   63  GLN63      -0.0878
    106  N         10.0940    9.8810    2.5360 N.am   64  ALA64      -0.1963
    107  CA        10.5810   11.1340    1.9660 C.3    64  ALA64       0.1728
    108  C         11.3600   11.9650    2.9890 C.2    64  ALA64       0.2616
    109  O         12.4670   12.4450    2.7090 O.2    64  ALA64      -0.2715
    110  CB         9.4340   11.9440    1.3780 C.3    64  ALA64       0.0334
    111  N         10.7810   12.1310    4.1750 N.am   65  ALA65      -0.1963
    112  CA        11.4380   12.8910    5.2340 C.3    65  ALA65       0.1728
    113  C         12.7690   12.2450    5.6140 C.2    65  ALA65       0.2616
    114  O         13.7880   12.9240    5.7240 O.2    65  ALA65      -0.2715
    115  CB        10.5280   13.0200    6.4520 C.3    65  ALA65       0.0334
    116  N         12.7630   10.9300    5.7900 N.am   66  MET66      -0.1977
    117  CA        13.9830   10.2220    6.1650 C.3    66  MET66       0.1605
    118  C         15.1030   10.3920    5.1310 C.2    66  MET66       0.2287
    119  O         16.2710   10.5730    5.4930 O.2    66  MET66      -0.2864
    120  CB        13.6940    8.7430    6.4240 C.3    66  MET66       0.0413
    121  CG        14.8880    7.9700    6.9510 C.3    66  MET66       0.0598
    122  SD        15.6030    8.7080    8.4360 S.3    66  MET66      -0.1393
    123  CE        14.3330    8.3910    9.6390 C.3    66  MET66       0.0692
    124  N         16.6450   13.8220    5.3190 N.3    69  LEU69      -0.1245
    125  CA        17.5190   13.8760    6.4840 C.3    69  LEU69       0.1561
    126  C         18.8350   13.1670    6.1800 C.2    69  LEU69       0.2260
    127  O         19.9110   13.6680    6.5030 O.2    69  LEU69      -0.2867
    128  CB        16.8330   13.2490    7.7000 C.3    69  LEU69       0.0270
    129  CG        17.6890   13.0820    8.9600 C.3    69  LEU69       0.0019
    130  CD1       18.3670   14.3920    9.3350 C.3    69  LEU69       0.0001
    131  CD2       16.8500   12.5570   10.1110 C.3    69  LEU69       0.0001
    132  N         15.8970   18.3120    9.9280 N.3   132  LEU132     -0.1245
    133  CA        14.5310   18.5400   10.4010 C.3   132  LEU132      0.1561
    134  C         13.9870   19.8720    9.8840 C.2   132  LEU132      0.2260
    135  O         12.8160   19.9700    9.5090 O.2   132  LEU132     -0.2867
    136  CB        14.4500   18.4840   11.9310 C.3   132  LEU132      0.0270
    137  CG        14.7680   17.1310   12.5740 C.3   132  LEU132      0.0019
    138  CD1       14.7480   17.2560   14.0860 C.3   132  LEU132      0.0001
    139  CD2       13.7810   16.0670   12.1130 C.3   132  LEU132      0.0001
    140  N         12.9590   19.4680    6.3290 N.3   135  ILE135     -0.1231
    141  CA        11.6990   18.7280    6.2970 C.3   135  ILE135      0.1692
    142  C         10.5230   19.6710    6.5490 C.2   135  ILE135      0.2591
    143  O          9.4800   19.5730    5.8940 O.2   135  ILE135     -0.2718
    144  CB        11.7040   17.5750    7.3170 C.3   135  ILE135      0.0266
    145  CG1       12.6400   16.4590    6.8330 C.3   135  ILE135      0.0019
    146  CG2       10.2880   17.0520    7.5390 C.3   135  ILE135      0.0020
    147  CD1       13.1290   15.5260    7.9280 C.3   135  ILE135      0.0001
    148  N         10.6970   20.6010    7.4840 N.am  136  VAL136     -0.1980
    149  CA         9.6630   21.5980    7.7450 C.3   136  VAL136      0.1595
    150  C          9.3500   22.4300    6.4950 C.2   136  VAL136      0.2287
    151  O          8.1880   22.5690    6.1170 O.2   136  VAL136     -0.2864
    152  CB        10.0340   22.5280    8.9220 C.3   136  VAL136      0.0276
    153  CG1        9.0930   23.7290    8.9790 C.3   136  VAL136      0.0022
    154  CG2        9.9950   21.7530   10.2340 C.3   136  VAL136      0.0022
    155  N          7.4750   20.6670    3.4960 N.3   139  TYR139     -0.1241
    156  CA         6.0440   20.4550    3.6140 C.3   139  TYR139      0.1605
    157  C          5.2930   21.7160    4.0430 C.2   139  TYR139      0.2264
    158  O          4.1480   21.6400    4.4870 O.2   139  TYR139     -0.2867
    159  CB         5.7750   19.3240    4.6090 C.3   139  TYR139      0.0534
    160  CG         6.1580   17.9560    4.0980 C.ar  139  TYR139     -0.0201
    161  CD1        5.4130   17.3420    3.1010 C.ar  139  TYR139     -0.0009
    162  CD2        7.2510   17.2710    4.6190 C.ar  139  TYR139     -0.0009
    163  CE1        5.7460   16.0880    2.6290 C.ar  139  TYR139      0.0417
    164  CE2        7.5900   16.0140    4.1550 C.ar  139  TYR139      0.0417
    165  CZ         6.8310   15.4280    3.1580 C.ar  139  TYR139      0.1957
    166  OH         7.1510   14.1800    2.6860 O.3   139  TYR139     -0.2866
@<TRIPOS>BOND
     1   104   103    2
     2   110   107    1
     3   103   105   am
     4   103   102    1
     5   107   106    1
     6   107   108    1
     7   101   102    1
     8   101    98    1
     9   106    99   am
    10   163   161   ar
    11   163   165   ar
    12   166   165    1
    13   109   108    2
    14   108   111   am
    15    99   100    2
    16    99    98    1
    17   161   160   ar
    18   165   164   ar
    19   155   156    1
    20    98    97    1
    21   156   157    1
    22   156   159    1
    23   157   158    2
    24   160   159    1
    25   160   162   ar
    26   164   162   ar
    27   111   112    1
    28    97    89   am
    29   118   119    2
    30   118   117    1
    31   112   113    1
    32   112   115    1
    33   124   125    1
    34   113   114    2
    35   113   116   am
    36    46    45   ar
    37    46    44   ar
    38    89    90    2
    39    89    88    1
    40    45    43   ar
    41   116   117    1
    42   143   142    2
    43    86    85    2
    44   151   150    2
    45   117   120    1
    46   126   125    1
    47   126   127    2
    48   141   140    1
    49   141   142    1
    50   141   144    1
    51   120   121    1
    52   125   128    1
    53   150   149    1
    54    44    42   ar
    55   142   148   am
    56    43    41   ar
    57    88    87    1
    58    88    91    1
    59   145   144    1
    60   145   147    1
    61   121   122    1
    62    85    87   am
    63    85    84    1
    64   144   146    1
    65    42    41   ar
    66   148   149    1
    67    41    40    1
    68    91    92    1
    69   128   129    1
    70   149   152    1
    71    84    83    1
    72   122   123    1
    73    40    37    1
    74    93    92   ar
    75    93    95   ar
    76    92    94   ar
    77   152   153    1
    78   152   154    1
    79   129   130    1
    80   129   131    1
    81   135   134    2
    82    37    38    1
    83    37    36    1
    84    95    96   ar
    85    39    38    2
    86   134   133    1
    87   132   133    1
    88    94    96   ar
    89    79    78    2
    90    38    47   am
    91   133   136    1
    92    36    33   am
    93    34    33    2
    94    33    32    1
    95    35    32    1
    96    78    77    1
    97    47    48    1
    98    32    31    1
    99   136   137    1
   100   139   137    1
   101    48    49    1
   102    48    51    1
   103    71    70    2
   104    74    73    1
   105   137   138    1
   106    77    80    1
   107    77    76    1
   108    49    50    2
   109    80    82    1
   110    80    81    1
   111    67    65    1
   112    72    73    1
   113    72    69    1
   114    70    69    1
   115    51    52    1
   116    75    73    1
   117    20    19    1
   118    18    17    2
   119    69    68    1
   120    65    64    1
   121    25    24    2
   122    17    16    1
   123    17    22   am
   124    19    16    1
   125    19    21    1
   126    23    24    1
   127    23    22    1
   128    23    26    1
   129    59    57    1
   130    57    58    1
   131    57    54    1
   132    16    15    1
   133    27    26    1
   134    27    28    1
   135    64    66    1
   136    64    61    1
   137    29    28   ar
   138    12    14   ar
   139    12    10   ar
   140    14    13   ar
   141    28    30   ar
   142    53    54    1
   143    60    61    1
   144    60    55   am
   145    61    62    1
   146    54    55    1
   147     9    10   ar
   148     9     7   ar
   149    10     8   ar
   150    55    56    2
   151    13    11   ar
   152     7     6   ar
   153     8    11   ar
   154     8     6   ar
   155    62    63    2
   156     4     3    2
   157     6     5    1
   158     3     2    1
   159     5     2    1
   160     2     1    1
