@<TRIPOS>MOLECULE
tmp/4e93A00.pdb
 179 167 0 0 0
SMALL
GASTEIGER

@<TRIPOS>ATOM
      1  N          0.2490   26.3880   21.6490 N.3   119  GLN119     -0.1231
      2  CA         1.4340   25.8130   22.2700 C.3   119  GLN119      0.1698
      3  C          1.1760   25.2230   23.6860 C.2   119  GLN119      0.2592
      4  O          0.4480   25.8000   24.4830 O.2   119  GLN119     -0.2718
      5  CB         2.5010   26.8650   22.2710 C.3   119  GLN119      0.0381
      6  CG         3.8840   26.3100   22.3750 C.3   119  GLN119      0.0905
      7  CD         4.5590   26.9330   23.5320 C.2   119  GLN119      0.2608
      8  OE1        5.5840   27.6100   23.4000 O.2   119  GLN119     -0.2717
      9  NE2        3.9270   26.7920   24.6820 N.am  119  GLN119     -0.0878
     10  N          1.7070   24.0340   23.9640 N.am  120  ILE120     -0.1966
     11  CA         1.4260   23.3130   25.2450 C.3   120  ILE120      0.1727
     12  C          2.6940   23.0130   26.0010 C.2   120  ILE120      0.2617
     13  O          2.7200   22.1960   26.9010 O.2   120  ILE120     -0.2715
     14  CB         0.5430   22.0510   25.0620 C.3   120  ILE120      0.0290
     15  CG1        1.1630   21.0520   24.0430 C.3   120  ILE120      0.0022
     16  CG2       -0.8380   22.5560   24.6560 C.3   120  ILE120      0.0023
     17  CD1        0.4610   19.7200   23.7810 C.3   120  ILE120      0.0001
     18  N          3.7440   23.7470   25.6740 N.am  121  GLY121     -0.1940
     19  CA         5.0160   23.5910   26.3540 C.3   121  GLY121      0.2014
     20  C          6.1330   23.2770   25.3940 C.2   121  GLY121      0.2639
     21  O          6.0240   23.5210   24.2020 O.2   121  GLY121     -0.2714
     22  N          7.1970   22.7120   25.9460 N.am  122  ARG122     -0.1963
     23  CA         8.4120   22.4470   25.2490 C.3   122  ARG122      0.1729
     24  C          8.8690   21.0460   25.6400 C.2   122  ARG122      0.2617
     25  O          8.6870   20.6050   26.7750 O.2   122  ARG122     -0.2715
     26  CB         9.4650   23.5030   25.6470 C.3   122  ARG122      0.0348
     27  CG        10.9050   23.1540   25.3240 C.3   122  ARG122      0.0492
     28  CD        11.8060   24.3770   25.4220 C.3   122  ARG122      0.2205
     29  NE        11.6300   25.2560   24.2570 N.pl3 122  ARG122     -0.0865
     30  CZ        12.3670   25.2390   23.1430 C.cat 122  ARG122      0.5346
     31  NH1       13.3870   24.3900   22.9920 N.pl3 122  ARG122      0.1354
     32  NH2       12.0900   26.0990   22.1610 N.pl3 122  ARG122      0.1354
     33  N          9.4520   20.3230   24.7000 N.am  123  GLY123     -0.1940
     34  CA        10.0610   19.0500   25.0170 C.3   123  GLY123      0.2014
     35  C         11.5490   19.2290   24.8770 C.2   123  GLY123      0.2638
     36  O         12.0400   20.3300   24.7260 O.2   123  GLY123     -0.2714
     37  N         12.2820   18.1350   24.8360 N.am  124  ASN124     -0.1972
     38  CA        13.7280   18.2720   24.7640 C.3   124  ASN124      0.1688
     39  C         14.2570   18.9260   23.4930 C.2   124  ASN124      0.2292
     40  O         15.3390   19.4810   23.5390 O.2   124  ASN124     -0.2864
     41  CB        14.4080   16.9280   24.9810 C.3   124  ASN124      0.1181
     42  CG        14.2380   16.4260   26.3910 C.2   124  ASN124      0.2629
     43  OD1       13.5910   15.4130   26.6100 O.2   124  ASN124     -0.2716
     44  ND2       14.7940   17.1390   27.3490 N.am  124  ASN124     -0.0877
     45  N          6.0120   22.1850   21.6430 N.3   128  VAL128     -0.1245
     46  CA         4.9350   21.2380   21.3550 C.3   128  VAL128      0.1561
     47  C          3.6440   22.0140   21.2770 C.2   128  VAL128      0.2260
     48  O          3.4300   22.9060   22.1000 O.2   128  VAL128     -0.2867
     49  CB         4.9070   20.0960   22.3800 C.3   128  VAL128      0.0252
     50  CG1        3.7980   19.1060   22.0010 C.3   128  VAL128      0.0019
     51  CG2        6.3070   19.4250   22.4720 C.3   128  VAL128      0.0019
     52  N         -0.7260   21.7480   20.6040 N.3   130  SER130     -0.1217
     53  CA        -1.9440   21.0140   20.3690 C.3   130  SER130      0.1889
     54  C         -2.3160   21.3520   18.9240 C.2   130  SER130      0.2288
     55  O         -1.9240   22.4000   18.3840 O.2   130  SER130     -0.2866
     56  CB        -3.0690   21.3650   21.3520 C.3   130  SER130      0.2089
     57  OG        -3.4770   22.7020   21.1380 O.3   130  SER130     -0.2183
     58  N         -0.8850   15.9530   19.1670 N.3   141  ALA141     -0.1245
     59  CA         0.2510   16.7010   19.7040 C.3   141  ALA141      0.1562
     60  C          1.3000   16.8250   18.5990 C.2   141  ALA141      0.2260
     61  O          1.6420   15.8190   17.9480 O.2   141  ALA141     -0.2867
     62  CB         0.8390   15.9820   20.9070 C.3   141  ALA141      0.0290
     63  N          4.9970   17.8340   18.0030 N.3   143  LYS143     -0.1245
     64  CA         6.2850   18.0910   18.6100 C.3   143  LYS143      0.1561
     65  C          7.2230   18.6160   17.5460 C.2   143  LYS143      0.2260
     66  O          7.4850   17.9310   16.5420 O.2   143  LYS143     -0.2867
     67  CB         6.8440   16.7880   19.1860 C.3   143  LYS143      0.0271
     68  CG         5.9320   16.0680   20.1760 C.3   143  LYS143      0.0035
     69  CD         6.5940   14.7660   20.6200 C.3   143  LYS143      0.0206
     70  CE         7.9050   15.0060   21.3600 C.3   143  LYS143      0.1093
     71  NZ         8.2060   13.8650   22.2940 N.3   143  LYS143     -0.1314
     72  N          1.9690    6.0780   24.3210 N.3   173  VAL173     -0.1245
     73  CA         1.4480    7.1210   23.4430 C.3   173  VAL173      0.1561
     74  C          1.6410    6.6760   21.9890 C.2   173  VAL173      0.2260
     75  O          2.7090    6.1450   21.6370 O.2   173  VAL173     -0.2867
     76  CB         2.0890    8.5230   23.6420 C.3   173  VAL173      0.0252
     77  CG1        1.4150    9.5680   22.7120 C.3   173  VAL173      0.0019
     78  CG2        1.9070    8.9680   25.0700 C.3   173  VAL173      0.0019
     79  N          1.7390   13.0090   17.2260 N.3   189  MET189     -0.1230
     80  CA         1.2580   11.9930   18.1980 C.3   189  MET189      0.1702
     81  C         -0.1940   12.2120   18.5250 C.2   189  MET189      0.2592
     82  O         -0.7460   13.2870   18.2490 O.2   189  MET189     -0.2718
     83  CB         2.0500   12.1360   19.4900 C.3   189  MET189      0.0401
     84  CG         3.4880   12.3370   19.1980 C.3   189  MET189      0.0596
     85  SD         4.2050   10.7310   18.9870 S.3   189  MET189     -0.1393
     86  CE         5.0250   11.1120   20.5140 C.3   189  MET189      0.0692
     87  N         -0.8570   11.1910   19.0700 N.am  190  GLU190     -0.1966
     88  CA        -2.2000   11.3850   19.5990 C.3   190  GLU190      0.1733
     89  C         -2.0660   12.4800   20.6460 C.2   190  GLU190      0.2616
     90  O         -1.0740   12.5410   21.3370 O.2   190  GLU190     -0.2715
     91  CB        -2.7590   10.1210   20.2530 C.3   190  GLU190      0.0429
     92  CG        -1.9150    9.5570   21.3880 C.3   190  GLU190      0.1163
     93  CD        -2.5890    8.3790   22.1080 C.2   190  GLU190      0.3649
     94  OE1       -3.8130    8.4120   22.2920 O.co2 190  GLU190     -0.2457
     95  OE2       -1.8840    7.4260   22.4740 O.co2 190  GLU190     -0.2457
     96  N         -3.0590   13.3420   20.7740 N.am  191  LEU191     -0.1963
     97  CA        -3.0590   14.3050   21.8540 C.3   191  LEU191      0.1728
     98  C         -3.6150   13.5720   23.0750 C.2   191  LEU191      0.2616
     99  O         -4.7270   13.0310   23.0260 O.2   191  LEU191     -0.2715
    100  CB        -3.9780   15.4880   21.4990 C.3   191  LEU191      0.0311
    101  CG        -3.9550   16.6560   22.5130 C.3   191  LEU191      0.0022
    102  CD1       -2.5740   17.3230   22.5890 C.3   191  LEU191      0.0001
    103  CD2       -5.0910   17.6490   22.2420 C.3   191  LEU191      0.0001
    104  N         -2.8700   13.4880   24.1530 N.am  192  VAL192     -0.1963
    105  CA        -3.4070   12.8400   25.3630 C.3   192  VAL192      0.1727
    106  C         -3.9610   13.9950   26.2100 C.2   192  VAL192      0.2616
    107  O         -3.2110   14.8550   26.7140 O.2   192  VAL192     -0.2715
    108  CB        -2.3090   12.0620   26.0600 C.3   192  VAL192      0.0290
    109  CG1       -2.8560   11.3060   27.2970 C.3   192  VAL192      0.0023
    110  CG2       -1.6200   11.1310   25.0560 C.3   192  VAL192      0.0023
    111  N         -5.2720   14.0190   26.3530 N.am  193  GLN193     -0.1977
    112  CA        -5.9770   15.2730   26.6280 C.3   193  GLN193      0.1601
    113  C         -5.8070   15.8530   28.0130 C.2   193  GLN193      0.2287
    114  O         -5.9800   17.0300   28.1700 O.2   193  GLN193     -0.2864
    115  CB        -7.4500   15.1370   26.3210 C.3   193  GLN193      0.0394
    116  CG        -7.7080   14.8490   24.8420 C.3   193  GLN193      0.0908
    117  CD        -9.1890   14.7410   24.5020 C.2   193  GLN193      0.2608
    118  OE1      -10.0180   15.4070   25.1080 O.2   193  GLN193     -0.2717
    119  NE2       -9.5240   13.9010   23.5290 N.am  193  GLN193     -0.0878
    120  N         -3.0710   16.0770   29.7020 N.3   195  GLY195     -0.1210
    121  CA        -1.7220   16.5550   29.9180 C.3   195  GLY195      0.1956
    122  C         -0.7600   15.6000   30.5430 C.2   195  GLY195      0.2611
    123  O         -1.0720   14.4330   30.7540 O.2   195  GLY195     -0.2717
    124  N          0.4030   16.1260   30.9470 N.am  196  ASP196     -0.1973
    125  CA         1.3870   15.2880   31.5770 C.3   196  ASP196      0.1709
    126  C          1.0110   15.0170   33.0480 C.2   196  ASP196      0.2293
    127  O          0.2790   15.8210   33.6890 O.2   196  ASP196     -0.2864
    128  CB         2.7900   15.9020   31.4990 C.3   196  ASP196      0.1436
    129  CG         2.9490   17.0800   32.4530 C.2   196  ASP196      0.3671
    130  OD1        2.4570   18.1610   32.0790 O.co2 196  ASP196     -0.2456
    131  OD2        3.4850   16.8800   33.5740 O.co2 196  ASP196     -0.2456
    132  N          2.0710   17.6560   36.0080 N.3   199  THR199     -0.1218
    133  CA         1.2050   18.8180   36.1640 C.3   199  THR199      0.1862
    134  C         -0.1470   18.3180   36.6810 C.2   199  THR199      0.2287
    135  O         -0.8040   19.0030   37.4520 O.2   199  THR199     -0.2866
    136  CB         0.9330   19.5190   34.8290 C.3   199  THR199      0.1770
    137  OG1        2.1710   19.8620   34.1860 O.3   199  THR199     -0.2211
    138  CG2        0.0840   20.7570   35.0340 C.3   199  THR199      0.0375
    139  N          6.8000   13.4960   34.5600 N.3   240  ARG240     -0.1231
    140  CA         6.7310   14.4980   33.5280 C.3   240  ARG240      0.1694
    141  C          6.6370   13.9040   32.1210 C.2   240  ARG240      0.2592
    142  O          6.2060   14.5900   31.2080 O.2   240  ARG240     -0.2718
    143  CB         7.9420   15.4700   33.5650 C.3   240  ARG240      0.0321
    144  CG         9.2470   14.7670   33.2640 C.3   240  ARG240      0.0489
    145  CD        10.5260   15.6800   33.2990 C.3   240  ARG240      0.2205
    146  NE        11.6770   14.7480   33.2750 N.pl3 240  ARG240     -0.0865
    147  CZ        12.2680   14.1510   34.3250 C.cat 240  ARG240      0.5346
    148  NH1       11.9040   14.4000   35.5680 N.pl3 240  ARG240      0.1354
    149  NH2       13.2600   13.2830   34.1330 N.pl3 240  ARG240      0.1354
    150  N          7.0540   12.6660   31.9670 N.am  241  ASN241     -0.1974
    151  CA         6.9640   11.9470   30.6910 C.3   241  ASN241      0.1688
    152  C          5.8340   10.9550   30.5800 C.2   241  ASN241      0.2292
    153  O          5.7760   10.2050   29.5730 O.2   241  ASN241     -0.2864
    154  CB         8.2980   11.1960   30.4600 C.3   241  ASN241      0.1181
    155  CG         9.4300   12.1450   30.1980 C.2   241  ASN241      0.2629
    156  OD1        9.2030   13.3000   29.7930 O.2   241  ASN241     -0.2716
    157  ND2       10.6460   11.6910   30.4240 N.am  241  ASN241     -0.0877
    158  N          1.5560   10.7000   30.4130 N.3   243  LEU243     -0.1245
    159  CA         0.4800   11.5490   29.9880 C.3   243  LEU243      0.1561
    160  C         -0.8460   10.8980   30.4990 C.2   243  LEU243      0.2260
    161  O         -0.9250    9.6950   30.6880 O.2   243  LEU243     -0.2867
    162  CB         0.4750   11.7030   28.4600 C.3   243  LEU243      0.0270
    163  CG         1.6880   12.4410   27.8950 C.3   243  LEU243      0.0019
    164  CD1        1.8510   12.0470   26.4300 C.3   243  LEU243      0.0001
    165  CD2        1.5070   13.9470   28.0280 C.3   243  LEU243      0.0001
    166  N          5.4720    7.9530   27.5650 N.3   253  SER253     -0.1202
    167  CA         5.9220    8.6010   26.3590 C.3   253  SER253      0.2020
    168  C          7.3880    9.0070   26.4940 C.2   253  SER253      0.2618
    169  O          8.0420    8.7020   27.5120 O.2   253  SER253     -0.2717
    170  CB         5.0570    9.8290   26.0630 C.3   253  SER253      0.2103
    171  OG         5.3350   10.9220   26.9190 O.3   253  SER253     -0.2182
    172  N          7.8420    9.7280   25.4710 N.am  254  ASP254     -0.1973
    173  CA         9.1810   10.3730   25.4120 C.3   254  ASP254      0.1709
    174  C         10.2300    9.2880   25.3110 C.2   254  ASP254      0.2293
    175  O         11.0390    8.9880   26.2200 O.2   254  ASP254     -0.2864
    176  CB         9.4390   11.3720   26.5300 C.3   254  ASP254      0.1436
    177  CG        10.3200   12.5640   26.0690 C.2   254  ASP254      0.3671
    178  OD1       10.6900   12.5650   24.9010 O.co2 254  ASP254     -0.2456
    179  OD2       10.6310   13.4870   26.8770 O.co2 254  ASP254     -0.2456
@<TRIPOS>BOND
     1    66    65    2
     2    79    80    1
     3    65    64    1
     4    61    60    2
     5    63    64    1
     6    80    81    1
     7    80    83    1
     8    82    81    2
     9    55    54    2
    10    81    87   am
    11    60    59    1
    12    64    67    1
    13    54    53    1
    14    85    84    1
    15    85    86    1
    16    87    88    1
    17    58    59    1
    18    67    68    1
    19    84    83    1
    20    88    91    1
    21    88    89    1
    22    59    62    1
    23    68    69    1
    24    91    92    1
    25    53    52    1
    26    53    56    1
    27    69    70    1
    28    89    96   am
    29    89    90    2
    30    96    97    1
    31    57    56    1
    32    47    46    1
    33    47    48    2
    34    46    45    1
    35    46    49    1
    36    70    71    1
    37    92    93    1
    38   100    97    1
    39   100   101    1
    40    75    74    2
    41     1     2    1
    42    97    98    1
    43    74    73    1
    44    50    49    1
    45    93    94   ar
    46    93    95   ar
    47    32    30    1
    48   103   101    1
    49     2     5    1
    50     2     3    1
    51     5     6    1
    52     6     7    1
    53    49    51    1
    54   101   102    1
    55    77    76    1
    56    31    30    1
    57    99    98    2
    58    98   104   am
    59    30    29    2
    60     8     7    2
    61    73    76    1
    62    73    72    1
    63    39    40    2
    64    39    38    1
    65   119   117   am
    66     7     9   am
    67    76    78    1
    68     3    10   am
    69     3     4    2
    70    17    15    1
    71    10    11    1
    72    15    14    1
    73   104   105    1
    74    21    20    2
    75    29    28    1
    76   117   116    1
    77   117   118    2
    78    16    14    1
    79    33    34    1
    80    33    24   am
    81    36    35    2
    82    38    37    1
    83    38    41    1
    84    37    35   am
    85   116   115    1
    86    35    34    1
    87   178   177   ar
    88    41    42    1
    89   110   108    1
    90    14    11    1
    91    11    12    1
    92    23    24    1
    93    23    26    1
    94    23    22    1
    95   174   173    1
    96   174   175    2
    97    27    28    1
    98    27    26    1
    99   105   108    1
   100   105   106    1
   101    20    22   am
   102    20    19    1
   103   173   172    1
   104   173   176    1
   105   172   168   am
   106    24    25    2
   107    18    12   am
   108    18    19    1
   109    12    13    2
   110   108   109    1
   111   170   167    1
   112   170   171    1
   113   177   176    1
   114   177   179   ar
   115   106   111   am
   116   106   107    2
   117   115   112    1
   118   111   112    1
   119   167   168    1
   120   167   166    1
   121    42    43    2
   122    42    44   am
   123   164   163    1
   124   168   169    2
   125   112   113    1
   126   163   165    1
   127   163   162    1
   128   113   114    2
   129   162   159    1
   130   153   152    2
   131   120   121    1
   132   156   155    2
   133   121   122    1
   134   159   158    1
   135   159   160    1
   136   155   157   am
   137   155   154    1
   138   154   151    1
   139   160   161    2
   140   122   123    2
   141   122   124   am
   142   152   151    1
   143   151   150    1
   144   124   125    1
   145   142   141    2
   146   128   125    1
   147   128   129    1
   148   125   126    1
   149   150   141   am
   150   130   129   ar
   151   141   140    1
   152   129   131   ar
   153   126   127    2
   154   144   145    1
   155   144   143    1
   156   146   145    1
   157   146   147    2
   158   140   143    1
   159   140   139    1
   160   149   147    1
   161   137   136    1
   162   147   148    1
   163   136   138    1
   164   136   133    1
   165   132   133    1
   166   133   134    1
   167   134   135    2
