@<TRIPOS>MOLECULE
tmp/4e96A00.pdb
 125 121 0 0 0
SMALL
GASTEIGER

@<TRIPOS>ATOM
      1  N         20.5780   22.4930    0.9300 N.3    40  TRP40      -0.1228
      2  CA        20.3330   21.1620    1.5120 C.3    40  TRP40       0.1722
      3  C         21.5630   20.3240    1.9160 C.2    40  TRP40       0.2437
      4  O         21.5110   19.6820    2.9830 O.2    40  TRP40      -0.2733
      5  CB        19.3040   20.3390    0.7020 C.3    40  TRP40       0.0563
      6  CG        19.6600   20.0600   -0.7100 C.ar   40  TRP40       0.0003
      7  CD1       19.4430   20.8770   -1.8000 C.ar   40  TRP40       0.0946
      8  CD2       20.3470   18.9170   -1.1940 C.ar   40  TRP40       0.0152
      9  NE1       19.9350   20.2760   -2.9390 N.ar   40  TRP40      -0.2442
     10  CE2       20.5060   19.0800   -2.5910 C.ar   40  TRP40       0.0810
     11  CE3       20.8660   17.7630   -0.5830 C.ar   40  TRP40       0.0012
     12  CZ2       21.1320   18.1250   -3.3760 C.ar   40  TRP40       0.0191
     13  CZ3       21.4840   16.8130   -1.3740 C.ar   40  TRP40       0.0001
     14  CH2       21.6190   16.9960   -2.7370 C.ar   40  TRP40       0.0015
     15  N         22.6570   20.3240    1.1090 N.am   41  PRO41      -0.2718
     16  CA        23.8580   19.5520    1.4710 C.3    41  PRO41       0.1535
     17  C         24.6470   20.1150    2.6530 C.2    41  PRO41       0.2598
     18  O         25.5130   19.4230    3.1950 O.2    41  PRO41      -0.2715
     19  CB        24.7270   19.6330    0.2180 C.3    41  PRO41       0.0310
     20  CG        23.7770   20.0400   -0.8720 C.3    41  PRO41       0.0237
     21  CD        22.8320   20.9610   -0.2140 C.3    41  PRO41       0.0939
     22  N         24.3620   21.3770    2.9970 N.am   42  PHE42      -0.1974
     23  CA        24.9930   22.1000    4.0980 C.3    42  PHE42       0.1639
     24  C         24.0800   22.2710    5.3400 C.2    42  PHE42       0.2290
     25  O         24.4650   22.9330    6.3050 O.2    42  PHE42      -0.2864
     26  CB        25.5070   23.4730    3.5670 C.3    42  PHE42       0.0560
     27  CG        26.3010   23.3940    2.2540 C.ar   42  PHE42      -0.0200
     28  CD1       27.6690   23.1530    2.2510 C.ar   42  PHE42      -0.0042
     29  CD2       25.6740   23.5050    1.0200 C.ar   42  PHE42      -0.0042
     30  CE1       28.3830   23.0630    1.0560 C.ar   42  PHE42      -0.0003
     31  CE2       26.3910   23.4180   -0.1610 C.ar   42  PHE42      -0.0003
     32  CZ        27.7480   23.1920   -0.1370 C.ar   42  PHE42      -0.0000
     33  N         28.1030   16.4640    7.3180 N.3    46  VAL46      -0.1245
     34  CA        28.3000   15.5230    6.2620 C.3    46  VAL46       0.1561
     35  C         28.2360   14.1050    6.8440 C.2    46  VAL46       0.2260
     36  O         28.9200   13.7860    7.8220 O.2    46  VAL46      -0.2867
     37  CB        29.6380   15.7580    5.5250 C.3    46  VAL46       0.0252
     38  CG1       29.8570   14.6530    4.4780 C.3    46  VAL46       0.0019
     39  CG2       29.6620   17.1540    4.8660 C.3    46  VAL46       0.0019
     40  N         26.4450    9.0550    2.0780 N.3    51  LEU51      -0.1245
     41  CA        26.8010    9.8310    0.9020 C.3    51  LEU51       0.1561
     42  C         28.0390    9.2540    0.2010 C.2    51  LEU51       0.2260
     43  O         28.4950    9.8130   -0.7810 O.2    51  LEU51      -0.2867
     44  CB        26.9980   11.3180    1.2790 C.3    51  LEU51       0.0270
     45  CG        25.8440   12.0800    1.9570 C.3    51  LEU51       0.0019
     46  CD1       26.2490   13.5400    2.3260 C.3    51  LEU51       0.0001
     47  CD2       24.5460   12.0380    1.0800 C.3    51  LEU51       0.0001
     48  N         31.2280    9.0490    1.0510 N.3    53  LEU53      -0.1245
     49  CA        32.4300    9.8980    1.1050 C.3    53  LEU53       0.1561
     50  C         33.3890    9.3790    2.1920 C.2    53  LEU53       0.2260
     51  O         33.6960   10.0690    3.1760 O.2    53  LEU53      -0.2867
     52  CB        32.0500   11.3380    1.3840 C.3    53  LEU53       0.0270
     53  CG        31.0010   11.9300    0.4460 C.3    53  LEU53       0.0019
     54  CD1       30.4900   13.2620    1.0380 C.3    53  LEU53       0.0001
     55  CD2       31.5310   12.0990   -0.9920 C.3    53  LEU53       0.0001
     56  N         35.9490   11.6290    3.5760 N.3    56  TYR56      -0.1241
     57  CA        35.5620   13.0070    3.9560 C.3    56  TYR56       0.1605
     58  C         36.2850   13.4370    5.2160 C.2    56  TYR56       0.2264
     59  O         37.0890   14.3600    5.1850 O.2    56  TYR56      -0.2867
     60  CB        34.0470   13.1940    4.1570 C.3    56  TYR56       0.0534
     61  CG        33.7680   14.6550    4.3740 C.ar   56  TYR56      -0.0201
     62  CD1       33.6030   15.1780    5.6460 C.ar   56  TYR56      -0.0009
     63  CD2       33.7590   15.5440    3.2860 C.ar   56  TYR56      -0.0009
     64  CE1       33.4070   16.4970    5.8390 C.ar   56  TYR56       0.0417
     65  CE2       33.5630   16.8630    3.4760 C.ar   56  TYR56       0.0417
     66  CZ        33.3980   17.3470    4.7490 C.ar   56  TYR56       0.1957
     67  OH        33.1700   18.6860    4.9230 O.3    56  TYR56      -0.2866
     68  N         32.9500   26.2550    6.9050 N.3    91  MET91      -0.1245
     69  CA        32.0540   25.4730    6.0820 C.3    91  MET91       0.1570
     70  C         32.4020   25.5720    4.5670 C.2    91  MET91       0.2261
     71  O         32.5450   24.5440    3.8770 O.2    91  MET91      -0.2867
     72  CB        30.5990   25.8690    6.3700 C.3    91  MET91       0.0387
     73  CG        29.7260   25.0590    5.5520 C.3    91  MET91       0.0595
     74  SD        27.9980   25.4720    5.7340 S.3    91  MET91      -0.1393
     75  CE        28.0710   26.9680    4.7580 C.3    91  MET91       0.0692
     76  N         34.4420   22.7520    1.8710 N.3    95  CYS95      -0.1235
     77  CA        33.9180   22.3530    0.5560 C.3    95  CYS95       0.1677
     78  C         34.9820   22.4820   -0.5730 C.2    95  CYS95       0.2270
     79  O         35.1240   21.5850   -1.3910 O.2    95  CYS95      -0.2867
     80  CB        32.6620   23.1460    0.2120 C.3    95  CYS95       0.0956
     81  SG        31.7560   22.4900   -1.2020 S.3    95  CYS95      -0.0801
     82  N         37.8660   19.9190   -0.0730 N.3    98  TYR98      -0.1227
     83  CA        37.5460   18.4950   -0.2490 C.3    98  TYR98       0.1736
     84  C         37.2300   18.1480   -1.7280 C.2    98  TYR98       0.2595
     85  O         37.6420   17.0990   -2.2310 O.2    98  TYR98      -0.2718
     86  CB        36.3760   18.0500    0.6810 C.3    98  TYR98       0.0548
     87  CG        35.9740   16.6080    0.4340 C.ar   98  TYR98      -0.0200
     88  CD1       36.8250   15.5590    0.7940 C.ar   98  TYR98      -0.0009
     89  CD2       34.7720   16.2900   -0.2000 C.ar   98  TYR98      -0.0009
     90  CE1       36.4900   14.2570    0.5380 C.ar   98  TYR98       0.0417
     91  CE2       34.4190   14.9610   -0.4620 C.ar   98  TYR98       0.0417
     92  CZ        35.2910   13.9610   -0.0970 C.ar   98  TYR98       0.1957
     93  OH        34.9750   12.6580   -0.3640 O.3    98  TYR98      -0.2866
     94  N         36.4510   19.0000   -2.3880 N.am   99  ASN99      -0.1974
     95  CA        35.9100   18.6940   -3.7210 C.3    99  ASN99       0.1688
     96  C         36.7300   19.3990   -4.8160 C.2    99  ASN99       0.2292
     97  O         37.6200   20.1630   -4.5010 O.2    99  ASN99      -0.2864
     98  CB        34.4420   19.0970   -3.7950 C.3    99  ASN99       0.1181
     99  CG        33.6420   18.5820   -2.6160 C.2    99  ASN99       0.2629
    100  OD1       33.2720   17.4030   -2.5550 O.2    99  ASN99      -0.2716
    101  ND2       33.4270   19.4460   -1.6440 N.am   99  ASN99      -0.0877
    102  N         29.5400   19.9340   -8.8070 N.3   104  ASP104     -0.1225
    103  CA        28.2400   20.5390   -8.4920 C.3   104  ASP104      0.1805
    104  C         28.1190   21.0900   -7.0540 C.2   104  ASP104      0.2597
    105  O         27.4360   22.1080   -6.7850 O.2   104  ASP104     -0.2718
    106  CB        27.1440   19.4990   -8.6720 C.3   104  ASP104      0.1424
    107  CG        26.7470   19.2870  -10.1220 C.2   104  ASP104      0.3668
    108  OD1       27.0880   20.1380  -10.9830 O.co2 104  ASP104     -0.2456
    109  OD2       26.0620   18.2680  -10.3760 O.co2 104  ASP104     -0.2456
    110  N         28.6900   20.3440   -6.1150 N.am  105  ILE105     -0.1980
    111  CA        28.6770   20.7560   -4.7200 C.3   105  ILE105      0.1595
    112  C         29.4780   22.0680   -4.5910 C.2   105  ILE105      0.2287
    113  O         29.0200   22.9570   -3.8890 O.2   105  ILE105     -0.2864
    114  CB        29.1860   19.6270   -3.7560 C.3   105  ILE105      0.0276
    115  CG1       28.9960   20.0310   -2.2850 C.3   105  ILE105      0.0022
    116  CG2       30.6020   19.2980   -4.0460 C.3   105  ILE105      0.0022
    117  CD1       27.5850   20.0930   -1.8700 C.3   105  ILE105      0.0001
    118  N         27.3910   24.8410   -5.7990 N.3   108  MET108     -0.1245
    119  CA        26.4470   25.0960   -4.7210 C.3   108  MET108      0.1570
    120  C         27.0660   25.9900   -3.6290 C.2   108  MET108      0.2261
    121  O         26.5240   27.0470   -3.3150 O.2   108  MET108     -0.2867
    122  CB        25.9470   23.7730   -4.1500 C.3   108  MET108      0.0387
    123  CG        24.8070   23.1820   -4.9870 C.3   108  MET108      0.0595
    124  SD        24.3880   21.5080   -4.5860 S.3   108  MET108     -0.1393
    125  CE        22.6110   21.5550   -4.3510 C.3   108  MET108      0.0692
@<TRIPOS>BOND
     1   108   107   ar
     2   109   107   ar
     3   107   106    1
     4   102   103    1
     5   106   103    1
     6   103   104    1
     7   104   105    2
     8   104   110   am
     9   110   111    1
    10   118   119    1
    11   123   124    1
    12   123   122    1
    13    96    97    2
    14    96    95    1
    15   119   122    1
    16   119   120    1
    17   111   112    1
    18   111   114    1
    19   112   113    2
    20   124   125    1
    21   116   114    1
    22    98    95    1
    23    98    99    1
    24   114   115    1
    25    95    94    1
    26   120   121    2
    27    12    14   ar
    28    12    10   ar
    29     9    10   ar
    30     9     7   ar
    31    14    13   ar
    32    99   100    2
    33    99   101   am
    34    10     8   ar
    35    94    84   am
    36   115   117    1
    37    85    84    2
    38     7     6   ar
    39    84    83    1
    40    79    78    2
    41    13    11   ar
    42    81    80    1
    43     8     6   ar
    44     8    11   ar
    45    55    53    1
    46    20    21    1
    47    20    19    1
    48    43    42    2
    49     6     5    1
    50    78    77    1
    51    91    89   ar
    52    91    92   ar
    53    93    92    1
    54    83    82    1
    55    83    86    1
    56    21    15    1
    57    89    87   ar
    58    31    32   ar
    59    31    29   ar
    60    32    30   ar
    61    92    90   ar
    62    42    41    1
    63    80    77    1
    64    19    16    1
    65    87    86    1
    66    87    88   ar
    67    53    54    1
    68    53    52    1
    69    90    88   ar
    70    77    76    1
    71     5     2    1
    72    41    44    1
    73    41    40    1
    74     1     2    1
    75    29    27   ar
    76    48    49    1
    77    30    28   ar
    78    47    45    1
    79    49    52    1
    80    49    50    1
    81    15    16    1
    82    15     3   am
    83    44    45    1
    84    16    17    1
    85     2     3    1
    86     3     4    2
    87    45    46    1
    88    50    51    2
    89    28    27   ar
    90    27    26    1
    91    17    22   am
    92    17    18    2
    93    22    23    1
    94    63    65   ar
    95    63    61   ar
    96    65    66   ar
    97    26    23    1
    98    56    57    1
    99    71    70    2
   100    57    60    1
   101    57    58    1
   102    23    24    1
   103    60    61    1
   104    61    62   ar
   105    38    37    1
   106    70    69    1
   107    66    67    1
   108    66    64   ar
   109    75    74    1
   110    39    37    1
   111    59    58    2
   112    24    25    2
   113    37    34    1
   114    73    74    1
   115    73    72    1
   116    62    64   ar
   117    69    72    1
   118    69    68    1
   119    34    35    1
   120    34    33    1
   121    35    36    2
