@<TRIPOS>MOLECULE
tmp/4e99A00.pdb
 150 139 0 0 0
SMALL
GASTEIGER

@<TRIPOS>ATOM
      1  N         -7.3240    6.5870   36.7740 N.3   370  LEU370     -0.1231
      2  CA        -5.9170    6.5340   36.4130 C.3   370  LEU370      0.1693
      3  C         -5.5950    7.6020   35.4080 C.2   370  LEU370      0.2591
      4  O         -4.5930    8.2690   35.5300 O.2   370  LEU370     -0.2718
      5  CB        -5.5170    5.1840   35.8140 C.3   370  LEU370      0.0284
      6  CG        -4.0100    4.9520   35.8020 C.3   370  LEU370      0.0019
      7  CD1       -3.5990    4.3420   37.1270 C.3   370  LEU370      0.0001
      8  CD2       -3.6120    4.0690   34.6360 C.3   370  LEU370      0.0001
      9  N         -6.4430    7.7370   34.4010 N.am  371  ILE371     -0.1980
     10  CA        -6.2090    8.7120   33.3810 C.3   371  ILE371      0.1595
     11  C         -6.3360   10.0770   34.0000 C.2   371  ILE371      0.2287
     12  O         -5.6400   10.9830   33.6030 O.2   371  ILE371     -0.2864
     13  CB        -7.1840    8.5620   32.1970 C.3   371  ILE371      0.0276
     14  CG1       -7.0000    7.1990   31.5180 C.3   371  ILE371      0.0022
     15  CG2       -6.9960    9.6720   31.1760 C.3   371  ILE371      0.0022
     16  CD1       -5.5740    6.6710   31.5220 C.3   371  ILE371      0.0001
     17  N         -3.1400   10.5080   36.6770 N.3   374  ASN374     -0.1225
     18  CA        -1.9220   10.6490   35.8760 C.3   374  ASN374      0.1785
     19  C         -1.8820   11.8440   34.9220 C.2   374  ASN374      0.2597
     20  O         -0.8260   12.3530   34.6130 O.2   374  ASN374     -0.2718
     21  CB        -1.6590    9.3360   35.1690 C.3   374  ASN374      0.1169
     22  CG        -1.1650    8.2910   36.1390 C.2   374  ASN374      0.2627
     23  OD1       -0.0260    8.4210   36.6580 O.2   374  ASN374     -0.2716
     24  ND2       -2.0290    7.2820   36.4650 N.am  374  ASN374     -0.0877
     25  N         -3.0540   12.3120   34.5070 N.am  375  CYS375     -0.1970
     26  CA        -3.1500   13.4790   33.6450 C.3   375  CYS375      0.1712
     27  C         -3.0970   14.8170   34.3920 C.2   375  CYS375      0.2296
     28  O         -2.8010   15.8520   33.8000 O.2   375  CYS375     -0.2864
     29  CB        -4.4670   13.4620   32.9220 C.3   375  CYS375      0.0983
     30  SG        -4.5700   12.7020   31.3070 S.3   375  CYS375     -0.0798
     31  N          6.5080   14.5790   33.0740 N.3   386  PHE386     -0.1241
     32  CA         5.5730   13.4770   33.1660 C.3   386  PHE386      0.1605
     33  C          6.2550   12.2220   32.7090 C.2   386  PHE386      0.2264
     34  O          6.1180   11.1760   33.3040 O.2   386  PHE386     -0.2867
     35  CB         4.3920   13.7440   32.2920 C.3   386  PHE386      0.0534
     36  CG         3.3360   12.7470   32.4410 C.ar  386  PHE386     -0.0203
     37  CD1        2.9240   12.3770   33.7000 C.ar  386  PHE386     -0.0042
     38  CD2        2.7510   12.1560   31.3200 C.ar  386  PHE386     -0.0042
     39  CE1        1.9280   11.4400   33.8460 C.ar  386  PHE386     -0.0003
     40  CE2        1.7420   11.2250   31.4700 C.ar  386  PHE386     -0.0003
     41  CZ         1.3350   10.8690   32.7340 C.ar  386  PHE386     -0.0000
     42  N          7.0120    8.8850   34.9880 N.3   390  LEU390     -0.1245
     43  CA         6.6620    7.5450   34.5220 C.3   390  LEU390      0.1561
     44  C          7.8970    6.7220   34.3340 C.2   390  LEU390      0.2260
     45  O          7.8890    5.5280   34.5370 O.2   390  LEU390     -0.2867
     46  CB         5.9790    7.6260   33.1680 C.3   390  LEU390      0.0270
     47  CG         4.6460    8.3250   33.1740 C.3   390  LEU390      0.0019
     48  CD1        4.3290    8.6100   31.7310 C.3   390  LEU390      0.0001
     49  CD2        3.5610    7.4560   33.7970 C.3   390  LEU390      0.0001
     50  N          8.6530    5.6490   37.6840 N.3   393  ARG393     -0.1231
     51  CA         7.6300    4.6780   38.0050 C.3   393  ARG393      0.1694
     52  C          7.9070    3.3200   37.3540 C.2   393  ARG393      0.2592
     53  O          8.0300    2.2770   38.0110 O.2   393  ARG393     -0.2718
     54  CB         6.3290    5.2020   37.4740 C.3   393  ARG393      0.0321
     55  CG         5.1010    4.6490   38.1410 C.3   393  ARG393      0.0489
     56  CD         3.9180    5.3930   37.5640 C.3   393  ARG393      0.2205
     57  NE         3.5400    6.5130   38.4000 N.pl3 393  ARG393     -0.0865
     58  CZ         2.6640    7.4360   38.0360 C.cat 393  ARG393      0.5346
     59  NH1        2.1090    7.3580   36.8430 N.pl3 393  ARG393      0.1354
     60  NH2        2.3520    8.4340   38.8640 N.pl3 393  ARG393      0.1354
     61  N          8.0360    3.3330   36.0450 N.am  394  TYR394     -0.1976
     62  CA         8.2880    2.0940   35.3210 C.3   394  TYR394      0.1639
     63  C          9.6420    1.4880   35.6520 C.2   394  TYR394      0.2290
     64  O          9.8020    0.2780   35.8020 O.2   394  TYR394     -0.2864
     65  CB         8.0850    2.3430   33.8480 C.3   394  TYR394      0.0560
     66  CG         6.6620    2.0770   33.5480 C.ar  394  TYR394     -0.0198
     67  CD1        5.6700    2.9660   33.9450 C.ar  394  TYR394     -0.0009
     68  CD2        6.2960    0.8810   32.9800 C.ar  394  TYR394     -0.0009
     69  CE1        4.3500    2.6760   33.7380 C.ar  394  TYR394      0.0417
     70  CE2        4.9880    0.5880   32.7470 C.ar  394  TYR394      0.0417
     71  CZ         4.0130    1.4830   33.1230 C.ar  394  TYR394      0.1957
     72  OH         2.6940    1.1450   32.8800 O.3   394  TYR394     -0.2866
     73  N          8.8570   -0.1110   38.7240 N.3   397  LYS397     -0.1245
     74  CA         7.9850   -1.2220   38.4520 C.3   397  LYS397      0.1561
     75  C          8.6900   -2.4110   37.8590 C.2   397  LYS397      0.2260
     76  O          8.3840   -3.5440   38.2300 O.2   397  LYS397     -0.2867
     77  CB         6.9100   -0.7980   37.4820 C.3   397  LYS397      0.0271
     78  CG         5.8660    0.0460   38.1550 C.3   397  LYS397      0.0035
     79  CD         4.9120    0.6410   37.1570 C.3   397  LYS397      0.0206
     80  CE         3.6380    0.9310   37.9270 C.3   397  LYS397      0.1093
     81  NZ         2.7070    1.7110   37.0780 N.3   397  LYS397     -0.1314
     82  N          4.9310    6.6450   26.9470 N.3   413  LEU413     -0.1245
     83  CA         3.8890    6.6460   27.9210 C.3   413  LEU413      0.1561
     84  C          3.5400    8.0700   28.1580 C.2   413  LEU413      0.2260
     85  O          2.3870    8.4460   28.0800 O.2   413  LEU413     -0.2867
     86  CB         4.3970    6.0570   29.1940 C.3   413  LEU413      0.0270
     87  CG         4.2990    4.5580   29.3020 C.3   413  LEU413      0.0019
     88  CD1        4.4450    4.1960   30.7730 C.3   413  LEU413      0.0001
     89  CD2        2.9920    4.1200   28.7510 C.3   413  LEU413      0.0001
     90  N          1.4400    9.9140   25.7400 N.3   416  VAL416     -0.1231
     91  CA        -0.0040    9.7010   25.7210 C.3   416  VAL416      0.1692
     92  C         -0.6010   10.8490   26.4800 C.2   416  VAL416      0.2592
     93  O         -1.6620   11.3500   26.1480 O.2   416  VAL416     -0.2718
     94  CB        -0.4410    8.3350   26.3000 C.3   416  VAL416      0.0266
     95  CG1        0.4700    7.2340   25.7810 C.3   416  VAL416      0.0020
     96  CG2       -0.5110    8.3430   27.8340 C.3   416  VAL416      0.0020
     97  N          0.1530   11.3100   27.4690 N.am  417  GLY417     -0.1957
     98  CA        -0.3040   12.4130   28.2970 C.3   417  GLY417      0.1869
     99  C         -0.5290   13.5670   27.3700 C.2   417  GLY417      0.2309
    100  O         -1.5930   14.1640   27.3470 O.2   417  GLY417     -0.2863
    101  N         -3.4250   12.9310   24.9840 N.3   420  CYS420     -0.1221
    102  CA        -4.7260   12.5690   25.5000 C.3   420  CYS420      0.1808
    103  C         -5.2060   13.4700   26.5870 C.2   420  CYS420      0.2601
    104  O         -6.3700   13.7240   26.6320 O.2   420  CYS420     -0.2717
    105  CB        -4.7270   11.1520   26.0460 C.3   420  CYS420      0.0970
    106  SG        -4.1760    9.9910   24.8290 S.3   420  CYS420     -0.0800
    107  N         -4.3160   13.9010   27.4760 N.am  421  CYS421     -0.1970
    108  CA        -4.6930   14.7050   28.5930 C.3   421  CYS421      0.1712
    109  C         -5.2150   16.0620   28.1470 C.2   421  CYS421      0.2296
    110  O         -6.0070   16.6770   28.8410 O.2   421  CYS421     -0.2864
    111  CB        -3.5240   14.9140   29.5240 C.3   421  CYS421      0.0983
    112  SG        -2.9150   13.4260   30.3130 S.3   421  CYS421     -0.0798
    113  N         -6.1890    7.7400   25.6740 N.3   432  ALA432     -0.1245
    114  CA        -5.1110    7.3990   26.5770 C.3   432  ALA432      0.1562
    115  C         -4.9210    5.9080   26.6760 C.2   432  ALA432      0.2260
    116  O         -3.8300    5.4110   26.5090 O.2   432  ALA432     -0.2867
    117  CB        -5.2910    8.0030   27.9380 C.3   432  ALA432      0.0290
    118  N         -1.9930    3.7040   25.3290 N.3   436  LEU436     -0.1245
    119  CA        -1.3440    2.9610   26.3770 C.3   436  LEU436      0.1561
    120  C         -1.1840    1.4990   25.9960 C.2   436  LEU436      0.2260
    121  O         -0.1850    0.8890   26.2940 O.2   436  LEU436     -0.2867
    122  CB        -2.2350    3.0320   27.5710 C.3   436  LEU436      0.0270
    123  CG        -1.7480    3.0650   28.9940 C.3   436  LEU436      0.0019
    124  CD1       -0.4300    3.7900   29.1650 C.3   436  LEU436      0.0001
    125  CD2       -2.8530    3.7800   29.7580 C.3   436  LEU436      0.0001
    126  N          2.5270    0.0920   25.8340 N.3   440  LEU440     -0.1245
    127  CA         2.8590   -1.0130   26.6380 C.3   440  LEU440      0.1561
    128  C          3.1840   -2.1730   25.7940 C.2   440  LEU440      0.2260
    129  O          4.0730   -2.9550   26.1010 O.2   440  LEU440     -0.2867
    130  CB         1.6590   -1.3830   27.4830 C.3   440  LEU440      0.0270
    131  CG         1.6350   -0.3730   28.6050 C.3   440  LEU440      0.0019
    132  CD1        0.3620   -0.5700   29.3880 C.3   440  LEU440      0.0001
    133  CD2        2.8990   -0.5300   29.4390 C.3   440  LEU440      0.0001
    134  N         -2.3440   -3.1840   30.5740 N.3   468  ARG468     -0.1245
    135  CA        -2.2070   -1.9130   31.2250 C.3   468  ARG468      0.1563
    136  C         -2.5560   -1.9330   32.7180 C.2   468  ARG468      0.2260
    137  O         -1.7810   -1.3910   33.4930 O.2   468  ARG468     -0.2867
    138  CB        -3.0350   -0.8540   30.5220 C.3   468  ARG468      0.0307
    139  CG        -2.7470    0.5010   31.1390 C.3   468  ARG468      0.0489
    140  CD        -3.9370    1.4290   31.2480 C.3   468  ARG468      0.2205
    141  NE        -5.1230    0.9520   31.9500 N.pl3 468  ARG468     -0.0865
    142  CZ        -5.2710    0.8470   33.2630 C.cat 468  ARG468      0.5346
    143  NH1       -4.2770    1.0550   34.1090 N.pl3 468  ARG468      0.1354
    144  NH2       -6.4370    0.4860   33.7210 N.pl3 468  ARG468      0.1354
    145  N          0.0500   -1.0450   35.5300 N.3   472  SER472     -0.1217
    146  CA        -0.4410   -0.0840   36.4970 C.3   472  SER472      0.1889
    147  C         -0.3560   -0.6800   37.8740 C.2   472  SER472      0.2288
    148  O          0.0590   -0.0140   38.8170 O.2   472  SER472     -0.2866
    149  CB        -1.8740    0.3150   36.1930 C.3   472  SER472      0.2089
    150  OG        -1.9260    1.0420   34.9850 O.3   472  SER472     -0.2183
@<TRIPOS>BOND
     1   106   105    1
     2   101   102    1
     3   118   119    1
     4   102   105    1
     5   102   103    1
     6   113   114    1
     7    91    90    1
     8    91    94    1
     9    91    92    1
    10    95    94    1
    11   128   129    2
    12   128   127    1
    13   126   127    1
    14   120   121    2
    15   120   119    1
    16    93    92    2
    17    94    96    1
    18   119   122    1
    19    92    97   am
    20   116   115    2
    21   114   115    1
    22   114   117    1
    23   103   104    2
    24   103   107   am
    25   127   130    1
    26    82    83    1
    27   100    99    2
    28    99    98    1
    29    97    98    1
    30   107   108    1
    31   130   131    1
    32   122   123    1
    33    83    84    1
    34    83    86    1
    35    85    84    2
    36   109   108    1
    37   109   110    2
    38   108   111    1
    39   131   132    1
    40   131   133    1
    41    89    87    1
    42   123   124    1
    43   123   125    1
    44    86    87    1
    45    87    88    1
    46   111   112    1
    47   112    30    1
    48   138   139    1
    49   138   135    1
    50   134   135    1
    51   139   140    1
    52    15    13    1
    53   135   136    1
    54   140   141    1
    55    30    29    1
    56    38    40   ar
    57    38    36   ar
    58    40    41   ar
    59    14    16    1
    60    14    13    1
    61    48    47    1
    62   141   142    2
    63    13    10    1
    64    35    36    1
    65    35    32    1
    66    36    37   ar
    67    33    32    1
    68    33    34    2
    69   136   137    2
    70    41    39   ar
    71    70    68   ar
    72    70    71   ar
    73    72    71    1
    74    29    26    1
    75    68    66   ar
    76    31    32    1
    77    71    69   ar
    78    46    47    1
    79    46    43    1
    80    47    49    1
    81   142   144    1
    82   142   143    1
    83    10    11    1
    84    10     9    1
    85    66    65    1
    86    66    67   ar
    87    12    11    2
    88    26    27    1
    89    26    25    1
    90    37    39   ar
    91    69    67   ar
    92    28    27    2
    93    65    62    1
    94    44    43    1
    95    44    45    2
    96     9     3   am
    97    25    19   am
    98    43    42    1
    99    20    19    2
   100     8     6    1
   101    19    18    1
   102   150   149    1
   103    21    18    1
   104    21    22    1
   105    62    63    1
   106    62    61    1
   107     3     4    2
   108     3     2    1
   109   145   146    1
   110    63    64    2
   111     6     5    1
   112     6     7    1
   113     5     2    1
   114    18    17    1
   115    61    52   am
   116    22    24   am
   117    22    23    2
   118   149   146    1
   119     2     1    1
   120   146   147    1
   121    59    58    1
   122    81    80    1
   123    79    80    1
   124    79    78    1
   125    52    51    1
   126    52    53    2
   127    54    51    1
   128    54    55    1
   129    77    78    1
   130    77    74    1
   131    56    55    1
   132    56    57    1
   133    50    51    1
   134    75    76    2
   135    75    74    1
   136   147   148    2
   137    58    57    2
   138    58    60    1
   139    74    73    1
