@<TRIPOS>MOLECULE
tmp/4e99A01.pdb
 134 123 0 0 0
SMALL
GASTEIGER

@<TRIPOS>ATOM
      1  N         -9.5680  -13.8920   17.8160 N.3   192  ARG192     -0.1231
      2  CA       -10.7700  -13.5040   18.5860 C.3   192  ARG192      0.1694
      3  C        -10.5030  -12.2110   19.3500 C.2   192  ARG192      0.2591
      4  O        -11.3630  -11.3180   19.4300 O.2   192  ARG192     -0.2718
      5  CB       -11.1900  -14.6200   19.5500 C.3   192  ARG192      0.0321
      6  CG       -12.2530  -14.2340   20.5690 C.3   192  ARG192      0.0489
      7  CD       -12.8440  -15.4660   21.2360 C.3   192  ARG192      0.2205
      8  NE       -13.9260  -15.1950   22.2030 N.pl3 192  ARG192     -0.0865
      9  CZ       -13.7460  -15.0320   23.5180 C.cat 192  ARG192      0.5346
     10  NH1      -12.5210  -15.0520   24.0330 N.pl3 192  ARG192      0.1354
     11  NH2      -14.7840  -14.8400   24.3300 N.pl3 192  ARG192      0.1354
     12  N         -9.2960  -12.1100   19.8910 N.am  193  ALA193     -0.1980
     13  CA        -8.9160  -10.9650   20.6930 C.3   193  ALA193      0.1597
     14  C         -8.8460   -9.7660   19.7900 C.2   193  ALA193      0.2287
     15  O         -9.2020   -8.6420   20.1990 O.2   193  ALA193     -0.2864
     16  CB        -7.5790  -11.1840   21.3910 C.3   193  ALA193      0.0319
     17  N        -10.4280   -9.5640   16.9670 N.3   195  LYS195     -0.1231
     18  CA       -11.7690   -9.4240   16.4760 C.3   195  LYS195      0.1693
     19  C        -12.5130   -8.6160   17.5040 C.2   195  LYS195      0.2591
     20  O        -13.2720   -7.7250   17.1630 O.2   195  LYS195     -0.2718
     21  CB       -12.4050  -10.7930   16.3570 C.3   195  LYS195      0.0285
     22  CG       -13.0510  -11.1260   15.0300 C.3   195  LYS195      0.0035
     23  CD       -12.2050  -12.0370   14.1520 C.3   195  LYS195      0.0206
     24  CE       -12.9160  -12.4030   12.8470 C.3   195  LYS195      0.1093
     25  NZ       -14.3930  -12.1810   12.9370 N.3   195  LYS195     -0.1314
     26  N        -12.2610   -8.9070   18.7640 N.am  196  ALA196     -0.1980
     27  CA       -12.9600   -8.2750   19.8740 C.3   196  ALA196      0.1597
     28  C        -12.5690   -6.8540   19.7980 C.2   196  ALA196      0.2287
     29  O        -13.4160   -5.9480   19.8430 O.2   196  ALA196     -0.2864
     30  CB       -12.4970   -8.8630   21.1930 C.3   196  ALA196      0.0319
     31  N        -14.1100   -5.2680   16.8550 N.3   199  VAL199     -0.1245
     32  CA       -15.5520   -5.0180   17.0320 C.3   199  VAL199      0.1561
     33  C        -15.6840   -3.7960   17.9280 C.2   199  VAL199      0.2260
     34  O        -16.4800   -2.9310   17.6580 O.2   199  VAL199     -0.2867
     35  CB       -16.2870   -6.1950   17.6690 C.3   199  VAL199      0.0252
     36  CG1      -17.5830   -5.7180   18.3340 C.3   199  VAL199      0.0019
     37  CG2      -16.5630   -7.2450   16.6260 C.3   199  VAL199      0.0019
     38  N        -24.6370   -4.4090   13.3750 N.3   211  PHE211     -0.1241
     39  CA       -23.6830   -5.3150   13.9220 C.3   211  PHE211      0.1605
     40  C        -23.0670   -6.1320   12.8190 C.2   211  PHE211      0.2264
     41  O        -21.8710   -6.3850   12.8330 O.2   211  PHE211     -0.2867
     42  CB       -24.2980   -6.2460   14.9520 C.3   211  PHE211      0.0534
     43  CG       -23.3280   -7.2000   15.4630 C.ar  211  PHE211     -0.0203
     44  CD1      -22.2580   -6.7450   16.2100 C.ar  211  PHE211     -0.0042
     45  CD2      -23.3670   -8.5130   15.0900 C.ar  211  PHE211     -0.0042
     46  CE1      -21.3110   -7.6030   16.6780 C.ar  211  PHE211     -0.0003
     47  CE2      -22.4180   -9.3860   15.5580 C.ar  211  PHE211     -0.0003
     48  CZ       -21.3980   -8.9310   16.3420 C.ar  211  PHE211     -0.0000
     49  N        -19.3450   -6.4130   11.9320 N.3   215  SER215     -0.1217
     50  CA       -18.7720   -7.7550   11.8580 C.3   215  SER215      0.1889
     51  C        -18.0670   -8.0200   10.5510 C.2   215  SER215      0.2288
     52  O        -16.9800   -8.5800   10.5120 O.2   215  SER215     -0.2866
     53  CB       -19.8280   -8.8100   12.0760 C.3   215  SER215      0.2089
     54  OG       -20.3770   -8.6400   13.3620 O.3   215  SER215     -0.2183
     55  N        -15.1470   -6.0770   10.6370 N.3   218  VAL218     -0.1231
     56  CA       -14.2080   -6.6910   11.5230 C.3   218  VAL218      0.1692
     57  C        -13.5270   -7.9040   10.8870 C.2   218  VAL218      0.2592
     58  O        -12.3180   -8.0130   10.9690 O.2   218  VAL218     -0.2718
     59  CB       -14.7980   -7.0460   12.8760 C.3   218  VAL218      0.0266
     60  CG1      -13.9010   -8.0490   13.5580 C.3   218  VAL218      0.0020
     61  CG2      -14.8850   -5.7880   13.7130 C.3   218  VAL218      0.0020
     62  N        -14.2910   -8.7840   10.2490 N.am  219  THR219     -0.1953
     63  CA       -13.6930   -9.9660    9.6590 C.3   219  THR219      0.1897
     64  C        -12.7280   -9.5260    8.5720 C.2   219  THR219      0.2313
     65  O        -11.5980  -10.0000    8.4950 O.2   219  THR219     -0.2863
     66  CB       -14.7130  -10.9610    9.1130 C.3   219  THR219      0.1794
     67  OG1      -15.3370  -10.4150    7.9550 O.3   219  THR219     -0.2208
     68  CG2      -15.7910  -11.1740   10.1040 C.3   219  THR219      0.0378
     69  N        -19.7610  -16.0170   20.9650 N.3   307  ASP307     -0.1225
     70  CA       -18.9110  -14.9630   20.4800 C.3   307  ASP307      0.1805
     71  C        -19.7420  -13.8960   19.7300 C.2   307  ASP307      0.2597
     72  O        -19.4200  -12.7060   19.7840 O.2   307  ASP307     -0.2718
     73  CB       -17.7700  -15.5580   19.6380 C.3   307  ASP307      0.1424
     74  CG       -16.5070  -15.8200   20.4630 C.2   307  ASP307      0.3668
     75  OD1      -16.4390  -15.3900   21.6350 O.co2 307  ASP307     -0.2456
     76  OD2      -15.5640  -16.4310   19.9280 O.co2 307  ASP307     -0.2456
     77  N        -20.8360  -14.3150   19.0900 N.am  308  VAL308     -0.1980
     78  CA       -21.7230  -13.3890   18.4260 C.3   308  VAL308      0.1595
     79  C        -22.4090  -12.5140   19.4560 C.2   308  VAL308      0.2287
     80  O        -22.3340  -11.2930   19.4050 O.2   308  VAL308     -0.2864
     81  CB       -22.7470  -14.1150   17.5200 C.3   308  VAL308      0.0276
     82  CG1      -23.8550  -13.1760   17.0550 C.3   308  VAL308      0.0022
     83  CG2      -22.0450  -14.7060   16.3110 C.3   308  VAL308      0.0022
     84  N        -21.5240  -12.0000   22.4060 N.3   310  LEU310     -0.1231
     85  CA       -20.5420  -11.2050   23.1150 C.3   310  LEU310      0.1693
     86  C        -20.0960  -10.0800   22.2290 C.2   310  LEU310      0.2592
     87  O        -19.7900   -9.0040   22.7070 O.2   310  LEU310     -0.2718
     88  CB       -19.3430  -12.0590   23.5380 C.3   310  LEU310      0.0284
     89  CG       -19.6090  -12.9350   24.7440 C.3   310  LEU310      0.0019
     90  CD1      -18.4390  -13.8290   25.0830 C.3   310  LEU310      0.0001
     91  CD2      -19.9280  -11.9930   25.8920 C.3   310  LEU310      0.0001
     92  N        -20.0930  -10.3600   20.9300 N.am  311  GLY311     -0.1957
     93  CA       -19.7690   -9.3910   19.8970 C.3   311  GLY311      0.1869
     94  C        -20.8480   -8.3660   19.8030 C.2   311  GLY311      0.2309
     95  O        -20.5590   -7.1640   19.7080 O.2   311  GLY311     -0.2863
     96  N        -20.4760   -6.2950   22.7000 N.3   314  LEU314     -0.1245
     97  CA       -19.3020   -5.4500   22.6090 C.3   314  LEU314      0.1561
     98  C        -19.6090   -4.3910   21.5910 C.2   314  LEU314      0.2260
     99  O        -19.3510   -3.2220   21.8020 O.2   314  LEU314     -0.2867
    100  CB       -18.1020   -6.2650   22.1530 C.3   314  LEU314      0.0270
    101  CG       -16.7860   -5.5260   22.0810 C.3   314  LEU314      0.0019
    102  CD1      -16.6030   -4.7210   23.3480 C.3   314  LEU314      0.0001
    103  CD2      -15.6970   -6.5780   21.9430 C.3   314  LEU314      0.0001
    104  N        -13.2830   -3.9380   26.0570 N.3   330  LEU330     -0.1245
    105  CA       -12.8630   -5.3110   26.0030 C.3   330  LEU330      0.1561
    106  C        -12.9320   -5.9710   27.3490 C.2   330  LEU330      0.2260
    107  O        -13.3980   -7.1210   27.4210 O.2   330  LEU330     -0.2867
    108  CB       -11.4560   -5.4660   25.4560 C.3   330  LEU330      0.0270
    109  CG       -11.4490   -5.1350   23.9610 C.3   330  LEU330      0.0019
    110  CD1      -10.0940   -5.3790   23.3160 C.3   330  LEU330      0.0001
    111  CD2      -12.5390   -5.9700   23.3130 C.3   330  LEU330      0.0001
    112  N        -16.5170   -6.3810   28.2510 N.3   333  ALA333     -0.1231
    113  CA       -17.0650   -7.4950   27.5020 C.3   333  ALA333      0.1694
    114  C        -16.5080   -8.8070   28.0410 C.2   333  ALA333      0.2591
    115  O        -17.1920   -9.7980   28.0600 O.2   333  ALA333     -0.2718
    116  CB       -16.7770   -7.3430   26.0120 C.3   333  ALA333      0.0304
    117  N        -15.2690   -8.8080   28.5010 N.am  334  LYS334     -0.1980
    118  CA       -14.7040  -10.0150   29.0480 C.3   334  LYS334      0.1596
    119  C        -15.4400  -10.2190   30.3510 C.2   334  LYS334      0.2287
    120  O        -15.9290  -11.2740   30.5900 O.2   334  LYS334     -0.2864
    121  CB       -13.1900   -9.9380   29.2320 C.3   334  LYS334      0.0298
    122  CG       -12.7740  -11.3560   29.6030 C.3   334  LYS334      0.0038
    123  CD       -11.3030  -11.6340   29.4830 C.3   334  LYS334      0.0206
    124  CE       -10.6370  -10.5800   28.6220 C.3   334  LYS334      0.1093
    125  NZ       -10.8080   -9.2460   29.2110 N.3   334  LYS334     -0.1314
    126  N        -18.7930  -11.4600   29.7420 N.3   337  GLU337     -0.1245
    127  CA       -18.6660  -12.8460   29.3300 C.3   337  GLU337      0.1567
    128  C        -18.5350  -13.7200   30.5460 C.2   337  GLU337      0.2260
    129  O        -19.2770  -14.6820   30.7300 O.2   337  GLU337     -0.2867
    130  CB       -17.4050  -13.0130   28.4970 C.3   337  GLU337      0.0388
    131  CG       -17.0480  -14.4470   28.2180 C.3   337  GLU337      0.1160
    132  CD       -15.8880  -14.5510   27.2620 C.2   337  GLU337      0.3649
    133  OE1      -14.9260  -13.7580   27.3580 O.co2 337  GLU337     -0.2457
    134  OE2      -15.9380  -15.4470   26.4070 O.co2 337  GLU337     -0.2457
@<TRIPOS>BOND
     1    67    66    1
     2    65    64    2
     3    64    63    1
     4    66    63    1
     5    66    68    1
     6    63    62    1
     7    62    57   am
     8    52    51    2
     9    51    50    1
    10    55    56    1
    11    57    58    2
    12    57    56    1
    13    56    59    1
    14    50    49    1
    15    50    53    1
    16    53    54    1
    17    40    41    2
    18    40    39    1
    19    24    25    1
    20    24    23    1
    21    59    60    1
    22    59    61    1
    23    38    39    1
    24    39    42    1
    25    23    22    1
    26    42    43    1
    27    22    21    1
    28    45    43   ar
    29    45    47   ar
    30    43    44   ar
    31    47    48   ar
    32    44    46   ar
    33    83    81    1
    34    48    46   ar
    35    21    18    1
    36    18    17    1
    37    18    19    1
    38    37    35    1
    39    31    32    1
    40    32    35    1
    41    32    33    1
    42    82    81    1
    43    20    19    2
    44    19    26   am
    45    81    78    1
    46    34    33    2
    47    35    36    1
    48     1     2    1
    49    78    77    1
    50    78    79    1
    51     2     3    1
    52     2     5    1
    53    26    27    1
    54    77    71   am
    55     3     4    2
    56     3    12   am
    57    80    79    2
    58     5     6    1
    59    73    74    1
    60    73    70    1
    61    95    94    2
    62    71    72    2
    63    71    70    1
    64    14    15    2
    65    14    13    1
    66    28    29    2
    67    28    27    1
    68    94    93    1
    69    27    30    1
    70    12    13    1
    71    93    92    1
    72    76    74   ar
    73    74    75   ar
    74    70    69    1
    75     6     7    1
    76    13    16    1
    77    92    86   am
    78     7     8    1
    79    98    99    2
    80    98    97    1
    81   103   101    1
    82   101   100    1
    83   101   102    1
    84   100    97    1
    85     8     9    2
    86    86    87    2
    87    86    85    1
    88    84    85    1
    89    97    96    1
    90    85    88    1
    91   111   109    1
    92   110   109    1
    93     9    10    1
    94     9    11    1
    95    88    89    1
    96   109   108    1
    97    89    90    1
    98    89    91    1
    99   108   105    1
   100   105   104    1
   101   105   106    1
   102   116   113    1
   103   134   132   ar
   104   132   133   ar
   105   132   131    1
   106   106   107    2
   107   113   114    1
   108   113   112    1
   109   114   115    2
   110   114   117   am
   111   131   130    1
   112   130   127    1
   113   117   118    1
   114   124   125    1
   115   124   123    1
   116   118   121    1
   117   118   119    1
   118   121   122    1
   119   127   126    1
   120   127   128    1
   121   123   122    1
   122   119   120    2
   123   128   129    2
