@<TRIPOS>MOLECULE
tmp/4e9aA00.pdb
 159 158 0 0 0
SMALL
GASTEIGER

@<TRIPOS>ATOM
      1  N         86.7890   92.3990   47.3170 N.3    41  SER41      -0.1202
      2  CA        85.7100   91.5140   46.8960 C.3    41  SER41       0.2020
      3  C         84.3340   92.0890   47.1930 C.2    41  SER41       0.2619
      4  O         83.3320   91.3800   47.0970 O.2    41  SER41      -0.2717
      5  CB        85.8560   90.1300   47.5340 C.3    41  SER41       0.2103
      6  OG        86.8240   89.3610   46.8360 O.3    41  SER41      -0.2182
      7  N         84.3120   93.3650   47.5700 N.am   42  GLU42      -0.1965
      8  CA        83.0830   94.1300   47.7820 C.3    42  GLU42       0.1733
      9  C         82.2510   93.5840   48.9340 C.2    42  GLU42       0.2617
     10  O         81.0200   93.5450   48.8630 O.2    42  GLU42      -0.2715
     11  CB        82.2440   94.1820   46.4950 C.3    42  GLU42       0.0429
     12  CG        83.0350   94.5430   45.2410 C.3    42  GLU42       0.1163
     13  CD        82.1240   94.8520   44.0560 C.2    42  GLU42       0.3649
     14  OE1       81.6050   93.8990   43.4320 O.co2  42  GLU42      -0.2457
     15  OE2       81.9070   96.0510   43.7720 O.co2  42  GLU42      -0.2457
     16  N         82.9250   93.1770   50.0040 N.am   43  GLY43      -0.1940
     17  CA        82.2210   92.6650   51.1690 C.3    43  GLY43       0.2014
     18  C         82.0840   93.7330   52.2340 C.2    43  GLY43       0.2639
     19  O         82.7930   94.7320   52.2070 O.2    43  GLY43      -0.2714
     20  N         81.1610   93.5260   53.1710 N.am   44  ILE44      -0.1963
     21  CA        81.0250   94.4240   54.3020 C.3    44  ILE44       0.1727
     22  C         81.4090   93.7400   55.6100 C.2    44  ILE44       0.2616
     23  O         81.4960   94.3880   56.6440 O.2    44  ILE44      -0.2715
     24  CB        79.5940   94.9740   54.4140 C.3    44  ILE44       0.0290
     25  CG1       78.5980   93.8280   54.5820 C.3    44  ILE44       0.0022
     26  CG2       79.2520   95.7890   53.1660 C.3    44  ILE44       0.0023
     27  CD1       77.1520   94.2930   54.8290 C.3    44  ILE44       0.0001
     28  N         81.6290   92.4320   55.5630 N.am   45  GLY45      -0.1955
     29  CA        82.0870   91.7100   56.7410 C.3    45  GLY45       0.1869
     30  C         83.0210   90.5900   56.3240 C.2    45  GLY45       0.2309
     31  O         82.9140   90.0820   55.2050 O.2    45  GLY45      -0.2863
     32  N         66.2740   88.8580   58.0870 N.3    91  TYR91      -0.1227
     33  CA        67.1530   89.7120   57.3120 C.3    91  TYR91       0.1736
     34  C         67.7390   88.9170   56.1680 C.2    91  TYR91       0.2595
     35  O         68.1760   87.7720   56.3520 O.2    91  TYR91      -0.2718
     36  CB        68.2820   90.2620   58.1930 C.3    91  TYR91       0.0548
     37  CG        68.7630   91.6260   57.7690 C.ar   91  TYR91      -0.0200
     38  CD1       68.2630   92.7680   58.3740 C.ar   91  TYR91      -0.0009
     39  CD2       69.7150   91.7690   56.7690 C.ar   91  TYR91      -0.0009
     40  CE1       68.6880   94.0200   57.9970 C.ar   91  TYR91       0.0417
     41  CE2       70.1530   93.0250   56.3790 C.ar   91  TYR91       0.0417
     42  CZ        69.6330   94.1420   57.0040 C.ar   91  TYR91       0.1957
     43  OH        70.0470   95.3990   56.6380 O.3    91  TYR91      -0.2866
     44  N         67.7480   89.5290   54.9860 N.am   92  LYS92      -0.1966
     45  CA        68.3030   88.8900   53.8010 C.3    92  LYS92       0.1728
     46  C         69.8200   89.0410   53.8170 C.2    92  LYS92       0.2616
     47  O         70.3370   90.1550   53.8450 O.2    92  LYS92      -0.2715
     48  CB        67.7070   89.5070   52.5260 C.3    92  LYS92       0.0311
     49  CG        68.1440   88.8100   51.2390 C.3    92  LYS92       0.0038
     50  CD        67.0950   88.9460   50.1100 C.3    92  LYS92       0.0206
     51  CE        65.9940   87.8870   50.2260 C.3    92  LYS92       0.1093
     52  NZ        65.3380   87.5910   48.9130 N.3    92  LYS92      -0.1314
     53  N         70.5200   87.9110   53.8250 N.am   93  GLU93      -0.1963
     54  CA        71.9760   87.9010   53.9800 C.3    93  GLU93       0.1733
     55  C         72.6810   87.3050   52.7770 C.2    93  GLU93       0.2617
     56  O         72.0870   86.5530   52.0110 O.2    93  GLU93      -0.2715
     57  CB        72.3670   87.0960   55.2320 C.3    93  GLU93       0.0429
     58  CG        71.8010   87.6710   56.5060 C.3    93  GLU93       0.1163
     59  CD        72.2860   86.9520   57.7470 C.2    93  GLU93       0.3649
     60  OE1       73.3170   86.2410   57.6870 O.co2  93  GLU93      -0.2457
     61  OE2       71.6300   87.0990   58.7940 O.co2  93  GLU93      -0.2457
     62  N         73.9590   87.6470   52.6330 N.am   94  GLY94      -0.1940
     63  CA        74.8490   86.9710   51.7080 C.3    94  GLY94       0.2014
     64  C         76.1550   86.7200   52.4400 C.2    94  GLY94       0.2639
     65  O         76.2630   87.0330   53.6230 O.2    94  GLY94      -0.2714
     66  N         77.1510   86.1750   51.7500 N.am   95  CYS95      -0.1953
     67  CA        78.4100   85.8110   52.3940 C.3    95  CYS95       0.1843
     68  C         79.4750   85.6690   51.3280 C.2    95  CYS95       0.2625
     69  O         79.2260   85.0240   50.3160 O.2    95  CYS95      -0.2714
     70  CB        78.2470   84.4730   53.1240 C.3    95  CYS95       0.0997
     71  SG        79.7240   83.8990   54.0360 S.3    95  CYS95      -0.0797
     72  N         80.6560   86.2410   51.5570 N.am   96  LEU96      -0.1977
     73  CA        81.7670   86.0900   50.6100 C.3    96  LEU96       0.1596
     74  C         82.1600   84.6220   50.4120 C.2    96  LEU96       0.2287
     75  O         82.7410   84.2610   49.3880 O.2    96  LEU96      -0.2864
     76  CB        82.9790   86.9280   51.0440 C.3    96  LEU96       0.0297
     77  CG        82.8900   88.4350   50.8110 C.3    96  LEU96       0.0022
     78  CD1       84.0130   89.1910   51.5150 C.3    96  LEU96       0.0001
     79  CD2       82.9550   88.7080   49.3250 C.3    96  LEU96       0.0001
     80  N         79.9310   82.1750   50.3500 N.3    98  VAL98      -0.1231
     81  CA        78.8360   81.5250   49.6190 C.3    98  VAL98       0.1678
     82  C         78.3950   82.4920   48.5210 C.2    98  VAL98       0.2434
     83  O         77.2690   82.9890   48.5340 O.2    98  VAL98      -0.2733
     84  CB        77.6390   81.1860   50.5350 C.3    98  VAL98       0.0265
     85  CG1       76.7170   80.1520   49.8640 C.3    98  VAL98       0.0020
     86  CG2       78.1020   80.6630   51.8960 C.3    98  VAL98       0.0020
     87  N         79.2940   82.7720   47.5650 N.am   99  PRO99      -0.2718
     88  CA        79.0280   83.8550   46.6050 C.3    99  PRO99       0.1535
     89  C         77.8390   83.5810   45.6820 C.2    99  PRO99       0.2599
     90  O         77.6320   82.4420   45.2510 O.2    99  PRO99      -0.2715
     91  CB        80.3280   83.9320   45.7900 C.3    99  PRO99       0.0310
     92  CG        80.9410   82.5670   45.9310 C.3    99  PRO99       0.0237
     93  CD        80.6020   82.1320   47.3270 C.3    99  PRO99       0.0939
     94  N         77.0590   84.6220   45.4090 N.am  100  GLY100     -0.1941
     95  CA        75.9380   84.5160   44.4900 C.3   100  GLY100      0.2014
     96  C         74.6290   84.0640   45.1140 C.2   100  GLY100      0.2639
     97  O         73.6030   83.9960   44.4260 O.2   100  GLY100     -0.2714
     98  N         74.6500   83.7440   46.4070 N.am  101  PHE101     -0.1959
     99  CA        73.4380   83.2990   47.0850 C.3   101  PHE101      0.1771
    100  C         72.9990   84.2280   48.2080 C.2   101  PHE101      0.2619
    101  O         73.8100   84.6240   49.0420 O.2   101  PHE101     -0.2715
    102  CB        73.6000   81.8900   47.6480 C.3   101  PHE101      0.0574
    103  CG        72.3240   81.3320   48.2070 C.ar  101  PHE101     -0.0200
    104  CD1       71.3070   80.9310   47.3580 C.ar  101  PHE101     -0.0042
    105  CD2       72.1330   81.2290   49.5750 C.ar  101  PHE101     -0.0042
    106  CE1       70.1300   80.4250   47.8610 C.ar  101  PHE101     -0.0003
    107  CE2       70.9530   80.7240   50.0900 C.ar  101  PHE101     -0.0003
    108  CZ        69.9490   80.3240   49.2300 C.ar  101  PHE101     -0.0000
    109  N         71.7070   84.5630   48.2190 N.am  102  TYR102     -0.1974
    110  CA        71.1350   85.4720   49.2150 C.3   102  TYR102      0.1639
    111  C         69.8070   84.9360   49.7000 C.2   102  TYR102      0.2290
    112  O         68.9690   84.5160   48.8960 O.2   102  TYR102     -0.2864
    113  CB        70.9430   86.8740   48.6230 C.3   102  TYR102      0.0560
    114  CG        72.1560   87.3540   47.8710 C.ar  102  TYR102     -0.0198
    115  CD1       72.2990   87.0920   46.5150 C.ar  102  TYR102     -0.0009
    116  CD2       73.1760   88.0370   48.5190 C.ar  102  TYR102     -0.0009
    117  CE1       73.4090   87.5050   45.8280 C.ar  102  TYR102      0.0417
    118  CE2       74.2940   88.4540   47.8310 C.ar  102  TYR102      0.0417
    119  CZ        74.4010   88.1850   46.4870 C.ar  102  TYR102      0.1957
    120  OH        75.5140   88.5890   45.7860 O.3   102  TYR102     -0.2866
    121  N         71.2590   96.3920   60.6230 N.3   130  LEU130     -0.1245
    122  CA        72.3090   95.7530   59.8110 C.3   130  LEU130      0.1561
    123  C         73.5460   95.4270   60.6330 C.2   130  LEU130      0.2260
    124  O         74.1560   94.3700   60.4460 O.2   130  LEU130     -0.2867
    125  CB        72.7020   96.6360   58.6250 C.3   130  LEU130      0.0270
    126  CG        73.8210   96.0980   57.7260 C.3   130  LEU130      0.0019
    127  CD1       73.5260   94.6870   57.2400 C.3   130  LEU130      0.0001
    128  CD2       74.0670   97.0330   56.5390 C.3   130  LEU130      0.0001
    129  N         73.0020   92.3120   62.5920 N.3   133  VAL133     -0.1231
    130  CA        72.9990   91.1420   61.7060 C.3   133  VAL133      0.1692
    131  C         74.4360   90.7850   61.3430 C.2   133  VAL133      0.2591
    132  O         74.8280   89.6170   61.4200 O.2   133  VAL133     -0.2718
    133  CB        72.1830   91.4030   60.4350 C.3   133  VAL133      0.0266
    134  CG1       72.3080   90.2270   59.4740 C.3   133  VAL133      0.0020
    135  CG2       70.7290   91.6090   60.8120 C.3   133  VAL133      0.0020
    136  N         75.2250   91.7900   60.9650 N.am  134  ALA134     -0.1980
    137  CA        76.6290   91.5550   60.6070 C.3   134  ALA134      0.1597
    138  C         77.4140   90.9410   61.7660 C.2   134  ALA134      0.2287
    139  O         78.2180   90.0270   61.5670 O.2   134  ALA134     -0.2864
    140  CB        77.2990   92.8410   60.1440 C.3   134  ALA134      0.0319
    141  N         76.2190   87.2300   62.1180 N.3   137  HIS137     -0.1226
    142  CA        76.7170   86.4680   60.9800 C.3   137  HIS137      0.1752
    143  C         78.2100   86.1840   61.1200 C.2   137  HIS137      0.2595
    144  O         78.6670   85.0510   60.9160 O.2   137  HIS137     -0.2718
    145  CB        76.4250   87.2540   59.7030 C.3   137  HIS137      0.0759
    146  CG        76.9180   86.6020   58.4550 C.ar  137  HIS137      0.0818
    147  ND1       76.0670   86.1910   57.4500 N.ar  137  HIS137     -0.2268
    148  CD2       78.1690   86.3490   58.0120 C.ar  137  HIS137      0.1154
    149  CE1       76.7680   85.6820   56.4590 C.ar  137  HIS137      0.1986
    150  NE2       78.0500   85.7680   56.7750 N.ar  137  HIS137     -0.2212
    151  N         78.9830   87.2010   61.4730 N.am  138  GLU138     -0.1979
    152  CA        80.4360   87.0020   61.5440 C.3   138  GLU138      0.1602
    153  C         80.8470   86.1660   62.7520 C.2   138  GLU138      0.2287
    154  O         81.7490   85.3360   62.6650 O.2   138  GLU138     -0.2864
    155  CB        81.1820   88.3490   61.5020 C.3   138  GLU138      0.0415
    156  CG        80.9180   89.1640   60.2250 C.3   138  GLU138      0.1163
    157  CD        81.3060   88.4400   58.9640 C.2   138  GLU138      0.3649
    158  OE1       82.2110   87.5950   59.0510 O.co2 138  GLU138     -0.2457
    159  OE2       80.7010   88.6970   57.8840 O.co2 138  GLU138     -0.2457
@<TRIPOS>BOND
     1    14    13   ar
     2    15    13   ar
     3    13    12    1
     4    97    96    2
     5    95    96    1
     6    95    94    1
     7    96    98   am
     8    12    11    1
     9    90    89    2
    10    94    89   am
    11    89    88    1
    12   120   119    1
    13    91    92    1
    14    91    88    1
    15   117   119   ar
    16   117   115   ar
    17    92    93    1
    18    98    99    1
    19   119   118   ar
    20    11     8    1
    21   115   114   ar
    22    88    87    1
    23     6     5    1
    24     2     3    1
    25     2     1    1
    26     2     5    1
    27    99   102    1
    28    99   100    1
    29     4     3    2
    30     3     7   am
    31    93    87    1
    32   104   106   ar
    33   104   103   ar
    34    87    82   am
    35     7     8    1
    36   102   103    1
    37     8     9    1
    38   118   116   ar
    39   106   108   ar
    40   114   116   ar
    41   114   113    1
    42   103   105   ar
    43   100   109   am
    44   100   101    2
    45   109   110    1
    46    82    83    2
    47    82    81    1
    48   113   110    1
    49    10     9    2
    50   112   111    2
    51    52    51    1
    52     9    16   am
    53   110   111    1
    54   108   107   ar
    55    79    77    1
    56    75    74    2
    57   105   107   ar
    58    81    80    1
    59    81    84    1
    60    85    84    1
    61    16    17    1
    62    50    51    1
    63    50    49    1
    64    69    68    2
    65    74    73    1
    66    84    86    1
    67    73    76    1
    68    73    72    1
    69    77    76    1
    70    77    78    1
    71    17    18    1
    72    49    48    1
    73    68    72   am
    74    68    67    1
    75    63    64    1
    76    63    62    1
    77    66    67    1
    78    66    64   am
    79    56    55    2
    80    19    18    2
    81    18    20   am
    82    67    70    1
    83    64    65    2
    84    48    45    1
    85    62    55   am
    86    55    54    1
    87    70    71    1
    88    26    24    1
    89    20    21    1
    90    45    46    1
    91    45    44    1
    92    46    53   am
    93    46    47    2
    94    53    54    1
    95    54    57    1
    96    21    24    1
    97    21    22    1
    98    24    25    1
    99    25    27    1
   100    44    34   am
   101    31    30    2
   102    57    58    1
   103    28    22   am
   104    28    29    1
   105    22    23    2
   106    34    35    2
   107    34    33    1
   108    30    29    1
   109    41    39   ar
   110    41    42   ar
   111   149   150   ar
   112   149   147   ar
   113    58    59    1
   114   128   126    1
   115    43    42    1
   116    39    37   ar
   117   150   148   ar
   118    42    40   ar
   119   127   126    1
   120    33    32    1
   121    33    36    1
   122   147   146   ar
   123    60    59   ar
   124   126   125    1
   125    59    61   ar
   126    37    36    1
   127    37    38   ar
   128   159   157   ar
   129    40    38   ar
   130   148   146   ar
   131   146   145    1
   132   125   122    1
   133   157   158   ar
   134   157   156    1
   135   134   133    1
   136   145   142    1
   137   122   121    1
   138   122   123    1
   139   140   137    1
   140   156   155    1
   141   133   135    1
   142   133   130    1
   143   124   123    2
   144   137   136    1
   145   137   138    1
   146   144   143    2
   147   136   131   am
   148   142   143    1
   149   142   141    1
   150   143   151   am
   151   131   132    2
   152   131   130    1
   153   151   152    1
   154   155   152    1
   155   152   153    1
   156   139   138    2
   157   130   129    1
   158   154   153    2
