@<TRIPOS>MOLECULE
tmp/4e9bA00.pdb
 156 152 0 0 0
SMALL
GASTEIGER

@<TRIPOS>ATOM
      1  N         85.5570   91.9500   46.8850 N.3    41  SER41      -0.1202
      2  CA        84.4400   91.0520   46.6330 C.3    41  SER41       0.2020
      3  C         83.0390   91.6490   46.8190 C.2    41  SER41       0.2619
      4  O         82.0610   90.9480   46.6230 O.2    41  SER41      -0.2717
      5  CB        84.5800   89.8140   47.5210 C.3    41  SER41       0.2103
      6  OG        85.4210   88.8790   46.8770 O.3    41  SER41      -0.2182
      7  N         82.9650   92.9240   47.1990 N.am   42  GLU42      -0.1965
      8  CA        81.7290   93.6860   47.3970 C.3    42  GLU42       0.1733
      9  C         80.8600   93.0560   48.4910 C.2    42  GLU42       0.2617
     10  O         79.6340   92.9790   48.3890 O.2    42  GLU42      -0.2715
     11  CB        80.9930   93.9230   46.0560 C.3    42  GLU42       0.0429
     12  CG        81.9270   94.5830   45.0290 C.3    42  GLU42       0.1163
     13  CD        81.3810   94.6370   43.6070 C.2    42  GLU42       0.3649
     14  OE1       80.1420   94.5960   43.4290 O.co2  42  GLU42      -0.2457
     15  OE2       82.2080   94.7290   42.6610 O.co2  42  GLU42      -0.2457
     16  N         81.5300   92.6030   49.5470 N.am   43  GLY43      -0.1940
     17  CA        80.8110   92.1360   50.7370 C.3    43  GLY43       0.2014
     18  C         80.7000   93.2680   51.7420 C.2    43  GLY43       0.2639
     19  O         81.3830   94.2980   51.6310 O.2    43  GLY43      -0.2714
     20  N         79.8330   93.0840   52.7200 N.am   44  ILE44      -0.1963
     21  CA        79.7340   94.0330   53.8270 C.3    44  ILE44       0.1727
     22  C         80.2350   93.4340   55.1280 C.2    44  ILE44       0.2616
     23  O         80.2270   94.1110   56.1580 O.2    44  ILE44      -0.2715
     24  CB        78.2960   94.5630   54.0330 C.3    44  ILE44       0.0290
     25  CG1       77.3110   93.4210   54.3330 C.3    44  ILE44       0.0022
     26  CG2       77.8740   95.3200   52.7720 C.3    44  ILE44       0.0023
     27  CD1       75.9440   93.9070   54.8450 C.3    44  ILE44       0.0001
     28  N         80.6460   92.1720   55.0660 N.am   45  GLY45      -0.1955
     29  CA        81.3010   91.5660   56.2160 C.3    45  GLY45       0.1869
     30  C         82.1920   90.4610   55.7110 C.2    45  GLY45       0.2309
     31  O         82.1080   90.0650   54.5500 O.2    45  GLY45      -0.2863
     32  N         86.4620   82.2550   56.1710 N.3    50  GLN50      -0.1245
     33  CA        86.1590   82.4130   54.7490 C.3    50  GLN50       0.1566
     34  C         87.4150   82.6000   53.8830 C.2    50  GLN50       0.2260
     35  O         87.3570   82.3700   52.6630 O.2    50  GLN50      -0.2867
     36  CB        85.1710   83.5560   54.5250 C.3    50  GLN50       0.0367
     37  CG        83.8020   83.2630   55.1250 C.3    50  GLN50       0.0905
     38  CD        82.8560   84.4030   54.8780 C.2    50  GLN50       0.2608
     39  OE1       82.7980   85.3750   55.6460 O.2    50  GLN50      -0.2717
     40  NE2       82.1320   84.3160   53.7620 N.am   50  GLN50      -0.0878
     41  N         77.6960  100.1670   54.1980 N.3    63  PRO63      -0.2116
     42  CA        77.8950  101.3800   53.4120 C.3    63  PRO63       0.1372
     43  C         77.1180  102.5550   53.9980 C.2    63  PRO63       0.2244
     44  O         76.1070  102.3500   54.6860 O.2    63  PRO63      -0.2868
     45  CB        77.3230  101.0130   52.0360 C.3    63  PRO63       0.0268
     46  CG        76.3800   99.8940   52.2890 C.3    63  PRO63       0.0207
     47  CD        76.9580   99.1310   53.4620 C.3    63  PRO63       0.0892
     48  N         65.4500   88.3430   57.2710 N.3    91  TYR91      -0.1227
     49  CA        66.2990   89.1590   56.4470 C.3    91  TYR91       0.1736
     50  C         66.7920   88.3150   55.2740 C.2    91  TYR91       0.2595
     51  O         67.1660   87.1700   55.4670 O.2    91  TYR91      -0.2718
     52  CB        67.4770   89.7150   57.2800 C.3    91  TYR91       0.0548
     53  CG        67.9780   91.0200   56.7190 C.ar   91  TYR91      -0.0200
     54  CD1       67.5380   92.2340   57.2390 C.ar   91  TYR91      -0.0009
     55  CD2       68.8620   91.0340   55.6400 C.ar   91  TYR91      -0.0009
     56  CE1       67.9780   93.4410   56.7070 C.ar   91  TYR91       0.0417
     57  CE2       69.3000   92.2300   55.0970 C.ar   91  TYR91       0.0417
     58  CZ        68.8530   93.4210   55.6340 C.ar   91  TYR91       0.1957
     59  OH        69.2940   94.6050   55.0990 O.3    91  TYR91      -0.2866
     60  N         66.7900   88.9000   54.0710 N.am   92  LYS92      -0.1966
     61  CA        67.2920   88.2220   52.8690 C.3    92  LYS92       0.1728
     62  C         68.8090   88.3710   52.8220 C.2    92  LYS92       0.2616
     63  O         69.3350   89.4820   52.8010 O.2    92  LYS92      -0.2715
     64  CB        66.6750   88.8710   51.6140 C.3    92  LYS92       0.0311
     65  CG        66.8700   88.1040   50.2990 C.3    92  LYS92       0.0038
     66  CD        65.8420   86.9780   50.1770 C.3    92  LYS92       0.0206
     67  CE        65.6540   86.4620   48.7620 C.3    92  LYS92       0.1093
     68  NZ        64.2780   86.7340   48.2460 N.3    92  LYS92      -0.1314
     69  N         69.5090   87.2500   52.8550 N.am   93  GLU93      -0.1963
     70  CA        70.9620   87.2630   52.9310 C.3    93  GLU93       0.1733
     71  C         71.5440   86.5090   51.7740 C.2    93  GLU93       0.2617
     72  O         70.9250   85.5740   51.2700 O.2    93  GLU93      -0.2715
     73  CB        71.4320   86.5230   54.1960 C.3    93  GLU93       0.0429
     74  CG        70.9350   87.1640   55.4720 C.3    93  GLU93       0.1163
     75  CD        71.4110   86.4270   56.7060 C.2    93  GLU93       0.3649
     76  OE1       72.5010   85.7870   56.6800 O.co2  93  GLU93      -0.2457
     77  OE2       70.6940   86.5030   57.7070 O.co2  93  GLU93      -0.2457
     78  N         72.7590   86.9070   51.4070 N.am   94  GLY94      -0.1940
     79  CA        73.6290   86.0770   50.6150 C.3    94  GLY94       0.2014
     80  C         74.9340   85.9730   51.3760 C.2    94  GLY94       0.2639
     81  O         75.1180   86.6080   52.4370 O.2    94  GLY94      -0.2714
     82  N         75.8430   85.1940   50.8200 N.am   95  CYS95      -0.1953
     83  CA        77.1280   84.9140   51.4840 C.3    95  CYS95       0.1843
     84  C         78.2250   84.7970   50.4320 C.2    95  CYS95       0.2625
     85  O         78.0190   84.1310   49.4050 O.2    95  CYS95      -0.2714
     86  CB        77.0170   83.5950   52.2650 C.3    95  CYS95       0.0997
     87  SG        78.5330   83.0780   53.1440 S.3    95  CYS95      -0.0797
     88  N         79.3860   85.4120   50.6870 N.am   96  LEU96      -0.1977
     89  CA        80.5230   85.2970   49.7580 C.3    96  LEU96       0.1596
     90  C         80.9870   83.8400   49.5860 C.2    96  LEU96       0.2287
     91  O         81.5860   83.5020   48.5580 O.2    96  LEU96      -0.2864
     92  CB        81.6920   86.1900   50.1850 C.3    96  LEU96       0.0297
     93  CG        81.3720   87.6980   50.1810 C.3    96  LEU96       0.0022
     94  CD1       82.5990   88.4160   50.6960 C.3    96  LEU96       0.0001
     95  CD2       81.0750   88.1280   48.7590 C.3    96  LEU96       0.0001
     96  N         70.4530   83.5870   47.4590 N.3   102  TYR102     -0.1241
     97  CA        69.8930   84.5290   48.4430 C.3   102  TYR102      0.1605
     98  C         68.6010   83.9720   48.9550 C.2   102  TYR102      0.2264
     99  O         67.7570   83.5250   48.1710 O.2   102  TYR102     -0.2867
    100  CB        69.6230   85.9040   47.8250 C.3   102  TYR102      0.0534
    101  CG        70.8180   86.4100   47.0760 C.ar  102  TYR102     -0.0201
    102  CD1       71.0040   86.0860   45.7370 C.ar  102  TYR102     -0.0009
    103  CD2       71.8060   87.1480   47.7250 C.ar  102  TYR102     -0.0009
    104  CE1       72.1270   86.5170   45.0590 C.ar  102  TYR102      0.0417
    105  CE2       72.9280   87.5870   47.0480 C.ar  102  TYR102      0.0417
    106  CZ        73.0730   87.2650   45.7160 C.ar  102  TYR102      0.1957
    107  OH        74.1760   87.6830   45.0240 O.3   102  TYR102     -0.2866
    108  N         70.1260   95.6030   60.0400 N.3   130  LEU130     -0.1245
    109  CA        71.1980   95.0250   59.2150 C.3   130  LEU130      0.1561
    110  C         72.4650   94.7560   60.0220 C.2   130  LEU130      0.2260
    111  O         73.1320   93.7330   59.8180 O.2   130  LEU130     -0.2867
    112  CB        71.5290   95.9490   58.0620 C.3   130  LEU130      0.0270
    113  CG        72.6380   95.4400   57.1410 C.3   130  LEU130      0.0019
    114  CD1       72.3620   94.0310   56.6430 C.3   130  LEU130      0.0001
    115  CD2       72.7910   96.4450   56.0010 C.3   130  LEU130      0.0001
    116  N         72.0180   91.6190   61.9200 N.3   133  VAL133     -0.1231
    117  CA        72.0100   90.4570   61.0160 C.3   133  VAL133      0.1692
    118  C         73.4380   90.1240   60.5820 C.2   133  VAL133      0.2591
    119  O         73.8340   88.9580   60.5760 O.2   133  VAL133     -0.2718
    120  CB        71.1250   90.7200   59.7750 C.3   133  VAL133      0.0266
    121  CG1       71.2370   89.5700   58.7900 C.3   133  VAL133      0.0020
    122  CG2       69.6820   90.9040   60.2270 C.3   133  VAL133      0.0020
    123  N         74.1930   91.1500   60.2190 N.am  134  ALA134     -0.1980
    124  CA        75.5850   90.9500   59.7930 C.3   134  ALA134      0.1597
    125  C         76.4000   90.3220   60.9210 C.2   134  ALA134      0.2287
    126  O         77.1450   89.3750   60.6970 O.2   134  ALA134     -0.2864
    127  CB        76.2130   92.2660   59.3360 C.3   134  ALA134      0.0319
    128  N         75.3620   86.6350   61.0950 N.3   137  HIS137     -0.1226
    129  CA        75.8930   85.9030   59.9640 C.3   137  HIS137      0.1752
    130  C         77.3720   85.6080   60.1680 C.2   137  HIS137      0.2595
    131  O         77.8370   84.4680   59.9890 O.2   137  HIS137     -0.2718
    132  CB        75.6340   86.7330   58.7150 C.3   137  HIS137      0.0759
    133  CG        76.1350   86.1200   57.4510 C.ar  137  HIS137      0.0818
    134  ND1       75.2910   85.6990   56.4790 N.ar  137  HIS137     -0.2268
    135  CD2       77.4240   85.9240   56.9700 C.ar  137  HIS137      0.1154
    136  CE1       76.0030   85.2260   55.4450 C.ar  137  HIS137      0.1986
    137  NE2       77.3060   85.3470   55.7400 N.ar  137  HIS137     -0.2212
    138  N         78.1410   86.6130   60.5550 N.am  138  GLU138     -0.1979
    139  CA        79.5920   86.3870   60.6960 C.3   138  GLU138      0.1602
    140  C         79.9200   85.4990   61.8750 C.2   138  GLU138      0.2287
    141  O         80.8300   84.6760   61.7820 O.2   138  GLU138     -0.2864
    142  CB        80.3530   87.7080   60.8510 C.3   138  GLU138      0.0415
    143  CG        80.0960   88.7120   59.7320 C.3   138  GLU138      0.1163
    144  CD        80.4740   88.2290   58.3690 C.2   138  GLU138      0.3649
    145  OE1       81.2280   87.2420   58.2750 O.co2 138  GLU138     -0.2457
    146  OE2       80.0070   88.8390   57.3660 O.co2 138  GLU138     -0.2457
    147  N         79.5790   81.9290   60.9640 N.3   141  HIS141     -0.1241
    148  CA        80.7860   81.4040   60.2990 C.3   141  HIS141      0.1621
    149  C         81.8310   80.9420   61.2860 C.2   141  HIS141      0.2264
    150  O         82.5120   79.9600   61.0240 O.2   141  HIS141     -0.2867
    151  CB        81.4530   82.4430   59.4080 C.3   141  HIS141      0.0745
    152  CG        80.8100   82.5940   58.0600 C.ar  141  HIS141      0.0817
    153  ND1       80.7060   81.5710   57.1820 N.ar  141  HIS141     -0.2268
    154  CD2       80.2960   83.7200   57.4300 C.ar  141  HIS141      0.1154
    155  CE1       80.1110   82.0230   56.0510 C.ar  141  HIS141      0.1986
    156  NE2       79.8540   83.3340   56.2150 N.ar  141  HIS141     -0.2212
@<TRIPOS>BOND
     1    15    13   ar
     2    14    13   ar
     3    13    12    1
     4   107   106    1
     5    12    11    1
     6   104   106   ar
     7   104   102   ar
     8   106   105   ar
     9   102   101   ar
    10    11     8    1
    11     4     3    2
    12     2     3    1
    13     2     1    1
    14     2     5    1
    15     3     7   am
    16     6     5    1
    17   105   103   ar
    18   101   103   ar
    19   101   100    1
    20     7     8    1
    21     8     9    1
    22    96    97    1
    23   100    97    1
    24    99    98    2
    25    68    67    1
    26    10     9    2
    27    97    98    1
    28     9    16   am
    29    91    90    2
    30    95    93    1
    31    67    66    1
    32    85    84    2
    33    16    17    1
    34    90    89    1
    35    89    92    1
    36    89    88    1
    37    66    65    1
    38    93    92    1
    39    93    94    1
    40    65    64    1
    41    84    88   am
    42    84    83    1
    43    79    80    1
    44    79    78    1
    45    17    18    1
    46    82    80   am
    47    82    83    1
    48    72    71    2
    49    80    81    2
    50    78    71   am
    51    83    86    1
    52    64    61    1
    53    19    18    2
    54    18    20   am
    55    71    70    1
    56    45    46    1
    57    45    42    1
    58    86    87    1
    59    46    47    1
    60    35    34    2
    61    20    21    1
    62    26    24    1
    63    63    62    2
    64    62    69   am
    65    62    61    1
    66    69    70    1
    67    61    60    1
    68    70    73    1
    69    42    43    1
    70    42    41    1
    71    47    41    1
    72    40    38   am
    73    21    24    1
    74    21    22    1
    75    34    33    1
    76    43    44    2
    77    24    25    1
    78    60    50   am
    79    73    74    1
    80    25    27    1
    81    36    33    1
    82    36    37    1
    83    31    30    2
    84    33    32    1
    85    38    37    1
    86    38    39    2
    87    28    22   am
    88    28    29    1
    89    57    58   ar
    90    57    55   ar
    91    59    58    1
    92    22    23    2
    93    50    51    2
    94    50    49    1
    95   136   137   ar
    96   136   134   ar
    97    74    75    1
    98    58    56   ar
    99    55    53   ar
   100    30    29    1
   101   137   135   ar
   102   115   113    1
   103   155   156   ar
   104   155   153   ar
   105   156   154   ar
   106    49    48    1
   107    49    52    1
   108   134   133   ar
   109   114   113    1
   110    76    75   ar
   111    75    77   ar
   112    56    54   ar
   113    53    54   ar
   114    53    52    1
   115   135   133   ar
   116   113   112    1
   117   153   152   ar
   118   146   144   ar
   119   154   152   ar
   120   133   132    1
   121   152   151    1
   122   112   109    1
   123   145   144   ar
   124   144   143    1
   125   132   129    1
   126   121   120    1
   127   109   110    1
   128   109   108    1
   129   127   124    1
   130   151   148    1
   131   143   142    1
   132   120   122    1
   133   120   117    1
   134   124   123    1
   135   124   125    1
   136   111   110    2
   137   129   130    1
   138   129   128    1
   139   131   130    2
   140   130   138   am
   141   123   118   am
   142   148   147    1
   143   148   149    1
   144   138   139    1
   145   119   118    2
   146   118   117    1
   147   139   142    1
   148   139   140    1
   149   126   125    2
   150   117   116    1
   151   150   149    2
   152   141   140    2
