@<TRIPOS>MOLECULE
tmp/4e9cA00.pdb
 173 171 0 0 0
SMALL
GASTEIGER

@<TRIPOS>ATOM
      1  N          6.4020   -1.2940    4.8590 N.3    41  SER41      -0.1202
      2  CA         5.2290   -1.2030    5.7330 C.3    41  SER41       0.2020
      3  C          4.9190   -2.5090    6.4770 C.2    41  SER41       0.2619
      4  O          4.2320   -2.4960    7.5070 O.2    41  SER41      -0.2717
      5  CB         4.0120   -0.6900    4.9460 C.3    41  SER41       0.2103
      6  OG         3.8630   -1.3970    3.7270 O.3    41  SER41      -0.2182
      7  N          5.4290   -3.6250    5.9440 N.am   42  LYS42      -0.1965
      8  CA         5.2640   -4.9680    6.5200 C.3    42  LYS42       0.1728
      9  C          6.4400   -5.8530    6.1000 C.2    42  LYS42       0.2616
     10  O          7.0280   -5.6450    5.0410 O.2    42  LYS42      -0.2715
     11  CB         3.9940   -5.6590    5.9980 C.3    42  LYS42       0.0311
     12  CG         2.6790   -4.9110    6.1620 C.3    42  LYS42       0.0038
     13  CD         1.5280   -5.7130    5.5820 C.3    42  LYS42       0.0206
     14  CE         0.2040   -4.9690    5.7550 C.3    42  LYS42       0.1093
     15  NZ        -0.9380   -5.8530    5.3790 N.3    42  LYS42      -0.1314
     16  N          6.7570   -6.8590    6.9100 N.am   43  TRP43      -0.1960
     17  CA         7.7760   -7.8480    6.5270 C.3    43  TRP43       0.1771
     18  C          7.5670   -9.1740    7.2430 C.2    43  TRP43       0.2620
     19  O          6.9740   -9.2290    8.3230 O.2    43  TRP43      -0.2715
     20  CB         9.2130   -7.3140    6.7470 C.3    43  TRP43       0.0590
     21  CG         9.5200   -6.9780    8.1790 C.ar   43  TRP43       0.0006
     22  CD1        9.4140   -5.7520    8.7770 C.ar   43  TRP43       0.0946
     23  CD2        9.9830   -7.8800    9.1870 C.ar   43  TRP43       0.0152
     24  NE1        9.7660   -5.8390   10.1030 N.ar   43  TRP43      -0.2442
     25  CE2       10.1160   -7.1350   10.3840 C.ar   43  TRP43       0.0810
     26  CE3       10.2800   -9.2540    9.2050 C.ar   43  TRP43       0.0012
     27  CZ2       10.5420   -7.7150   11.5860 C.ar   43  TRP43       0.0191
     28  CZ3       10.7050   -9.8330   10.4050 C.ar   43  TRP43       0.0001
     29  CH2       10.8330   -9.0600   11.5780 C.ar   43  TRP43       0.0015
     30  N          8.0410  -10.2480    6.6170 N.am   44  VAL44      -0.1963
     31  CA         8.0010  -11.5710    7.2280 C.3    44  VAL44       0.1727
     32  C          9.2540  -12.3620    6.8510 C.2    44  VAL44       0.2616
     33  O          9.5760  -12.5160    5.6660 O.2    44  VAL44      -0.2715
     34  CB         6.6830  -12.3320    6.8950 C.3    44  VAL44       0.0290
     35  CG1        6.3420  -12.2400    5.4290 C.3    44  VAL44       0.0023
     36  CG2        6.7410  -13.7950    7.3770 C.3    44  VAL44       0.0023
     37  N          9.9570  -12.8430    7.8750 N.am   45  ASP45      -0.1971
     38  CA        11.2020  -13.5860    7.6950 C.3    45  ASP45       0.1709
     39  C         10.9690  -15.0950    7.6710 C.2    45  ASP45       0.2293
     40  O         10.8940  -15.7530    8.7170 O.2    45  ASP45      -0.2864
     41  CB        12.2180  -13.1910    8.7750 C.3    45  ASP45       0.1436
     42  CG        13.5440  -13.9380    8.6520 C.2    45  ASP45       0.3671
     43  OD1       13.7420  -14.6900    7.6740 O.co2  45  ASP45      -0.2456
     44  OD2       14.4010  -13.7600    9.5410 O.co2  45  ASP45      -0.2456
     45  N         14.3350  -19.4240    6.5820 N.3    48  ASP48      -0.1239
     46  CA        14.7160  -20.8040    6.8740 C.3    48  ASP48       0.1674
     47  C         14.2430  -21.7850    5.7860 C.2    48  ASP48       0.2266
     48  O         14.6930  -22.9350    5.7430 O.2    48  ASP48      -0.2867
     49  CB        14.2660  -21.2250    8.2860 C.3    48  ASP48       0.1410
     50  CG        12.7620  -21.4700    8.3940 C.2    48  ASP48       0.3668
     51  OD1       12.0310  -21.3070    7.3930 O.co2  48  ASP48      -0.2456
     52  OD2       12.3090  -21.8420    9.4990 O.co2  48  ASP48      -0.2456
     53  N         -0.4530  -13.8760    3.6360 N.3   114  TYR114     -0.1241
     54  CA        -0.1240  -13.8670    5.0580 C.3   114  TYR114      0.1605
     55  C         -0.0500  -12.4440    5.6120 C.2   114  TYR114      0.2264
     56  O         -0.5990  -12.1630    6.6810 O.2   114  TYR114     -0.2867
     57  CB         1.1830  -14.6280    5.3340 C.3   114  TYR114      0.0534
     58  CG         1.6600  -14.5300    6.7700 C.ar  114  TYR114     -0.0201
     59  CD1        1.2210  -15.4380    7.7390 C.ar  114  TYR114     -0.0009
     60  CD2        2.5460  -13.5270    7.1620 C.ar  114  TYR114     -0.0009
     61  CE1        1.6570  -15.3450    9.0600 C.ar  114  TYR114      0.0417
     62  CE2        2.9810  -13.4240    8.4750 C.ar  114  TYR114      0.0417
     63  CZ         2.5370  -14.3340    9.4170 C.ar  114  TYR114      0.1957
     64  OH         2.9790  -14.2270   10.7170 O.3   114  TYR114     -0.2866
     65  N         -2.6620  -10.8520    8.5260 N.3   118  HIS118     -0.1226
     66  CA        -2.1250  -10.8240    9.8900 C.3   118  HIS118      0.1752
     67  C         -1.4200   -9.5460   10.3360 C.2   118  HIS118      0.2596
     68  O         -1.3940   -9.2400   11.5310 O.2   118  HIS118     -0.2718
     69  CB        -1.1690  -12.0060   10.0870 C.3   118  HIS118      0.0759
     70  CG        -1.8410  -13.3400   10.0130 C.ar  118  HIS118      0.0818
     71  ND1       -2.6600  -13.8160   11.0120 N.ar  118  HIS118     -0.2268
     72  CD2       -1.8180  -14.2980    9.0550 C.ar  118  HIS118      0.1154
     73  CE1       -3.1120  -15.0110   10.6760 C.ar  118  HIS118      0.1986
     74  NE2       -2.6170  -15.3260    9.4930 N.ar  118  HIS118     -0.2212
     75  N         -0.8540   -8.7990    9.3920 N.am  119  LEU119     -0.1966
     76  CA         0.0770   -7.7230    9.7460 C.3   119  LEU119      0.1728
     77  C         -0.4690   -6.3090    9.5540 C.2   119  LEU119      0.2616
     78  O         -1.2380   -6.0550    8.6330 O.2   119  LEU119     -0.2715
     79  CB         1.4030   -7.8950    8.9920 C.3   119  LEU119      0.0311
     80  CG         2.0750   -9.2720    9.1040 C.3   119  LEU119      0.0022
     81  CD1        3.4170   -9.2550    8.3650 C.3   119  LEU119      0.0001
     82  CD2        2.2460   -9.7310   10.5590 C.3   119  LEU119      0.0001
     83  N         -0.0810   -5.4090   10.4560 N.am  120  LEU120     -0.1977
     84  CA        -0.4670   -3.9940   10.3810 C.3   120  LEU120      0.1596
     85  C          0.3770   -3.2830    9.3330 C.2   120  LEU120      0.2287
     86  O          1.5280   -3.6460    9.1120 O.2   120  LEU120     -0.2864
     87  CB        -0.2400   -3.3050   11.7280 C.3   120  LEU120      0.0297
     88  CG        -1.2670   -3.3420   12.8620 C.3   120  LEU120      0.0022
     89  CD1       -1.7420   -4.7360   13.1750 C.3   120  LEU120      0.0001
     90  CD2       -0.6450   -2.6890   14.0970 C.3   120  LEU120      0.0001
     91  N          2.5080   -0.2690    8.5030 N.3   122  ALA122     -0.1245
     92  CA         3.2360    0.8670    9.0870 C.3   122  ALA122      0.1562
     93  C          3.1050    2.1310    8.2350 C.2   122  ALA122      0.2260
     94  O          3.2800    2.0880    7.0110 O.2   122  ALA122     -0.2867
     95  CB         4.7030    0.5210    9.2970 C.3   122  ALA122      0.0290
     96  N         18.8980   -8.7000   11.4150 N.3   145  ARG145     -0.1231
     97  CA        18.2230   -8.4490   12.6810 C.3   145  ARG145      0.1694
     98  C         19.2040   -8.4680   13.8420 C.2   145  ARG145      0.2593
     99  O         20.1590   -9.2550   13.8510 O.2   145  ARG145     -0.2718
    100  CB        17.1230   -9.4890   12.9090 C.3   145  ARG145      0.0321
    101  CG        15.8150   -9.1390   12.2390 C.3   145  ARG145      0.0489
    102  CD        15.0510  -10.3510   11.7400 C.3   145  ARG145      0.2205
    103  NE        15.5100  -11.6130   12.3160 N.pl3 145  ARG145     -0.0865
    104  CZ        14.7970  -12.7310   12.3280 C.cat 145  ARG145      0.5346
    105  NH1       15.2990  -13.8310   12.8630 N.pl3 145  ARG145      0.1354
    106  NH2       13.5750  -12.7470   11.8090 N.pl3 145  ARG145      0.1354
    107  N         18.9770   -7.5780   14.8010 N.am  146  THR146     -0.1939
    108  CA        19.6880   -7.6000   16.0700 C.3   146  THR146      0.2028
    109  C         18.6720   -7.9820   17.1410 C.2   146  THR146      0.2642
    110  O         17.5250   -8.2960   16.8180 O.2   146  THR146     -0.2714
    111  CB        20.3350   -6.2380   16.4030 C.3   146  THR146      0.1808
    112  OG1       19.3210   -5.2610   16.6750 O.3   146  THR146     -0.2208
    113  CG2       21.2290   -5.7520   15.2480 C.3   146  THR146      0.0379
    114  N         19.0740   -7.9490   18.4080 N.am  147  ARG147     -0.1977
    115  CA        18.1250   -8.1950   19.4860 C.3   147  ARG147      0.1597
    116  C         17.0140   -7.1400   19.5100 C.2   147  ARG147      0.2287
    117  O         15.8760   -7.4410   19.8840 O.2   147  ARG147     -0.2864
    118  CB        18.8340   -8.2250   20.8440 C.3   147  ARG147      0.0334
    119  CG        17.9520   -8.7490   21.9590 C.3   147  ARG147      0.0492
    120  CD        18.5210   -8.4690   23.3250 C.3   147  ARG147      0.2205
    121  NE        17.8760   -9.3080   24.3290 N.pl3 147  ARG147     -0.0865
    122  CZ        17.7160   -8.9740   25.6060 C.cat 147  ARG147      0.5346
    123  NH1       17.1210   -9.8170   26.4400 N.pl3 147  ARG147      0.1354
    124  NH2       18.1440   -7.7960   26.0520 N.pl3 147  ARG147      0.1354
    125  N         13.5450   -0.6640   12.1380 N.3   162  ASN162     -0.1225
    126  CA        12.3630   -0.8120   12.9840 C.3   162  ASN162      0.1785
    127  C         12.7680   -1.3680   14.3500 C.2   162  ASN162      0.2597
    128  O         13.3640   -2.4450   14.4220 O.2   162  ASN162     -0.2718
    129  CB        11.3530   -1.7970   12.3640 C.3   162  ASN162      0.1169
    130  CG        10.7010   -1.2900   11.0790 C.2   162  ASN162      0.2627
    131  OD1       11.0580   -0.2470   10.5300 O.2   162  ASN162     -0.2716
    132  ND2        9.7270   -2.0630   10.5880 N.am  162  ASN162     -0.0877
    133  N         12.4260   -0.6570   15.4240 N.am  163  PHE163     -0.1962
    134  CA        12.7160   -1.1290   16.7890 C.3   163  PHE163      0.1771
    135  C         11.5630   -1.9670   17.3320 C.2   163  PHE163      0.2619
    136  O         10.4110   -1.5260   17.3160 O.2   163  PHE163     -0.2715
    137  CB        13.0340    0.0530   17.7190 C.3   163  PHE163      0.0574
    138  CG        14.2660    0.8110   17.3100 C.ar  163  PHE163     -0.0200
    139  CD1       14.1760    1.9190   16.4620 C.ar  163  PHE163     -0.0042
    140  CD2       15.5220    0.3920   17.7380 C.ar  163  PHE163     -0.0042
    141  CE1       15.3230    2.6040   16.0600 C.ar  163  PHE163     -0.0003
    142  CE2       16.6730    1.0720   17.3380 C.ar  163  PHE163     -0.0003
    143  CZ        16.5740    2.1730   16.4990 C.ar  163  PHE163     -0.0000
    144  N         11.8840   -3.1640   17.8240 N.am  164  PHE164     -0.1974
    145  CA        10.8670   -4.1490   18.2100 C.3   164  PHE164      0.1639
    146  C         10.0430   -3.7570   19.4410 C.2   164  PHE164      0.2290
    147  O          8.8220   -3.9320   19.4520 O.2   164  PHE164     -0.2864
    148  CB        11.4840   -5.5390   18.4690 C.3   164  PHE164      0.0560
    149  CG        12.2790   -6.1020   17.3210 C.ar  164  PHE164     -0.0200
    150  CD1       13.5010   -6.7300   17.5600 C.ar  164  PHE164     -0.0042
    151  CD2       11.8070   -6.0390   16.0090 C.ar  164  PHE164     -0.0042
    152  CE1       14.2450   -7.2650   16.5100 C.ar  164  PHE164     -0.0003
    153  CE2       12.5460   -6.5780   14.9580 C.ar  164  PHE164     -0.0003
    154  CZ        13.7690   -7.1960   15.2160 C.ar  164  PHE164     -0.0000
    155  N          7.9450   -0.1690   18.8050 N.3   167  HIS167     -0.1241
    156  CA         7.4240    0.0680   17.4510 C.3   167  HIS167      0.1621
    157  C          7.9030    1.3640   16.7930 C.2   167  HIS167      0.2264
    158  O          7.3370    1.7960   15.7850 O.2   167  HIS167     -0.2867
    159  CB         5.8880   -0.0190   17.4240 C.3   167  HIS167      0.0745
    160  CG         5.3390   -1.2010   18.1580 C.ar  167  HIS167      0.0817
    161  ND1        5.4670   -2.4920   17.6910 N.ar  167  HIS167     -0.2268
    162  CD2        4.6620   -1.2870   19.3280 C.ar  167  HIS167      0.1154
    163  CE1        4.8880   -3.3220   18.5420 C.ar  167  HIS167      0.1986
    164  NE2        4.3950   -2.6170   19.5430 N.ar  167  HIS167     -0.2212
    165  N         10.4090    3.6690   14.5120 N.3   169  LYS169     -0.1245
    166  CA        11.0800    3.3660   13.2510 C.3   169  LYS169      0.1561
    167  C         11.7870    4.5880   12.7070 C.2   169  LYS169      0.2260
    168  O         11.3130    5.7230   12.8760 O.2   169  LYS169     -0.2867
    169  CB        10.0740    2.8580   12.2100 C.3   169  LYS169      0.0271
    170  CG         9.2090    1.6820   12.6940 C.3   169  LYS169      0.0035
    171  CD         8.1440    1.3100   11.6770 C.3   169  LYS169      0.0206
    172  CE         7.2740    0.1290   12.1660 C.3   169  LYS169      0.1093
    173  NZ         6.4050    0.4880   13.3300 N.3   169  LYS169     -0.1314
@<TRIPOS>BOND
     1    53    54    1
     2     6     5    1
     3     1     2    1
     4     5     2    1
     5    10     9    2
     6    54    57    1
     7    54    55    1
     8    57    58    1
     9    15    14    1
    10    35    34    1
    11    13    14    1
    12    13    12    1
    13    55    56    2
    14    33    32    2
    15     2     3    1
    16    48    47    2
    17    47    46    1
    18     7     3   am
    19     7     8    1
    20    11    12    1
    21    11     8    1
    22     9     8    1
    23     9    16   am
    24     3     4    2
    25    17    20    1
    26    17    16    1
    27    17    18    1
    28    45    46    1
    29    30    31    1
    30    30    18   am
    31    20    21    1
    32    58    60   ar
    33    58    59   ar
    34    32    31    1
    35    32    37   am
    36    46    49    1
    37    34    31    1
    38    34    36    1
    39    94    93    2
    40    60    62   ar
    41    18    19    2
    42    51    50   ar
    43    39    38    1
    44    39    40    2
    45    43    42   ar
    46    38    37    1
    47    38    41    1
    48    59    61   ar
    49    21    22   ar
    50    21    23   ar
    51    93    92    1
    52    49    50    1
    53    81    80    1
    54    50    52   ar
    55    62    63   ar
    56    91    92    1
    57    65    66    1
    58    78    77    2
    59    42    41    1
    60    42    44   ar
    61    22    24   ar
    62    79    80    1
    63    79    76    1
    64    72    74   ar
    65    72    70   ar
    66    61    63   ar
    67    92    95    1
    68    80    82    1
    69    86    85    2
    70    23    26   ar
    71    23    25   ar
    72    26    28   ar
    73    85    84    1
    74    75    76    1
    75    75    67   am
    76    63    64    1
    77    74    73   ar
    78    77    76    1
    79    77    83   am
    80    66    69    1
    81    66    67    1
    82    70    69    1
    83    70    71   ar
    84    24    25   ar
    85    67    68    2
    86    84    83    1
    87    84    87    1
    88    25    27   ar
    89    28    29   ar
    90   131   130    2
    91   132   130   am
    92    73    71   ar
    93   130   129    1
    94    96    97    1
    95    29    27   ar
    96   171   172    1
    97   171   170    1
    98    87    88    1
    99   102   101    1
   100   102   103    1
   101   106   104    1
   102   125   126    1
   103   172   173    1
   104   169   170    1
   105   169   166    1
   106   101   100    1
   107   103   104    2
   108   104   105    1
   109   129   126    1
   110    97   100    1
   111    97    98    1
   112   167   168    2
   113   167   166    1
   114    88    89    1
   115    88    90    1
   116   126   127    1
   117   166   165    1
   118    98    99    2
   119    98   107   am
   120   127   128    2
   121   127   133   am
   122   107   108    1
   123   153   154   ar
   124   153   151   ar
   125   154   152   ar
   126   113   111    1
   127   133   134    1
   128   158   157    2
   129   151   149   ar
   130   141   139   ar
   131   141   143   ar
   132   108   111    1
   133   108   109    1
   134   111   112    1
   135   139   138   ar
   136   143   142   ar
   137   152   150   ar
   138   134   135    1
   139   134   137    1
   140   157   156    1
   141   110   109    2
   142   109   114   am
   143   138   137    1
   144   138   140   ar
   145   136   135    2
   146   149   150   ar
   147   149   148    1
   148   135   144   am
   149   142   140   ar
   150   159   156    1
   151   159   160    1
   152   156   155    1
   153   161   160   ar
   154   161   163   ar
   155   144   145    1
   156   160   162   ar
   157   145   148    1
   158   145   146    1
   159   114   115    1
   160   163   164   ar
   161   162   164   ar
   162   146   147    2
   163   115   116    1
   164   115   118    1
   165   116   117    2
   166   118   119    1
   167   119   120    1
   168   120   121    1
   169   121   122    2
   170   122   124    1
   171   122   123    1
