@<TRIPOS>MOLECULE
tmp/4e9dA00.pdb
 210 209 0 0 0
SMALL
GASTEIGER

@<TRIPOS>ATOM
      1  N          6.3640    1.3770   -0.4390 N.3    40  SER40      -0.1202
      2  CA         7.2550    2.5280   -0.2680 C.3    40  SER40       0.2020
      3  C          7.3250    3.4490   -1.4960 C.2    40  SER40       0.2619
      4  O          7.5100    4.6610   -1.3570 O.2    40  SER40      -0.2717
      5  CB         8.6560    2.0720    0.1610 C.3    40  SER40       0.2103
      6  OG         9.0680    0.9170   -0.5460 O.3    40  SER40      -0.2182
      7  N          7.1800    2.8740   -2.6890 N.am   41  LYS41      -0.1965
      8  CA         7.1930    3.6480   -3.9360 C.3    41  LYS41       0.1728
      9  C          6.1780    3.1090   -4.9430 C.2    41  LYS41       0.2616
     10  O          5.9430    1.9010   -5.0070 O.2    41  LYS41      -0.2715
     11  CB         8.5900    3.6400   -4.5710 C.3    41  LYS41       0.0311
     12  CG         9.6710    4.3840   -3.7950 C.3    41  LYS41       0.0038
     13  CD        11.0210    4.2490   -4.4780 C.3    41  LYS41       0.0206
     14  CE        12.1350    4.7720   -3.5920 C.3    41  LYS41       0.1093
     15  NZ        13.4640    4.7330   -4.2640 N.3    41  LYS41      -0.1314
     16  N          5.5830    4.0090   -5.7270 N.am   42  TRP42      -0.1960
     17  CA         4.6900    3.6080   -6.8210 C.3    42  TRP42       0.1771
     18  C          4.8580    4.4530   -8.0860 C.2    42  TRP42       0.2620
     19  O          5.3300    5.5930   -8.0250 O.2    42  TRP42      -0.2715
     20  CB         3.2190    3.5630   -6.3730 C.3    42  TRP42       0.0590
     21  CG         2.6560    4.8670   -5.8770 C.ar   42  TRP42       0.0006
     22  CD1        2.7210    5.3540   -4.6040 C.ar   42  TRP42       0.0946
     23  CD2        1.9190    5.8340   -6.6390 C.ar   42  TRP42       0.0152
     24  NE1        2.0840    6.5690   -4.5260 N.ar   42  TRP42      -0.2442
     25  CE2        1.5820    6.8890   -5.7600 C.ar   42  TRP42       0.0810
     26  CE3        1.5150    5.9150   -7.9790 C.ar   42  TRP42       0.0012
     27  CZ2        0.8600    8.0130   -6.1770 C.ar   42  TRP42       0.0191
     28  CZ3        0.7950    7.0350   -8.3930 C.ar   42  TRP42       0.0001
     29  CH2        0.4760    8.0670   -7.4920 C.ar   42  TRP42       0.0015
     30  N          4.4900    3.8720   -9.2270 N.am   43  VAL43      -0.1963
     31  CA         4.5590    4.5440  -10.5270 C.3    43  VAL43       0.1727
     32  C          3.3030    4.2260  -11.3470 C.2    43  VAL43       0.2616
     33  O          3.0650    3.0730  -11.7150 O.2    43  VAL43      -0.2715
     34  CB         5.8420    4.1460  -11.3380 C.3    43  VAL43       0.0290
     35  CG1        5.8730    4.8410  -12.7020 C.3    43  VAL43       0.0023
     36  CG2        7.1140    4.4690  -10.5640 C.3    43  VAL43       0.0023
     37  N          2.4730    5.2210  -11.6410 N.am   44  ASP44      -0.1957
     38  CA         1.2820    5.0800  -12.4810 C.3    44  ASP44       0.1840
     39  C          1.7360    5.1710  -13.9120 C.2    44  ASP44       0.2622
     40  O          2.3410    6.1180  -14.3280 O.2    44  ASP44      -0.2715
     41  CB         0.2390    6.2060  -12.1910 C.3    44  ASP44       0.1450
     42  CG        -1.2190    5.9010  -12.6260 C.2    44  ASP44       0.3671
     43  OD1       -1.5450    5.5560  -13.7280 O.co2  44  ASP44      -0.2456
     44  OD2       -2.1010    6.0890  -11.8500 O.co2  44  ASP44      -0.2456
     45  N          1.4610    4.1340  -14.6530 N.am   45  TYR45      -0.1974
     46  CA         1.5810    4.1370  -16.0660 C.3    45  TYR45       0.1639
     47  C          0.5450    3.2810  -16.6940 C.2    45  TYR45       0.2290
     48  O          0.8280    2.6610  -17.6530 O.2    45  TYR45      -0.2864
     49  CB         2.9390    3.6440  -16.4620 C.3    45  TYR45       0.0560
     50  CG         3.5950    4.3900  -17.5970 C.ar   45  TYR45      -0.0198
     51  CD1        4.8110    4.9950  -17.4450 C.ar   45  TYR45      -0.0009
     52  CD2        3.0080    4.4670  -18.7950 C.ar   45  TYR45      -0.0009
     53  CE1        5.3910    5.6210  -18.4580 C.ar   45  TYR45       0.0417
     54  CE2        3.5710    5.0950  -19.7800 C.ar   45  TYR45       0.0417
     55  CZ         4.7540    5.6720  -19.6300 C.ar   45  TYR45       0.1957
     56  OH         5.2780    6.2990  -20.6980 O.3    45  TYR45      -0.2866
     57  N         -2.0390    3.9800  -18.3780 N.3    47  ASP47      -0.1239
     58  CA        -2.4660    4.4320  -19.7010 C.3    47  ASP47       0.1674
     59  C         -1.7280    3.7080  -20.8400 C.2    47  ASP47       0.2266
     60  O         -2.1040    3.8420  -22.0100 O.2    47  ASP47      -0.2867
     61  CB        -2.3110    5.9540  -19.8300 C.3    47  ASP47       0.1410
     62  CG        -0.9960    6.4660  -19.2540 C.2    47  ASP47       0.3668
     63  OD1       -0.1760    6.9990  -20.0310 O.co2  47  ASP47      -0.2456
     64  OD2       -0.7820    6.3370  -18.0260 O.co2  47  ASP47      -0.2456
     65  N          1.1500    0.8040  -19.7560 N.3    49  TYR49      -0.1241
     66  CA         1.7860   -0.3870  -19.2030 C.3    49  TYR49       0.1605
     67  C          1.0460   -0.9800  -18.0260 C.2    49  TYR49       0.2264
     68  O          0.6190   -2.0900  -18.0470 O.2    49  TYR49      -0.2867
     69  CB         3.2730   -0.1320  -18.8560 C.3    49  TYR49       0.0534
     70  CG         4.1370    0.4970  -19.9360 C.ar   49  TYR49      -0.0201
     71  CD1        5.0440    1.4890  -19.6140 C.ar   49  TYR49      -0.0009
     72  CD2        4.0490    0.1080  -21.2490 C.ar   49  TYR49      -0.0009
     73  CE1        5.8200    2.0900  -20.5440 C.ar   49  TYR49       0.0417
     74  CE2        4.8380    0.6950  -22.2020 C.ar   49  TYR49       0.0417
     75  CZ         5.7280    1.7050  -21.8410 C.ar   49  TYR49       0.1957
     76  OH         6.5310    2.3210  -22.7680 O.3    49  TYR49      -0.2866
     77  N          9.9110   -4.6340  -19.3090 N.3   106  LEU106     -0.1245
     78  CA         9.0110   -3.5920  -18.8050 C.3   106  LEU106      0.1561
     79  C          9.1300   -3.4160  -17.2930 C.2   106  LEU106      0.2260
     80  O          9.1020   -2.2910  -16.7910 O.2   106  LEU106     -0.2867
     81  CB         7.5530   -3.8740  -19.1870 C.3   106  LEU106      0.0270
     82  CG         7.0390   -3.4840  -20.5770 C.3   106  LEU106      0.0019
     83  CD1        5.5550   -3.8140  -20.6880 C.3   106  LEU106      0.0001
     84  CD2        7.2860   -2.0090  -20.8920 C.3   106  LEU106      0.0001
     85  N         12.1680   -1.2760  -16.4180 N.3   109  TYR109     -0.1227
     86  CA        11.9260    0.1440  -16.4860 C.3   109  TYR109      0.1736
     87  C         11.3740    0.6760  -15.2140 C.2   109  TYR109      0.2595
     88  O         11.7850    1.6780  -14.7650 O.2   109  TYR109     -0.2718
     89  CB        10.9140    0.4230  -17.5710 C.3   109  TYR109      0.0548
     90  CG        11.3640    0.1520  -18.9560 C.ar  109  TYR109     -0.0200
     91  CD1       10.5100    0.2570  -20.0020 C.ar  109  TYR109     -0.0009
     92  CD2       12.6140   -0.2550  -19.2090 C.ar  109  TYR109     -0.0009
     93  CE1       10.9040    0.0350  -21.2410 C.ar  109  TYR109      0.0417
     94  CE2       13.0130   -0.5040  -20.4670 C.ar  109  TYR109      0.0417
     95  CZ        12.1570   -0.3550  -21.4670 C.ar  109  TYR109      0.1957
     96  OH        12.5660   -0.6080  -22.7030 O.3   109  TYR109     -0.2866
     97  N         10.4100   -0.0010  -14.6320 N.am  110  PHE110     -0.1976
     98  CA         9.8680    0.3850  -13.3300 C.3   110  PHE110      0.1639
     99  C         10.9180    0.3010  -12.2210 C.2   110  PHE110      0.2290
    100  O         11.0370    1.2180  -11.4070 O.2   110  PHE110     -0.2864
    101  CB         8.6530   -0.4800  -12.9710 C.3   110  PHE110      0.0560
    102  CG         7.3810   -0.0640  -13.6640 C.ar  110  PHE110     -0.0200
    103  CD1        6.9830   -0.6770  -14.8470 C.ar  110  PHE110     -0.0042
    104  CD2        6.5770    0.9370  -13.1280 C.ar  110  PHE110     -0.0042
    105  CE1        5.8080   -0.2970  -15.4880 C.ar  110  PHE110     -0.0003
    106  CE2        5.3970    1.3210  -13.7640 C.ar  110  PHE110     -0.0003
    107  CZ         5.0150    0.7030  -14.9450 C.ar  110  PHE110     -0.0000
    108  N         13.6770    3.0320  -12.5700 N.3   113  TYR113     -0.1241
    109  CA        13.0790    4.3470  -12.3180 C.3   113  TYR113      0.1605
    110  C         12.9240    4.6790  -10.8280 C.2   113  TYR113      0.2264
    111  O         13.1410    5.8220  -10.4110 O.2   113  TYR113     -0.2867
    112  CB        11.7230    4.4610  -13.0270 C.3   113  TYR113      0.0534
    113  CG        11.1900    5.8730  -13.1160 C.ar  113  TYR113     -0.0201
    114  CD1       11.4770    6.6790  -14.2200 C.ar  113  TYR113     -0.0009
    115  CD2       10.3980    6.4060  -12.0980 C.ar  113  TYR113     -0.0009
    116  CE1       10.9880    7.9820  -14.3070 C.ar  113  TYR113      0.0417
    117  CE2        9.9070    7.7070  -12.1740 C.ar  113  TYR113      0.0417
    118  CZ        10.2060    8.4890  -13.2790 C.ar  113  TYR113      0.1957
    119  OH         9.7160    9.7730  -13.3550 O.3   113  TYR113     -0.2866
    120  N         15.0870    7.6880   -9.2100 N.3   117  HIS117     -0.1226
    121  CA        14.3650    8.9660   -9.1950 C.3   117  HIS117      0.1752
    122  C         13.3910    9.2090   -8.0360 C.2   117  HIS117      0.2596
    123  O         12.9980   10.3580   -7.7990 O.2   117  HIS117     -0.2718
    124  CB        13.6380    9.1830  -10.5280 C.3   117  HIS117      0.0759
    125  CG        14.5260    9.6650  -11.6320 C.ar  117  HIS117      0.0818
    126  ND1       14.8270   10.9980  -11.8170 N.ar  117  HIS117     -0.2268
    127  CD2       15.1750    8.9940  -12.6130 C.ar  117  HIS117      0.1154
    128  CE1       15.6270   11.1260  -12.8620 C.ar  117  HIS117      0.1986
    129  NE2       15.8550    9.9240  -13.3620 N.ar  117  HIS117     -0.2212
    130  N         13.0030    8.1550   -7.3190 N.am  118  LEU118     -0.1966
    131  CA        11.9640    8.2860   -6.2840 C.3   118  LEU118      0.1728
    132  C         12.4550    8.1890   -4.8320 C.2   118  LEU118      0.2616
    133  O         13.5430    7.6690   -4.5610 O.2   118  LEU118     -0.2715
    134  CB        10.8110    7.3060   -6.5380 C.3   118  LEU118      0.0311
    135  CG         9.9940    7.4900   -7.8220 C.3   118  LEU118      0.0022
    136  CD1        8.9250    6.4200   -7.9180 C.3   118  LEU118      0.0001
    137  CD2        9.3670    8.8780   -7.9110 C.3   118  LEU118      0.0001
    138  N         11.6290    8.7010   -3.9180 N.am  119  LEU119     -0.1977
    139  CA        11.9320    8.7850   -2.4880 C.3   119  LEU119      0.1596
    140  C         11.2560    7.6350   -1.7360 C.2   119  LEU119      0.2287
    141  O         10.0850    7.3330   -1.9860 O.2   119  LEU119     -0.2864
    142  CB        11.4320   10.1300   -1.9460 C.3   119  LEU119      0.0297
    143  CG        11.9920   10.7340   -0.6560 C.3   119  LEU119      0.0022
    144  CD1       13.2980   11.4680   -0.9210 C.3   119  LEU119      0.0001
    145  CD2       10.9770   11.6830   -0.0320 C.3   119  LEU119      0.0001
    146  N          9.4460    5.6080    1.2740 N.3   121  ALA121     -0.1245
    147  CA         8.4740    5.9500    2.3180 C.3   121  ALA121      0.1562
    148  C          8.4890    4.9910    3.5070 C.2   121  ALA121      0.2260
    149  O          8.5020    3.7680    3.3400 O.2   121  ALA121     -0.2867
    150  CB         7.0820    6.0380    1.7340 C.3   121  ALA121      0.0290
    151  N         -7.5130    5.5510   -7.8070 N.3   144  ARG144     -0.1245
    152  CA        -7.1660    6.9120   -7.3980 C.3   144  ARG144      0.1563
    153  C         -8.4010    7.7730   -7.1750 C.2   144  ARG144      0.2260
    154  O         -9.3040    7.8030   -8.0090 O.2   144  ARG144     -0.2867
    155  CB        -6.2480    7.5730   -8.4330 C.3   144  ARG144      0.0307
    156  CG        -4.7560    7.3690   -8.1650 C.3   144  ARG144      0.0489
    157  CD        -3.8820    7.6200   -9.3990 C.3   144  ARG144      0.2205
    158  NE        -3.9380    9.0040   -9.8720 N.pl3 144  ARG144     -0.0865
    159  CZ        -4.5390    9.3960  -10.9950 C.cat 144  ARG144      0.5346
    160  NH1       -4.5320   10.6790  -11.3310 N.pl3 144  ARG144      0.1354
    161  NH2       -5.1440    8.5150  -11.7850 N.pl3 144  ARG144      0.1354
    162  N         -2.3570    6.4520    0.7740 N.3   161  ASN161     -0.1225
    163  CA        -1.4750    7.6170    0.7400 C.3   161  ASN161      0.1785
    164  C         -2.2400    8.8550    0.2990 C.2   161  ASN161      0.2597
    165  O         -2.8830    8.8480   -0.7500 O.2   161  ASN161     -0.2718
    166  CB        -0.3020    7.3860   -0.2200 C.3   161  ASN161      0.1169
    167  CG         0.6440    6.2880    0.2450 C.2   161  ASN161      0.2627
    168  OD1        0.3640    5.5610    1.2040 O.2   161  ASN161     -0.2716
    169  ND2        1.7780    6.1630   -0.4430 N.am  161  ASN161     -0.0877
    170  N         -2.1580    9.9170    1.0950 N.am  162  PHE162     -0.1962
    171  CA        -2.8660   11.1640    0.8060 C.3   162  PHE162      0.1771
    172  C         -1.9540   12.1450    0.0720 C.2   162  PHE162      0.2619
    173  O         -0.7660   12.2430    0.3810 O.2   162  PHE162     -0.2715
    174  CB        -3.4340   11.7660    2.0950 C.3   162  PHE162      0.0574
    175  CG        -4.3580   10.8340    2.8380 C.ar  162  PHE162     -0.0200
    176  CD1       -3.8550    9.9110    3.7510 C.ar  162  PHE162     -0.0042
    177  CD2       -5.7290   10.8670    2.6120 C.ar  162  PHE162     -0.0042
    178  CE1       -4.7030    9.0390    4.4320 C.ar  162  PHE162     -0.0003
    179  CE2       -6.5870   10.0000    3.2910 C.ar  162  PHE162     -0.0003
    180  CZ        -6.0710    9.0840    4.2030 C.ar  162  PHE162     -0.0000
    181  N         -2.5180   12.8640   -0.8970 N.am  163  PHE163     -0.1974
    182  CA        -1.7250   13.6450   -1.8570 C.3   163  PHE163      0.1639
    183  C         -1.1790   14.9830   -1.3490 C.2   163  PHE163      0.2290
    184  O         -0.0050   15.2930   -1.5630 O.2   163  PHE163     -0.2864
    185  CB        -2.5040   13.8540   -3.1650 C.3   163  PHE163      0.0560
    186  CG        -2.5000   12.6540   -4.0760 C.ar  163  PHE163     -0.0200
    187  CD1       -3.5770   11.7730   -4.0940 C.ar  163  PHE163     -0.0042
    188  CD2       -1.4220   12.4050   -4.9160 C.ar  163  PHE163     -0.0042
    189  CE1       -3.5820   10.6620   -4.9340 C.ar  163  PHE163     -0.0003
    190  CE2       -1.4170   11.2960   -5.7580 C.ar  163  PHE163     -0.0003
    191  CZ        -2.5030   10.4230   -5.7650 C.ar  163  PHE163     -0.0000
    192  N          0.8880   14.6340    2.4040 N.3   166  HIS166     -0.1241
    193  CA         1.8930   13.5560    2.3820 C.3   166  HIS166      0.1621
    194  C          1.7050   12.4380    3.4280 C.2   166  HIS166      0.2264
    195  O          2.5740   11.5720    3.5750 O.2   166  HIS166     -0.2867
    196  CB         3.3180   14.1340    2.4770 C.3   166  HIS166      0.0745
    197  CG         3.7230   14.9650    1.2960 C.ar  166  HIS166      0.0817
    198  ND1        4.1530   14.4120    0.1090 N.ar  166  HIS166     -0.2268
    199  CD2        3.7830   16.3070    1.1280 C.ar  166  HIS166      0.1154
    200  CE1        4.4510   15.3770   -0.7430 C.ar  166  HIS166      0.1986
    201  NE2        4.2350   16.5370   -0.1490 N.ar  166  HIS166     -0.2212
    202  N          0.1050    9.0490    5.4080 N.3   168  LYS168     -0.1245
    203  CA        -0.1350    7.6690    4.9660 C.3   168  LYS168      0.1561
    204  C         -0.8710    6.8400    6.0220 C.2   168  LYS168      0.2260
    205  O         -0.7060    7.0650    7.2220 O.2   168  LYS168     -0.2867
    206  CB         1.1890    7.0000    4.5810 C.3   168  LYS168      0.0271
    207  CG         1.8480    7.6120    3.3530 C.3   168  LYS168      0.0035
    208  CD         3.2940    7.1860    3.2020 C.3   168  LYS168      0.0206
    209  CE         3.9440    7.9030    2.0260 C.3   168  LYS168      0.1093
    210  NZ         4.0720    9.3780    2.2370 N.3   168  LYS168     -0.1314
@<TRIPOS>BOND
     1    76    75    1
     2    96    95    1
     3    74    75   ar
     4    74    72   ar
     5    60    59    2
     6    75    73   ar
     7    95    93   ar
     8    95    94   ar
     9    72    70   ar
    10    93    91   ar
    11    84    82    1
    12    59    58    1
    13    56    55    1
    14    83    82    1
    15    82    81    1
    16    73    71   ar
    17    94    92   ar
    18    63    62   ar
    19    91    90   ar
    20    70    71   ar
    21    70    69    1
    22    61    58    1
    23    61    62    1
    24    54    55   ar
    25    54    52   ar
    26    65    66    1
    27    58    57    1
    28    55    53   ar
    29    77    78    1
    30    62    64   ar
    31    92    90   ar
    32    66    69    1
    33    66    67    1
    34    81    78    1
    35    90    89    1
    36    78    79    1
    37    52    50   ar
    38    53    51   ar
    39    68    67    2
    40    48    47    2
    41    50    51   ar
    42    50    49    1
    43    89    86    1
    44    79    80    2
    45    47    46    1
    46    86    85    1
    47    86    87    1
    48    49    46    1
    49    46    45    1
    50   105   107   ar
    51   105   103   ar
    52    87    88    2
    53    87    97   am
    54   107   106   ar
    55   103   102   ar
    56    45    39   am
    57    97    98    1
    58    40    39    2
    59   116   114   ar
    60   116   118   ar
    61   114   113   ar
    62    39    38    1
    63   106   104   ar
    64    43    42   ar
    65   102   104   ar
    66   102   101    1
    67   129   128   ar
    68   129   127   ar
    69   119   118    1
    70    98   101    1
    71    98    99    1
    72   118   117   ar
    73   113   112    1
    74   113   115   ar
    75   112   109    1
    76   128   126   ar
    77    35    34    1
    78    42    41    1
    79    42    44   ar
    80   127   125   ar
    81   108   109    1
    82    38    41    1
    83    38    37    1
    84   109   110    1
    85    99   100    2
    86   117   115   ar
    87   126   125   ar
    88   161   159    1
    89    33    32    2
    90    37    32   am
    91   125   124    1
    92    32    31    1
    93    34    36    1
    94    34    31    1
    95   160   159    1
    96   159   158    2
    97   110   111    2
    98   124   121    1
    99    31    30    1
   100   158   157    1
   101   157   156    1
   102    30    18   am
   103   120   121    1
   104   121   122    1
   105   155   156    1
   106   155   152    1
   107    28    26   ar
   108    28    29   ar
   109    18    19    2
   110    18    17    1
   111   122   123    2
   112   122   130   am
   113   154   153    2
   114    26    23   ar
   115   136   135    1
   116   137   135    1
   117   135   134    1
   118   151   152    1
   119    29    27   ar
   120   152   153    1
   121   130   131    1
   122    17    20    1
   123    17    16    1
   124    23    21   ar
   125    23    25   ar
   126   134   131    1
   127    20    21    1
   128   131   132    1
   129    27    25   ar
   130    21    22   ar
   131   191   190   ar
   132   191   189   ar
   133    25    24   ar
   134   190   188   ar
   135    16     9   am
   136    10     9    2
   137     9     8    1
   138   189   187   ar
   139   188   186   ar
   140   132   133    2
   141   132   138   am
   142    22    24   ar
   143    11     8    1
   144    11    12    1
   145    13    12    1
   146    13    14    1
   147    15    14    1
   148   187   186   ar
   149   186   185    1
   150     8     7    1
   151   138   139    1
   152   185   182    1
   153     7     3   am
   154   139   142    1
   155   139   140    1
   156   141   140    2
   157   142   143    1
   158   182   183    1
   159   182   181    1
   160   184   183    2
   161     3     4    2
   162     3     2    1
   163   144   143    1
   164   181   172   am
   165   165   164    2
   166   200   201   ar
   167   200   198   ar
   168   143   145    1
   169     6     5    1
   170   169   167   am
   171     1     2    1
   172     2     5    1
   173   166   167    1
   174   166   163    1
   175   201   199   ar
   176   172   173    2
   177   172   171    1
   178   198   197   ar
   179   167   168    2
   180   164   163    1
   181   164   170   am
   182   163   162    1
   183   171   170    1
   184   171   174    1
   185   199   197   ar
   186   146   147    1
   187   197   196    1
   188   150   147    1
   189   209   210    1
   190   209   208    1
   191   174   175    1
   192   147   148    1
   193   193   192    1
   194   193   196    1
   195   193   194    1
   196   177   175   ar
   197   177   179   ar
   198   175   176   ar
   199   208   207    1
   200   179   180   ar
   201   149   148    2
   202   207   206    1
   203   194   195    2
   204   176   178   ar
   205   180   178   ar
   206   206   203    1
   207   203   202    1
   208   203   204    1
   209   204   205    2
