@<TRIPOS>MOLECULE
tmp/4e9uA00.pdb
 180 170 0 0 0
SMALL
GASTEIGER

@<TRIPOS>ATOM
      1  N         24.3450   -6.0690   15.9690 N.3    18  HIS18      -0.1226
      2  CA        24.2300   -5.9640   14.5290 C.3    18  HIS18       0.1752
      3  C         22.9470   -6.5630   13.9440 C.2    18  HIS18       0.2596
      4  O         22.4150   -6.0390   12.9710 O.2    18  HIS18      -0.2718
      5  CB        25.4290   -6.6020   13.8450 C.3    18  HIS18       0.0759
      6  CG        25.4200   -6.4380   12.3570 C.ar   18  HIS18       0.0818
      7  ND1       25.0080   -7.4360   11.5000 N.ar   18  HIS18      -0.2268
      8  CD2       25.7630   -5.3860   11.5760 C.ar   18  HIS18       0.1154
      9  CE1       25.1050   -7.0080   10.2520 C.ar   18  HIS18       0.1986
     10  NE2       25.5590   -5.7680   10.2710 N.ar   18  HIS18      -0.2212
     11  N         22.4670   -7.6680   14.5090 N.am   19  SER19      -0.1952
     12  CA        21.2830   -8.3210   13.9630 C.3    19  SER19       0.1924
     13  C         20.4320   -8.9580   15.0510 C.2    19  SER19       0.2314
     14  O         20.7580  -10.0240   15.5580 O.2    19  SER19      -0.2863
     15  CB        21.6650   -9.3820   12.9240 C.3    19  SER19       0.2116
     16  OG        20.4960   -9.9630   12.3540 O.3    19  SER19      -0.2180
     17  N         18.8360  -12.3080   13.7010 N.3    22  PHE22      -0.1241
     18  CA        19.7450  -13.4430   13.6880 C.3    22  PHE22       0.1605
     19  C         20.0080  -13.9310   15.1030 C.2    22  PHE22       0.2264
     20  O         19.9730  -15.1350   15.3830 O.2    22  PHE22      -0.2867
     21  CB        21.0440  -13.0430   12.9850 C.3    22  PHE22       0.0534
     22  CG        21.8070  -14.1920   12.4490 C.ar   22  PHE22      -0.0203
     23  CD1       21.4320  -14.7810   11.2580 C.ar   22  PHE22      -0.0042
     24  CD2       22.8990  -14.6990   13.1400 C.ar   22  PHE22      -0.0042
     25  CE1       22.1300  -15.8540   10.7580 C.ar   22  PHE22      -0.0003
     26  CE2       23.6170  -15.7800   12.6430 C.ar   22  PHE22      -0.0003
     27  CZ        23.2290  -16.3610   11.4520 C.ar   22  PHE22      -0.0000
     28  N         19.2950  -17.7480   16.7040 N.3    26  PHE26      -0.1241
     29  CA        20.4750  -18.5460   17.0050 C.3    26  PHE26       0.1605
     30  C         20.8280  -18.5960   18.4730 C.2    26  PHE26       0.2264
     31  O         21.5400  -19.5010   18.9060 O.2    26  PHE26      -0.2867
     32  CB        21.6660  -18.1100   16.1540 C.3    26  PHE26       0.0534
     33  CG        21.5630  -18.5690   14.7370 C.ar   26  PHE26      -0.0203
     34  CD1       21.8880  -19.8700   14.3990 C.ar   26  PHE26      -0.0042
     35  CD2       21.0980  -17.7180   13.7520 C.ar   26  PHE26      -0.0042
     36  CE1       21.7730  -20.3120   13.1080 C.ar   26  PHE26      -0.0003
     37  CE2       20.9720  -18.1540   12.4590 C.ar   26  PHE26      -0.0003
     38  CZ        21.3150  -19.4540   12.1300 C.ar   26  PHE26      -0.0000
     39  N         30.2380  -15.4660   13.7200 N.3    41  TYR41      -0.1241
     40  CA        29.5310  -14.2390   13.3530 C.3    41  TYR41       0.1605
     41  C         30.3660  -13.0070   13.6610 C.2    41  TYR41       0.2264
     42  O         30.5090  -12.1110   12.8310 O.2    41  TYR41      -0.2867
     43  CB        28.1920  -14.1210   14.0910 C.3    41  TYR41       0.0534
     44  CG        27.2420  -13.1260   13.4540 C.ar   41  TYR41      -0.0201
     45  CD1       27.3010  -11.7740   13.7640 C.ar   41  TYR41      -0.0009
     46  CD2       26.2920  -13.5450   12.5300 C.ar   41  TYR41      -0.0009
     47  CE1       26.4330  -10.8590   13.1690 C.ar   41  TYR41       0.0417
     48  CE2       25.4200  -12.6440   11.9310 C.ar   41  TYR41       0.0417
     49  CZ        25.4980  -11.3040   12.2480 C.ar   41  TYR41       0.1957
     50  OH        24.6230  -10.4120   11.6470 O.3    41  TYR41      -0.2866
     51  N         30.1190  -12.4140    0.5480 N.3   133  VAL133     -0.1231
     52  CA        29.9080  -11.8250    1.8680 C.3   133  VAL133      0.1692
     53  C         29.0100  -12.6380    2.7950 C.2   133  VAL133      0.2591
     54  O         28.9520  -12.3780    3.9960 O.2   133  VAL133     -0.2718
     55  CB        29.3650  -10.3940    1.7910 C.3   133  VAL133      0.0266
     56  CG1       30.2970   -9.5120    0.9370 C.3   133  VAL133      0.0020
     57  CG2       27.9370  -10.3820    1.2630 C.3   133  VAL133      0.0020
     58  N         28.3100  -13.6180    2.2450 N.am  134  ALA134     -0.1980
     59  CA        27.2720  -14.2890    3.0120 C.3   134  ALA134      0.1597
     60  C         27.2890  -15.7960    2.7750 C.2   134  ALA134      0.2287
     61  O         27.1600  -16.5640    3.7130 O.2   134  ALA134     -0.2864
     62  CB        25.9100  -13.7020    2.6830 C.3   134  ALA134      0.0319
     63  N         29.8810  -17.2630    4.8140 N.3   137  VAL137     -0.1231
     64  CA        29.5300  -17.3860    6.2300 C.3   137  VAL137      0.1692
     65  C         28.7410  -18.6520    6.4920 C.2   137  VAL137      0.2592
     66  O         29.0140  -19.3560    7.4550 O.2   137  VAL137     -0.2718
     67  CB        28.7670  -16.1530    6.7480 C.3   137  VAL137      0.0266
     68  CG1       28.3180  -16.3630    8.1670 C.3   137  VAL137      0.0020
     69  CG2       29.6630  -14.9320    6.6480 C.3   137  VAL137      0.0020
     70  N         27.7930  -18.9610    5.6060 N.am  138  GLY138     -0.1957
     71  CA        27.0480  -20.2130    5.6810 C.3   138  GLY138      0.1869
     72  C         27.9610  -21.4200    5.6530 C.2   138  GLY138      0.2309
     73  O         27.7610  -22.3970    6.3890 O.2   138  GLY138     -0.2863
     74  N         29.7230  -21.8620    8.9860 N.3   141  LEU141     -0.1231
     75  CA        28.7700  -22.3560    9.9880 C.3   141  LEU141      0.1693
     76  C         28.3400  -23.8060    9.7810 C.2   141  LEU141      0.2592
     77  O         27.7670  -24.4230   10.6740 O.2   141  LEU141     -0.2718
     78  CB        27.5190  -21.4820   10.0260 C.3   141  LEU141      0.0284
     79  CG        27.6690  -20.0660   10.5920 C.3   141  LEU141      0.0019
     80  CD1       26.3930  -19.2570   10.3840 C.3   141  LEU141      0.0001
     81  CD2       28.0470  -20.0780   12.0600 C.3   141  LEU141      0.0001
     82  N         28.5930  -24.3450    8.6020 N.am  142  THR142     -0.1953
     83  CA        28.0590  -25.6620    8.2710 C.3   142  THR142      0.1897
     84  C         28.3730  -26.7670    9.2900 C.2   142  THR142      0.2313
     85  O         27.4540  -27.4510    9.7350 O.2   142  THR142     -0.2863
     86  CB        28.4030  -26.0840    6.8540 C.3   142  THR142      0.1794
     87  OG1       27.7710  -25.1730    5.9430 O.3   142  THR142     -0.2208
     88  CG2       27.8980  -27.4990    6.5870 C.3   142  THR142      0.0378
     89  N         26.3200  -26.5010   12.5910 N.3   145  LEU145     -0.1245
     90  CA        24.8820  -26.7630   12.5260 C.3   145  LEU145      0.1561
     91  C         24.4970  -28.1260   11.9320 C.2   145  LEU145      0.2260
     92  O         23.3130  -28.4050   11.7440 O.2   145  LEU145     -0.2867
     93  CB        24.2040  -25.6650   11.7160 C.3   145  LEU145      0.0270
     94  CG        24.3480  -24.2560   12.2950 C.3   145  LEU145      0.0019
     95  CD1       23.7580  -23.2540   11.3310 C.3   145  LEU145      0.0001
     96  CD2       23.6890  -24.1740   13.6740 C.3   145  LEU145      0.0001
     97  N         23.4120  -24.5000    3.1380 N.3   157  ALA157     -0.1245
     98  CA        23.8600  -23.3840    3.9820 C.3   157  ALA157      0.1562
     99  C         24.3040  -22.1840    3.1520 C.2   157  ALA157      0.2260
    100  O         23.9820  -21.0390    3.4590 O.2   157  ALA157     -0.2867
    101  CB        24.9910  -23.8270    4.8940 C.3   157  ALA157      0.0290
    102  N         21.2150  -20.5010    1.7070 N.3   160  LEU160     -0.1231
    103  CA        20.5440  -19.7190    2.7320 C.3   160  LEU160      0.1693
    104  C         21.2860  -18.4040    2.9840 C.2   160  LEU160      0.2592
    105  O         20.6740  -17.3470    3.0510 O.2   160  LEU160     -0.2718
    106  CB        20.4370  -20.5110    4.0320 C.3   160  LEU160      0.0284
    107  CG        19.6970  -19.7740    5.1540 C.3   160  LEU160      0.0019
    108  CD1       18.3470  -19.2800    4.6650 C.3   160  LEU160      0.0001
    109  CD2       19.5340  -20.6860    6.3600 C.3   160  LEU160      0.0001
    110  N         22.6110  -18.4710    3.0900 N.am  161  GLY161     -0.1957
    111  CA        23.4050  -17.2890    3.3700 C.3   161  GLY161      0.1869
    112  C         23.1820  -16.2520    2.2960 C.2   161  GLY161      0.2309
    113  O         22.9840  -15.0620    2.5610 O.2   161  GLY161     -0.2863
    114  N         19.6930  -14.6080    2.4520 N.3   164  LEU164     -0.1231
    115  CA        19.6590  -13.6280    3.5170 C.3   164  LEU164      0.1693
    116  C         20.3090  -12.3420    3.0550 C.2   164  LEU164      0.2591
    117  O         19.7650  -11.2560    3.2780 O.2   164  LEU164     -0.2718
    118  CB        20.3390  -14.1760    4.7640 C.3   164  LEU164      0.0284
    119  CG        19.6040  -15.4060    5.2930 C.3   164  LEU164      0.0019
    120  CD1       20.1840  -15.9070    6.6170 C.3   164  LEU164      0.0001
    121  CD2       18.1360  -15.0870    5.4560 C.3   164  LEU164      0.0001
    122  N         21.4520  -12.4560    2.3890 N.am  165  GLN165     -0.1979
    123  CA        22.1400  -11.2840    1.8640 C.3   165  GLN165      0.1601
    124  C         21.2560  -10.5060    0.8940 C.2   165  GLN165      0.2287
    125  O         21.1870   -9.2810    0.9550 O.2   165  GLN165     -0.2864
    126  CB        23.4450  -11.6830    1.1760 C.3   165  GLN165      0.0394
    127  CG        24.3280  -10.5040    0.8090 C.3   165  GLN165      0.0908
    128  CD        24.4840   -9.5140    1.9470 C.2   165  GLN165      0.2608
    129  OE1       24.5320   -8.3050    1.7310 O.2   165  GLN165     -0.2717
    130  NE2       24.5650  -10.0250    3.1680 N.am  165  GLN165     -0.0878
    131  N         18.7490   -8.6450    2.8060 N.3   168  ASN168     -0.1240
    132  CA        19.3600   -7.4630    3.3970 C.3   168  ASN168      0.1653
    133  C         19.4110   -6.3220    2.3860 C.2   168  ASN168      0.2266
    134  O         19.1190   -5.1740    2.7120 O.2   168  ASN168     -0.2867
    135  CB        20.7730   -7.7760    3.8910 C.3   168  ASN168      0.1155
    136  CG        20.7830   -8.4390    5.2540 C.2   168  ASN168      0.2627
    137  OD1       19.7690   -8.4740    5.9490 O.2   168  ASN168     -0.2716
    138  ND2       21.9350   -8.9700    5.6420 N.am  168  ASN168     -0.0877
    139  N         16.0940   -4.8370    1.7500 N.3   171  ARG171     -0.1245
    140  CA        15.6990   -3.9890    2.8800 C.3   171  ARG171      0.1563
    141  C         16.4290   -2.6410    2.8950 C.2   171  ARG171      0.2260
    142  O         15.8720   -1.6320    3.3280 O.2   171  ARG171     -0.2867
    143  CB        15.9310   -4.7200    4.2150 C.3   171  ARG171      0.0307
    144  CG        15.5290   -3.9330    5.4720 C.3   171  ARG171      0.0489
    145  CD        16.1620   -4.5230    6.7450 C.3   171  ARG171      0.2205
    146  NE        17.6060   -4.3000    6.7540 N.pl3 171  ARG171     -0.0865
    147  CZ        18.4940   -5.0410    7.4140 C.cat 171  ARG171      0.5346
    148  NH1       18.0980   -6.0760    8.1540 N.pl3 171  ARG171      0.1354
    149  NH2       19.7890   -4.7420    7.3270 N.pl3 171  ARG171      0.1354
    150  N         20.4560  -30.5130    8.1580 N.3   233  PHE233     -0.1241
    151  CA        20.9200  -29.8880    9.3940 C.3   233  PHE233      0.1605
    152  C         20.5570  -30.7340   10.6080 C.2   233  PHE233      0.2264
    153  O         19.6190  -31.5170   10.5570 O.2   233  PHE233     -0.2867
    154  CB        20.3220  -28.4950    9.5290 C.3   233  PHE233      0.0534
    155  CG        20.7630  -27.5520    8.4530 C.ar  233  PHE233     -0.0203
    156  CD1       22.1100  -27.2630    8.2800 C.ar  233  PHE233     -0.0042
    157  CD2       19.8390  -26.9590    7.6180 C.ar  233  PHE233     -0.0042
    158  CE1       22.5260  -26.4000    7.2840 C.ar  233  PHE233     -0.0003
    159  CE2       20.2420  -26.0910    6.6200 C.ar  233  PHE233     -0.0003
    160  CZ        21.5870  -25.8030    6.4530 C.ar  233  PHE233     -0.0000
    161  N         17.0590  -22.7370   12.3190 N.3   241  ILE241     -0.1245
    162  CA        17.3560  -22.2680   10.9830 C.3   241  ILE241      0.1561
    163  C         16.0670  -21.9300   10.2700 C.2   241  ILE241      0.2260
    164  O         15.9990  -20.9570    9.5220 O.2   241  ILE241     -0.2867
    165  CB        18.1450  -23.3210   10.1770 C.3   241  ILE241      0.0252
    166  CG1       19.6120  -23.3120   10.6070 C.3   241  ILE241      0.0019
    167  CG2       17.9940  -23.0650    8.6930 C.3   241  ILE241      0.0019
    168  CD1       20.3160  -24.6530   10.4320 C.3   241  ILE241      0.0001
    169  N         13.3700  -13.5450    8.2410 N.3   248  TYR248     -0.1241
    170  CA        13.9220  -12.7550    7.1480 C.3   248  TYR248      0.1605
    171  C         12.9420  -12.6260    5.9860 C.2   248  TYR248      0.2264
    172  O         12.8880  -11.5920    5.3250 O.2   248  TYR248     -0.2867
    173  CB        15.2530  -13.3380    6.6750 C.3   248  TYR248      0.0534
    174  CG        16.4490  -12.5910    7.2130 C.ar  248  TYR248     -0.0201
    175  CD1       17.1210  -11.6640    6.4300 C.ar  248  TYR248     -0.0009
    176  CD2       16.8960  -12.8030    8.5080 C.ar  248  TYR248     -0.0009
    177  CE1       18.2100  -10.9740    6.9200 C.ar  248  TYR248      0.0417
    178  CE2       17.9840  -12.1170    9.0080 C.ar  248  TYR248      0.0417
    179  CZ        18.6380  -11.2040    8.2100 C.ar  248  TYR248      0.1957
    180  OH        19.7240  -10.5190    8.7010 O.3   248  TYR248     -0.2866
@<TRIPOS>BOND
     1    51    52    1
     2   127   126    1
     3   127   128    1
     4   124   125    2
     5   124   123    1
     6    56    55    1
     7   126   123    1
     8    57    55    1
     9   102   103    1
    10   129   128    2
    11   139   140    1
    12    55    52    1
    13   123   122    1
    14    52    53    1
    15   128   130   am
    16    58    53   am
    17    58    59    1
    18   112   113    2
    19   112   111    1
    20   133   134    2
    21   133   132    1
    22   122   116   am
    23   114   115    1
    24    62    59    1
    25   103   104    1
    26   103   106    1
    27    60    59    1
    28    60    61    2
    29    53    54    2
    30   131   132    1
    31   140   141    1
    32   140   143    1
    33   141   142    2
    34   104   105    2
    35   104   110   am
    36   116   117    2
    37   116   115    1
    38   110   111    1
    39    97    98    1
    40    99   100    2
    41    99    98    1
    42   132   135    1
    43   115   118    1
    44   135   136    1
    45    98   101    1
    46   106   107    1
    47   143   144    1
    48   108   107    1
    49   118   119    1
    50    63    64    1
    51   107   109    1
    52   136   138   am
    53   136   137    2
    54   119   121    1
    55   119   120    1
    56   172   171    2
    57   144   145    1
    58    70    71    1
    59    70    65   am
    60    72    71    1
    61    72    73    2
    62    87    86    1
    63   171   170    1
    64    64    65    1
    65    64    67    1
    66   175   177   ar
    67   175   174   ar
    68   160   159   ar
    69   160   158   ar
    70    65    66    2
    71    88    86    1
    72   159   157   ar
    73    69    67    1
    74   173   170    1
    75   173   174    1
    76   145   146    1
    77    67    68    1
    78   146   147    2
    79    86    83    1
    80   177   179   ar
    81   170   169    1
    82   174   176   ar
    83   158   156   ar
    84   149   147    1
    85   147   148    1
    86   157   155   ar
    87   150   151    1
    88   179   180    1
    89   179   178   ar
    90    83    82    1
    91    83    84    1
    92   156   155   ar
    93   155   154    1
    94   176   178   ar
    95    82    76   am
    96   167   165    1
    97    74    75    1
    98    84    85    2
    99   151   154    1
   100   151   152    1
   101   164   163    2
   102    76    75    1
   103    76    77    2
   104    75    78    1
   105    78    79    1
   106   165   166    1
   107   165   162    1
   108     9    10   ar
   109     9     7   ar
   110   163   162    1
   111    10     8   ar
   112    80    79    1
   113   168   166    1
   114   153   152    2
   115    79    81    1
   116    25    23   ar
   117    25    27   ar
   118   162   161    1
   119    23    22   ar
   120    95    94    1
   121    27    26   ar
   122     7     6   ar
   123     8     6   ar
   124    50    49    1
   125    93    94    1
   126    93    90    1
   127    92    91    2
   128    48    49   ar
   129    48    46   ar
   130    91    90    1
   131    38    37   ar
   132    38    36   ar
   133    49    47   ar
   134    94    96    1
   135    16    15    1
   136     6     5    1
   137    22    21    1
   138    22    24   ar
   139    37    35   ar
   140    90    89    1
   141    46    44   ar
   142    26    24   ar
   143    42    41    2
   144    15    12    1
   145     4     3    2
   146    21    18    1
   147    36    34   ar
   148    47    45   ar
   149    40    41    1
   150    40    39    1
   151    40    43    1
   152    44    45   ar
   153    44    43    1
   154    18    17    1
   155    18    19    1
   156    35    33   ar
   157     5     2    1
   158     3    11   am
   159     3     2    1
   160    12    11    1
   161    12    13    1
   162    34    33   ar
   163     2     1    1
   164    33    32    1
   165    13    14    2
   166    19    20    2
   167    32    29    1
   168    28    29    1
   169    29    30    1
   170    30    31    2
