@<TRIPOS>MOLECULE
tmp/4ea0A00.pdb
 146 137 0 0 0
SMALL
GASTEIGER

@<TRIPOS>ATOM
      1  N         24.8840   -7.0950   16.8080 N.3    18  HIS18      -0.1226
      2  CA        24.8990   -6.8990   15.3610 C.3    18  HIS18       0.1752
      3  C         23.8460   -7.7130   14.6030 C.2    18  HIS18       0.2596
      4  O         23.3540   -7.2820   13.5560 O.2    18  HIS18      -0.2718
      5  CB        26.2950   -7.1530   14.8090 C.3    18  HIS18       0.0759
      6  CG        27.3050   -6.1380   15.2490 C.ar   18  HIS18       0.0818
      7  ND1       28.1580   -6.3480   16.3110 N.ar   18  HIS18      -0.2268
      8  CD2       27.5400   -4.8750   14.8230 C.ar   18  HIS18       0.1154
      9  CE1       28.9330   -5.2890   16.4660 C.ar   18  HIS18       0.1986
     10  NE2       28.5620   -4.3710   15.5910 N.ar   18  HIS18      -0.2212
     11  N         23.4260   -8.8300   15.1860 N.am   19  SER19      -0.1952
     12  CA        22.4330   -9.6880   14.5560 C.3    19  SER19       0.1924
     13  C         21.4390  -10.1890   15.5930 C.2    19  SER19       0.2314
     14  O         21.4810  -11.3460   15.9910 O.2    19  SER19      -0.2863
     15  CB        23.1090  -10.8720   13.8470 C.3    19  SER19       0.2116
     16  OG        24.0100  -10.4280   12.8380 O.3    19  SER19      -0.2180
     17  N         31.9030  -11.3000   11.8680 N.3    45  ARG45      -0.1245
     18  CA        31.5090   -9.9200   12.0750 C.3    45  ARG45       0.1563
     19  C         32.7330   -8.9950   12.0680 C.2    45  ARG45       0.2260
     20  O         32.6850   -7.8650   11.5530 O.2    45  ARG45      -0.2867
     21  CB        30.7860   -9.7800   13.4050 C.3    45  ARG45       0.0307
     22  CG        30.3120   -8.3800   13.6530 C.3    45  ARG45       0.0489
     23  CD        28.9470   -8.2120   13.0490 C.3    45  ARG45       0.2205
     24  NE        28.9680   -7.2040   12.0170 N.pl3  45  ARG45      -0.0865
     25  CZ        28.0440   -7.0780   11.0730 C.cat  45  ARG45       0.5346
     26  NH1       27.0240   -7.9250   11.0060 N.pl3  45  ARG45       0.1354
     27  NH2       28.1430   -6.0830   10.2090 N.pl3  45  ARG45       0.1354
     28  N         33.9530   -8.5200    8.6210 N.3    48  ASP48      -0.1239
     29  CA        33.0740   -7.6220    7.8860 C.3    48  ASP48       0.1674
     30  C         33.3810   -6.1890    8.2750 C.2    48  ASP48       0.2266
     31  O         33.4120   -5.3000    7.4270 O.2    48  ASP48      -0.2867
     32  CB        31.6030   -7.9200    8.1940 C.3    48  ASP48       0.1410
     33  CG        30.6580   -7.2360    7.2270 C.2    48  ASP48       0.3668
     34  OD1       29.8610   -6.3770    7.6690 O.co2  48  ASP48      -0.2456
     35  OD2       30.8010   -7.4660    6.0010 O.co2  48  ASP48      -0.2456
     36  N         33.7500   -2.6080    6.3230 N.3    52  ASP52      -0.1239
     37  CA        32.4840   -1.8880    6.1790 C.3    52  ASP52       0.1674
     38  C         32.3830   -0.7180    7.1520 C.2    52  ASP52       0.2266
     39  O         31.5940    0.1990    6.9460 O.2    52  ASP52      -0.2867
     40  CB        31.2860   -2.8150    6.4090 C.3    52  ASP52       0.1410
     41  CG        31.0090   -3.7430    5.2240 C.2    52  ASP52       0.3668
     42  OD1       30.0850   -4.5750    5.3310 O.co2  52  ASP52      -0.2456
     43  OD2       31.7530   -3.7000    4.2300 O.co2  52  ASP52      -0.2456
     44  N         29.0710  -13.4000   -4.7380 N.3   129  TYR129     -0.1241
     45  CA        29.2670  -12.5720   -3.5620 C.3   129  TYR129      0.1605
     46  C         28.5100  -13.1320   -2.3560 C.2   129  TYR129      0.2264
     47  O         29.0290  -13.1510   -1.2350 O.2   129  TYR129     -0.2867
     48  CB        28.8500  -11.1220   -3.8420 C.3   129  TYR129      0.0534
     49  CG        29.0000  -10.1830   -2.6500 C.ar  129  TYR129     -0.0201
     50  CD1       30.2150   -9.5520   -2.3840 C.ar  129  TYR129     -0.0009
     51  CD2       27.9450   -9.9650   -1.7680 C.ar  129  TYR129     -0.0009
     52  CE1       30.3860   -8.7500   -1.2540 C.ar  129  TYR129      0.0417
     53  CE2       28.0910   -9.1230   -0.6560 C.ar  129  TYR129      0.0417
     54  CZ        29.3150   -8.5250   -0.4060 C.ar  129  TYR129      0.1957
     55  OH        29.4590   -7.6590    0.6630 O.3   129  TYR129     -0.2866
     56  N         30.3680  -14.2870    1.2030 N.3   133  VAL133     -0.1245
     57  CA        30.1180  -13.5700    2.3980 C.3   133  VAL133      0.1561
     58  C         29.2160  -14.2590    3.3750 C.2   133  VAL133      0.2260
     59  O         29.2040  -13.9240    4.5030 O.2   133  VAL133     -0.2867
     60  CB        29.5690  -12.2010    1.9980 C.3   133  VAL133      0.0252
     61  CG1       28.4690  -11.8020    2.7960 C.3   133  VAL133      0.0019
     62  CG2       30.6160  -11.1920    2.0260 C.3   133  VAL133      0.0019
     63  N         21.8660  -13.8240    3.1720 N.3   165  GLN165     -0.1245
     64  CA        22.5720  -12.6520    2.6830 C.3   165  GLN165      0.1566
     65  C         21.7590  -11.8560    1.6610 C.2   165  GLN165      0.2260
     66  O         21.8440  -10.6220    1.6000 O.2   165  GLN165     -0.2867
     67  CB        23.9180  -13.0440    2.0840 C.3   165  GLN165      0.0367
     68  CG        24.7700  -11.8430    1.6920 C.3   165  GLN165      0.0905
     69  CD        25.2300  -11.0370    2.8980 C.2   165  GLN165      0.2608
     70  OE1       25.4410  -11.5870    3.9830 O.2   165  GLN165     -0.2717
     71  NE2       25.3320   -9.7220    2.7300 N.am  165  GLN165     -0.0878
     72  N         19.4800   -9.8580    3.5730 N.3   168  ASN168     -0.1225
     73  CA        20.2780   -8.7640    4.1450 C.3   168  ASN168      0.1785
     74  C         20.4450   -7.6210    3.1450 C.2   168  ASN168      0.2597
     75  O         20.1630   -6.4630    3.4470 O.2   168  ASN168     -0.2718
     76  CB        21.6510   -9.3050    4.5490 C.3   168  ASN168      0.1169
     77  CG        22.4970   -8.2950    5.2940 C.2   168  ASN168      0.2627
     78  OD1       22.8460   -7.2340    4.7630 O.2   168  ASN168     -0.2716
     79  ND2       22.9890   -8.7040    6.4530 N.am  168  ASN168     -0.0877
     80  N         20.7840   -7.9850    1.9140 N.am  169  ILE169     -0.1980
     81  CA        20.9310   -7.0180    0.8300 C.3   169  ILE169      0.1595
     82  C         19.6250   -6.2930    0.5010 C.2   169  ILE169      0.2287
     83  O         19.6200   -5.0900    0.2600 O.2   169  ILE169     -0.2864
     84  CB        21.4640   -7.7040   -0.4230 C.3   169  ILE169      0.0276
     85  CG1       22.9880   -7.7770   -0.3670 C.3   169  ILE169      0.0022
     86  CG2       20.9580   -7.0080   -1.6880 C.3   169  ILE169      0.0022
     87  CD1       23.5610   -8.9800   -1.1030 C.3   169  ILE169      0.0001
     88  N         17.2130   -5.7150    2.4920 N.3   171  ARG171     -0.1231
     89  CA        16.9180   -4.7880    3.5840 C.3   171  ARG171      0.1694
     90  C         17.8150   -3.5550    3.5040 C.2   171  ARG171      0.2592
     91  O         17.4170   -2.4550    3.8820 O.2   171  ARG171     -0.2718
     92  CB        17.0950   -5.4920    4.9360 C.3   171  ARG171      0.0321
     93  CG        16.6060   -4.7110    6.1580 C.3   171  ARG171      0.0489
     94  CD        17.2650   -5.2470    7.4320 C.3   171  ARG171      0.2205
     95  NE        18.7210   -5.3050    7.2890 N.pl3 171  ARG171     -0.0865
     96  CZ        19.5390   -5.9750    8.0970 C.cat 171  ARG171      0.5346
     97  NH1       19.0570   -6.6190    9.1540 N.pl3 171  ARG171      0.1354
     98  NH2       20.8500   -5.9590    7.8730 N.pl3 171  ARG171      0.1354
     99  N         19.0240   -3.7340    2.9920 N.am  172  ASP172     -0.1974
    100  CA        20.0490   -2.7140    3.1610 C.3   172  ASP172      0.1709
    101  C         20.1920   -1.7800    1.9670 C.2   172  ASP172      0.2293
    102  O         21.1320   -0.9870    1.9090 O.2   172  ASP172     -0.2864
    103  CB        21.3940   -3.3520    3.5210 C.3   172  ASP172      0.1436
    104  CG        21.4060   -3.9170    4.9270 C.2   172  ASP172      0.3671
    105  OD1       20.4320   -3.6470    5.6640 O.co2 172  ASP172     -0.2456
    106  OD2       22.3740   -4.6330    5.2880 O.co2 172  ASP172     -0.2456
    107  N         20.6750    1.9440    2.8730 N.3   175  GLU175     -0.1231
    108  CA        21.8540    2.2430    3.6710 C.3   175  GLU175      0.1699
    109  C         23.1320    1.8670    2.9340 C.2   175  GLU175      0.2592
    110  O         24.1540    2.5450    3.0620 O.2   175  GLU175     -0.2718
    111  CB        21.7710    1.5450    5.0260 C.3   175  GLU175      0.0402
    112  CG        22.9890    0.7100    5.3840 C.3   175  GLU175      0.1161
    113  CD        22.9040    0.1480    6.7880 C.2   175  GLU175      0.3649
    114  OE1       23.7160    0.5650    7.6450 O.co2 175  GLU175     -0.2457
    115  OE2       21.9980   -0.6760    7.0450 O.co2 175  GLU175     -0.2457
    116  N         23.0410    0.8620    2.0690 N.am  176  ASP176     -0.1974
    117  CA        24.1450    0.5520    1.1690 C.3   176  ASP176      0.1709
    118  C         24.3680    1.6670    0.1400 C.2   176  ASP176      0.2293
    119  O         25.5040    2.0000   -0.1830 O.2   176  ASP176     -0.2864
    120  CB        23.9280   -0.7980    0.4710 C.3   176  ASP176      0.1436
    121  CG        24.0150   -1.9810    1.4340 C.2   176  ASP176      0.3671
    122  OD1       23.4270   -3.0390    1.1340 O.co2 176  ASP176     -0.2456
    123  OD2       24.6540   -1.8480    2.5000 O.co2 176  ASP176     -0.2456
    124  N         24.1830   -3.4470   -4.7210 N.3   183  TYR183     -0.1241
    125  CA        24.4810   -4.8750   -4.8370 C.3   183  TYR183      0.1605
    126  C         23.5830   -5.5580   -5.8770 C.2   183  TYR183      0.2264
    127  O         23.8550   -6.6870   -6.3010 O.2   183  TYR183     -0.2867
    128  CB        24.3600   -5.5780   -3.4690 C.3   183  TYR183      0.0534
    129  CG        25.5450   -5.3490   -2.5350 C.ar  183  TYR183     -0.0201
    130  CD1       26.7770   -5.9270   -2.7920 C.ar  183  TYR183     -0.0009
    131  CD2       25.4120   -4.5860   -1.3790 C.ar  183  TYR183     -0.0009
    132  CE1       27.8690   -5.6770   -1.9820 C.ar  183  TYR183      0.0417
    133  CE2       26.4940   -4.3530   -0.5380 C.ar  183  TYR183      0.0417
    134  CZ        27.7220   -4.8830   -0.8590 C.ar  183  TYR183      0.1957
    135  OH        28.8050   -4.6520   -0.0460 O.3   183  TYR183     -0.2866
    136  N         16.1440    1.3360    8.2730 N.3   265  ARG265     -0.1245
    137  CA        16.3500   -0.0970    8.4180 C.3   265  ARG265      0.1563
    138  C         15.1820   -0.7370    9.1570 C.2   265  ARG265      0.2260
    139  O         14.9370   -0.4480   10.3330 O.2   265  ARG265     -0.2867
    140  CB        17.6560   -0.3790    9.1640 C.3   265  ARG265      0.0307
    141  CG        17.8360   -1.8420    9.5520 C.3   265  ARG265      0.0489
    142  CD        19.1330   -2.0670   10.3070 C.3   265  ARG265      0.2205
    143  NE        20.2840   -2.0990    9.4120 N.pl3 265  ARG265     -0.0865
    144  CZ        21.3890   -2.7950    9.6510 C.cat 265  ARG265      0.5346
    145  NH1       21.4730   -3.5460   10.7420 N.pl3 265  ARG265      0.1354
    146  NH2       22.3930   -2.7720    8.7830 N.pl3 265  ARG265      0.1354
@<TRIPOS>BOND
     1   127   126    2
     2   126   125    1
     3   125   124    1
     4   125   128    1
     5    44    45    1
     6    48    45    1
     7    48    49    1
     8    45    46    1
     9   128   129    1
    10   130   129   ar
    11   130   132   ar
    12    49    50   ar
    13    49    51   ar
    14   129   131   ar
    15    50    52   ar
    16    46    47    2
    17   132   134   ar
    18    51    53   ar
    19    86    84    1
    20   131   133   ar
    21    52    54   ar
    22    87    85    1
    23   134   133   ar
    24   134   135    1
    25    53    54   ar
    26    84    85    1
    27    84    81    1
    28    54    55    1
    29   119   118    2
    30   118   117    1
    31    83    82    2
    32   120   117    1
    33   120   121    1
    34    82    81    1
    35    81    80    1
    36   122   121   ar
    37   117   116    1
    38    56    57    1
    39   121   123   ar
    40    66    65    2
    41    65    64    1
    42    68    67    1
    43    68    69    1
    44   102   101    2
    45    80    74   am
    46   101   100    1
    47    60    62    1
    48    60    57    1
    49    60    61    1
    50   116   109   am
    51    67    64    1
    52    57    58    1
    53    88    89    1
    54    64    63    1
    55    71    69   am
    56   107   108    1
    57    69    70    2
    58   109   110    2
    59   109   108    1
    60    99   100    1
    61    99    90   am
    62    74    75    2
    63    74    73    1
    64   100   103    1
    65    58    59    2
    66    90    89    1
    67    90    91    2
    68   103   104    1
    69    72    73    1
    70    89    92    1
    71   108   111    1
    72    73    76    1
    73    43    41   ar
    74    76    77    1
    75    78    77    2
    76   104   106   ar
    77   104   105   ar
    78    92    93    1
    79   111   112    1
    80    41    42   ar
    81    41    40    1
    82    77    79   am
    83   112   113    1
    84    35    33   ar
    85    93    94    1
    86    37    36    1
    87    37    40    1
    88    37    38    1
    89   113   115   ar
    90   113   114   ar
    91    39    38    2
    92    33    34   ar
    93    33    32    1
    94    95    94    1
    95    95    96    2
    96    31    30    2
    97    98    96    1
    98    29    32    1
    99    29    30    1
   100    29    28    1
   101    96    97    1
   102   136   137    1
   103   137   138    1
   104   137   140    1
   105   146   144    1
   106   138   139    2
   107   140   141    1
   108   143   144    2
   109   143   142    1
   110   141   142    1
   111   144   145    1
   112    27    25    1
   113    26    25    1
   114    25    24    2
   115    20    19    2
   116    17    18    1
   117    24    23    1
   118    19    18    1
   119    18    21    1
   120    16    15    1
   121    23    22    1
   122    21    22    1
   123     4     3    2
   124    15    12    1
   125    12    11    1
   126    12    13    1
   127     3    11   am
   128     3     2    1
   129     5     6    1
   130     5     2    1
   131     8     6   ar
   132     8    10   ar
   133     6     7   ar
   134     2     1    1
   135    10     9   ar
   136    13    14    2
   137     7     9   ar
