@<TRIPOS>MOLECULE
tmp/4ea2A01.pdb
 109 105 0 0 0
SMALL
GASTEIGER

@<TRIPOS>ATOM
      1  N        -17.9480  -17.3840    3.9530 N.3    17  LYS17      -0.1231
      2  CA       -16.8110  -18.1610    3.4860 C.3    17  LYS17       0.1693
      3  C        -16.5860  -17.9430    1.9830 C.2    17  LYS17       0.2592
      4  O        -15.4650  -17.6190    1.5560 O.2    17  LYS17      -0.2718
      5  CB       -17.0200  -19.6480    3.7990 C.3    17  LYS17       0.0285
      6  CG       -15.8810  -20.2890    4.5970 C.3    17  LYS17       0.0035
      7  CD       -16.3940  -21.3040    5.6000 C.3    17  LYS17       0.0206
      8  CE       -16.3340  -22.7140    5.0220 C.3    17  LYS17       0.1093
      9  NZ       -16.0720  -23.7290    6.0870 N.3    17  LYS17      -0.1314
     10  N        -17.6400  -18.0980    1.1850 N.am   18  HIS18      -0.1962
     11  CA       -17.4860  -18.0380   -0.2640 C.3    18  HIS18       0.1787
     12  C        -17.2750  -16.6080   -0.7520 C.2    18  HIS18       0.2621
     13  O        -16.4750  -16.3950   -1.6650 O.2    18  HIS18      -0.2715
     14  CB       -18.6720  -18.6910   -0.9970 C.3    18  HIS18       0.0785
     15  CG       -18.5140  -18.7450   -2.4960 C.ar   18  HIS18       0.0821
     16  ND1      -19.0400  -17.7830   -3.3400 N.ar   18  HIS18      -0.2267
     17  CD2      -17.8140  -19.5940   -3.2910 C.ar   18  HIS18       0.1154
     18  CE1      -18.6800  -18.0460   -4.5870 C.ar   18  HIS18       0.1986
     19  NE2      -17.9390  -19.1420   -4.5840 N.ar   18  HIS18      -0.2212
     20  N        -18.0290  -15.6400   -0.2140 N.am   19  SER19      -0.1936
     21  CA       -18.0770  -14.2870   -0.8160 C.3    19  SER19       0.2055
     22  C        -18.1350  -13.1940    0.2180 C.2    19  SER19       0.2643
     23  O        -19.2200  -12.7900    0.6660 O.2    19  SER19      -0.2714
     24  CB       -19.2660  -14.0990   -1.7700 C.3    19  SER19       0.2130
     25  OG       -19.1960  -12.8010   -2.3650 O.3    19  SER19      -0.2179
     26  N        -16.9620  -12.6880    0.5660 N.am   20  LYS20      -0.1963
     27  CA       -16.8540  -11.6010    1.5140 C.3    20  LYS20       0.1728
     28  C        -17.6660  -10.3740    1.0700 C.2    20  LYS20       0.2616
     29  O        -18.2960   -9.7390    1.8880 O.2    20  LYS20      -0.2715
     30  CB       -15.3720  -11.2570    1.7290 C.3    20  LYS20       0.0311
     31  CG       -14.6020  -12.3620    2.4830 C.3    20  LYS20       0.0038
     32  CD       -15.1320  -12.4610    3.9180 C.3    20  LYS20       0.0206
     33  CE       -14.3430  -13.4730    4.7500 C.3    20  LYS20       0.1093
     34  NZ       -14.6810  -14.8410    4.2870 N.3    20  LYS20      -0.1314
     35  N        -17.7000  -10.1000   -0.2290 N.am   21  SER21      -0.1950
     36  CA       -18.4470   -8.9610   -0.7810 C.3    21  SER21       0.1924
     37  C        -19.9530   -9.0380   -0.6000 C.2    21  SER21       0.2314
     38  O        -20.5720   -8.1000   -0.0220 O.2    21  SER21      -0.2863
     39  CB       -18.1030   -8.7580   -2.2490 C.3    21  SER21       0.2116
     40  OG       -16.7420   -9.0800   -2.4810 O.3    21  SER21      -0.2180
     41  N        -12.1860  -11.4580  -13.2570 N.3   168  ARG168     -0.1245
     42  CA       -11.2420  -11.5040  -12.1270 C.3   168  ARG168      0.1563
     43  C        -10.3710  -12.7620  -12.1950 C.2   168  ARG168      0.2260
     44  O         -9.2390  -12.7590  -11.7170 O.2   168  ARG168     -0.2867
     45  CB       -11.9770  -11.4770  -10.7870 C.3   168  ARG168      0.0307
     46  CG       -11.0630  -11.4270   -9.5450 C.3   168  ARG168      0.0489
     47  CD       -11.8460  -11.6550   -8.2550 C.3   168  ARG168      0.2205
     48  NE       -12.2470  -13.0590   -8.2210 N.pl3 168  ARG168     -0.0865
     49  CZ       -13.2530  -13.5430   -7.4980 C.cat 168  ARG168      0.5346
     50  NH1      -13.9200  -12.7500   -6.6640 N.pl3 168  ARG168      0.1354
     51  NH2      -13.6030  -14.8270   -7.6210 N.pl3 168  ARG168      0.1354
     52  N        -18.5680   -5.3220   -6.1370 N.3   245  TYR245     -0.1241
     53  CA       -18.1890   -6.2230   -7.2150 C.3   245  TYR245      0.1605
     54  C        -17.5670   -5.5060   -8.3870 C.2   245  TYR245      0.2264
     55  O        -16.5820   -5.9720   -8.9680 O.2   245  TYR245     -0.2867
     56  CB       -19.3740   -7.0740   -7.6770 C.3   245  TYR245      0.0534
     57  CG       -19.0610   -8.5160   -7.4920 C.ar  245  TYR245     -0.0201
     58  CD1      -18.6960   -9.2850   -8.5720 C.ar  245  TYR245     -0.0009
     59  CD2      -18.8770   -9.0430   -6.2150 C.ar  245  TYR245     -0.0009
     60  CE1      -18.3090  -10.5880   -8.4210 C.ar  245  TYR245      0.0417
     61  CE2      -18.4280  -10.3430   -6.0370 C.ar  245  TYR245      0.0417
     62  CZ       -18.1370  -11.1100   -7.1510 C.ar  245  TYR245      0.1957
     63  OH       -17.7340  -12.4280   -7.0280 O.3   245  TYR245     -0.2866
     64  N        -13.9820   -4.4890   -8.4000 N.3   248  ILE248     -0.1245
     65  CA       -13.0860   -5.5750   -8.7560 C.3   248  ILE248      0.1561
     66  C        -12.4290   -5.3380  -10.1190 C.2   248  ILE248      0.2260
     67  O        -11.3020   -5.7730  -10.3620 O.2   248  ILE248     -0.2867
     68  CB       -13.8000   -6.9170   -8.7170 C.3   248  ILE248      0.0252
     69  CG1      -14.0370   -7.3120   -7.2450 C.3   248  ILE248      0.0019
     70  CG2      -13.0030   -7.9980   -9.4710 C.3   248  ILE248      0.0019
     71  CD1      -14.8870   -8.5710   -7.0810 C.3   248  ILE248      0.0001
     72  N         -5.5570  -13.8590   -7.5920 N.3   262  ARG262     -0.1245
     73  CA        -6.8830  -13.2590   -7.4490 C.3   262  ARG262      0.1563
     74  C         -6.7730  -11.8690   -6.8200 C.2   262  ARG262      0.2260
     75  O         -6.4320  -11.7680   -5.6630 O.2   262  ARG262     -0.2867
     76  CB        -7.7300  -14.1540   -6.5290 C.3   262  ARG262      0.0307
     77  CG        -9.1360  -13.6100   -6.2770 C.3   262  ARG262      0.0489
     78  CD        -9.9500  -14.5790   -5.5150 C.3   262  ARG262      0.2205
     79  NE       -10.3350  -15.7090   -6.3510 N.pl3 262  ARG262     -0.0865
     80  CZ       -11.2220  -16.6250   -5.9840 C.cat 262  ARG262      0.5346
     81  NH1      -11.8010  -16.5270   -4.7880 N.pl3 262  ARG262      0.1354
     82  NH2      -11.5530  -17.6160   -6.8140 N.pl3 262  ARG262      0.1354
     83  N         -8.5840   -8.3720   -5.1780 N.3   264  PHE264     -0.1227
     84  CA        -9.6880   -8.2910   -4.2180 C.3   264  PHE264      0.1736
     85  C         -9.8750   -6.8580   -3.7620 C.2   264  PHE264      0.2595
     86  O         -8.9810   -6.0220   -3.9000 O.2   264  PHE264     -0.2718
     87  CB        -9.4100   -9.1770   -3.0150 C.3   264  PHE264      0.0547
     88  CG        -8.2640   -8.6920   -2.1880 C.ar  264  PHE264     -0.0202
     89  CD1       -8.4900   -8.0710   -0.9690 C.ar  264  PHE264     -0.0042
     90  CD2       -6.9840   -8.6610   -2.7280 C.ar  264  PHE264     -0.0042
     91  CE1       -7.4390   -7.4750   -0.2710 C.ar  264  PHE264     -0.0003
     92  CE2       -5.9290   -8.0310   -2.0500 C.ar  264  PHE264     -0.0003
     93  CZ        -6.1630   -7.4350   -0.8240 C.ar  264  PHE264     -0.0000
     94  N        -11.0790   -6.5580   -3.2940 N.am  265  VAL265     -0.1980
     95  CA       -11.3870   -5.2440   -2.7560 C.3   265  VAL265      0.1595
     96  C        -11.2660   -5.3530   -1.2490 C.2   265  VAL265      0.2287
     97  O        -12.0210   -6.0720   -0.6150 O.2   265  VAL265     -0.2864
     98  CB       -12.8420   -4.8190   -3.1360 C.3   265  VAL265      0.0276
     99  CG1      -13.2450   -3.5090   -2.4280 C.3   265  VAL265      0.0022
    100  CG2      -12.9750   -4.6790   -4.6450 C.3   265  VAL265      0.0022
    101  N        -14.4710   -1.5430    0.9140 N.3   270  LYS270     -0.1245
    102  CA       -15.8930   -1.8380    0.9750 C.3   270  LYS270      0.1561
    103  C        -16.6020   -0.8140    1.8590 C.2   270  LYS270      0.2260
    104  O        -17.6640   -0.3040    1.5060 O.2   270  LYS270     -0.2867
    105  CB       -16.1170   -3.2320    1.5280 C.3   270  LYS270      0.0271
    106  CG       -15.5890   -4.4160    0.6440 C.3   270  LYS270      0.0035
    107  CD       -15.9800   -5.7560    1.3000 C.3   270  LYS270      0.0206
    108  CE       -15.5750   -6.9600    0.4520 C.3   270  LYS270      0.1093
    109  NZ       -14.1220   -7.1480    0.3310 N.3   270  LYS270     -0.1314
@<TRIPOS>BOND
     1    41    42    1
     2    43    42    1
     3    43    44    2
     4    42    45    1
     5    45    46    1
     6    67    66    2
     7    66    65    1
     8    46    47    1
     9    70    68    1
    10    55    54    2
    11    65    68    1
    12    65    64    1
    13    68    69    1
    14    58    60   ar
    15    58    57   ar
    16    60    62   ar
    17    54    53    1
    18    47    48    1
    19    48    49    2
    20    56    57    1
    21    56    53    1
    22    51    49    1
    23    72    73    1
    24    49    50    1
    25    57    59   ar
    26    73    74    1
    27    73    76    1
    28    69    71    1
    29    53    52    1
    30    62    63    1
    31    62    61   ar
    32    74    75    2
    33    82    80    1
    34    76    77    1
    35    79    80    2
    36    79    78    1
    37    77    78    1
    38    59    61   ar
    39    80    81    1
    40    83    84    1
    41   100    98    1
    42    18    19   ar
    43    18    16   ar
    44    19    17   ar
    45    84    85    1
    46    84    87    1
    47    86    85    2
    48    85    94   am
    49    16    15   ar
    50    94    95    1
    51    17    15   ar
    52    98    95    1
    53    98    99    1
    54    87    88    1
    55    95    96    1
    56    90    88   ar
    57    90    92   ar
    58    15    14    1
    59    40    39    1
    60    25    24    1
    61    39    36    1
    62    88    89   ar
    63    92    93   ar
    64    24    21    1
    65    13    12    2
    66    96    97    2
    67    14    11    1
    68    89    91   ar
    69    93    91   ar
    70    21    20    1
    71    21    22    1
    72    36    37    1
    73    36    35    1
    74    12    11    1
    75    12    20   am
    76    37    38    2
    77    11    10    1
    78    35    28   am
    79    22    26   am
    80    22    23    2
    81   109   108    1
    82   108   107    1
    83    26    27    1
    84   106   107    1
    85   106   105    1
    86   101   102    1
    87   102   105    1
    88   102   103    1
    89    28    27    1
    90    28    29    2
    91    10     3   am
    92   104   103    2
    93    27    30    1
    94     4     3    2
    95    30    31    1
    96     3     2    1
    97    31    32    1
    98     2     5    1
    99     2     1    1
   100     5     6    1
   101    32    33    1
   102    34    33    1
   103     6     7    1
   104     8     7    1
   105     8     9    1
