@<TRIPOS>MOLECULE
tmp/4ea2A00.pdb
 175 163 0 0 0
SMALL
GASTEIGER

@<TRIPOS>ATOM
      1  N        -17.6400  -18.0980    1.1850 N.3    18  HIS18      -0.1241
      2  CA       -17.4860  -18.0380   -0.2640 C.3    18  HIS18       0.1621
      3  C        -17.2750  -16.6080   -0.7520 C.2    18  HIS18       0.2264
      4  O        -16.4750  -16.3950   -1.6650 O.2    18  HIS18      -0.2867
      5  CB       -18.6720  -18.6910   -0.9970 C.3    18  HIS18       0.0745
      6  CG       -18.5140  -18.7450   -2.4960 C.ar   18  HIS18       0.0817
      7  ND1      -19.0400  -17.7830   -3.3400 N.ar   18  HIS18      -0.2268
      8  CD2      -17.8140  -19.5940   -3.2910 C.ar   18  HIS18       0.1154
      9  CE1      -18.6800  -18.0460   -4.5870 C.ar   18  HIS18       0.1986
     10  NE2      -17.9390  -19.1420   -4.5840 N.ar   18  HIS18      -0.2212
     11  N        -20.5550  -10.1650   -1.0090 N.3    22  PHE22      -0.1241
     12  CA       -22.0120  -10.2650   -0.9520 C.3    22  PHE22       0.1605
     13  C        -22.4540  -10.3720    0.4760 C.2    22  PHE22       0.2264
     14  O        -23.5570   -9.9480    0.8480 O.2    22  PHE22      -0.2867
     15  CB       -22.5350  -11.4730   -1.7640 C.3    22  PHE22       0.0534
     16  CG       -22.3560  -11.3130   -3.2130 C.ar   22  PHE22      -0.0203
     17  CD1      -22.5840  -10.0680   -3.8150 C.ar   22  PHE22      -0.0042
     18  CD2      -21.8790  -12.3580   -3.9930 C.ar   22  PHE22      -0.0042
     19  CE1      -22.2730   -9.8490   -5.1660 C.ar   22  PHE22      -0.0003
     20  CE2      -21.6250  -12.1650   -5.3540 C.ar   22  PHE22      -0.0003
     21  CZ       -21.8180  -10.9040   -5.9400 C.ar   22  PHE22      -0.0000
     22  N        -25.1780   -7.9560    1.8760 N.3    26  PHE26      -0.1241
     23  CA       -26.4860   -8.5340    2.1690 C.3    26  PHE26       0.1605
     24  C        -26.7470   -8.7760    3.6400 C.2    26  PHE26       0.2264
     25  O        -27.9070   -8.7810    4.0590 O.2    26  PHE26      -0.2867
     26  CB       -26.7690   -9.7850    1.3290 C.3    26  PHE26       0.0534
     27  CG       -27.0280   -9.4850   -0.1220 C.ar   26  PHE26      -0.0203
     28  CD1      -28.1320   -8.7260   -0.5080 C.ar   26  PHE26      -0.0042
     29  CD2      -26.1740   -9.9520   -1.1030 C.ar   26  PHE26      -0.0042
     30  CE1      -28.3630   -8.4140   -1.8610 C.ar   26  PHE26      -0.0003
     31  CE2      -26.3750   -9.6000   -2.4480 C.ar   26  PHE26      -0.0003
     32  CZ       -27.4770   -8.8230   -2.8150 C.ar   26  PHE26      -0.0000
     33  N        -28.4660  -18.4120   -1.0470 N.3    41  TYR41      -0.1241
     34  CA       -27.0530  -18.4310   -1.3790 C.3    41  TYR41       0.1605
     35  C        -26.4100  -19.7810   -1.0740 C.2    41  TYR41       0.2264
     36  O        -25.6260  -20.2970   -1.8690 O.2    41  TYR41      -0.2867
     37  CB       -26.2620  -17.3260   -0.6540 C.3    41  TYR41       0.0534
     38  CG       -24.8940  -17.0770   -1.2800 C.ar   41  TYR41      -0.0201
     39  CD1      -23.8140  -17.9090   -1.0070 C.ar   41  TYR41      -0.0009
     40  CD2      -24.6960  -16.0070   -2.1530 C.ar   41  TYR41      -0.0009
     41  CE1      -22.5590  -17.6920   -1.5900 C.ar   41  TYR41       0.0417
     42  CE2      -23.4530  -15.7570   -2.7250 C.ar   41  TYR41       0.0417
     43  CZ       -22.3980  -16.6240   -2.4770 C.ar   41  TYR41       0.1957
     44  OH       -21.1780  -16.3830   -3.0960 O.3    41  TYR41      -0.2866
     45  N        -27.3680  -22.4990   -3.5290 N.3    44  CYS44      -0.1221
     46  CA       -26.7340  -22.3290   -4.8180 C.3    44  CYS44       0.1808
     47  C        -25.2200  -22.6890   -4.7180 C.2    44  CYS44       0.2601
     48  O        -24.6600  -23.2540   -5.6470 O.2    44  CYS44      -0.2717
     49  CB       -26.8980  -20.8940   -5.2640 C.3    44  CYS44       0.0970
     50  SG       -28.6040  -20.5320   -5.7750 S.3    44  CYS44      -0.0800
     51  N        -24.5860  -22.3380   -3.5940 N.am   45  ARG45      -0.1979
     52  CA       -23.1790  -22.6650   -3.3400 C.3    45  ARG45       0.1597
     53  C        -22.9440  -24.1710   -3.3140 C.2    45  ARG45       0.2287
     54  O        -21.9430  -24.6750   -3.8640 O.2    45  ARG45      -0.2864
     55  CB       -22.7310  -22.0400   -2.0130 C.3    45  ARG45       0.0334
     56  CG       -21.3390  -21.4690   -2.0320 C.3    45  ARG45       0.0492
     57  CD       -20.4810  -22.1880   -3.0560 C.3    45  ARG45       0.2205
     58  NE       -19.0730  -22.2460   -2.6790 N.pl3  45  ARG45      -0.0865
     59  CZ       -18.1040  -22.7060   -3.4730 C.cat  45  ARG45       0.5346
     60  NH1      -18.3940  -23.1610   -4.6900 N.pl3  45  ARG45       0.1354
     61  NH2      -16.8360  -22.7070   -3.0570 N.pl3  45  ARG45       0.1354
     62  N        -23.2270  -25.4810   -6.7570 N.3    48  ASP48      -0.1239
     63  CA       -22.0000  -25.1220   -7.4540 C.3    48  ASP48       0.1674
     64  C        -20.8720  -26.1480   -7.1510 C.2    48  ASP48       0.2266
     65  O        -20.1060  -26.5200   -8.0560 O.2    48  ASP48      -0.2867
     66  CB       -21.6030  -23.6850   -7.0930 C.3    48  ASP48       0.1410
     67  CG       -20.3770  -23.1810   -7.8680 C.2    48  ASP48       0.3668
     68  OD1      -19.6080  -22.3720   -7.2820 O.co2  48  ASP48      -0.2456
     69  OD2      -20.2370  -23.4990   -9.0800 O.co2  48  ASP48      -0.2456
     70  N        -30.1180  -23.5490  -12.8670 N.3   104  LEU104     -0.1245
     71  CA       -28.7870  -23.5650  -12.2940 C.3   104  LEU104      0.1561
     72  C        -28.2160  -25.0010  -12.2280 C.2   104  LEU104      0.2260
     73  O        -27.0700  -25.2670  -12.6280 O.2   104  LEU104     -0.2867
     74  CB       -28.8030  -22.9480  -10.9020 C.3   104  LEU104      0.0270
     75  CG       -27.4890  -23.0620  -10.1140 C.3   104  LEU104      0.0019
     76  CD1      -26.3390  -22.2820  -10.7880 C.3   104  LEU104      0.0001
     77  CD2      -27.6990  -22.5340   -8.6450 C.3   104  LEU104      0.0001
     78  N        -25.9140  -19.6620  -14.4940 N.3   130  VAL130     -0.1231
     79  CA       -25.0940  -19.7930  -13.2860 C.3   130  VAL130      0.1692
     80  C        -25.3780  -18.6320  -12.3430 C.2   130  VAL130      0.2591
     81  O        -25.2500  -18.7490  -11.1180 O.2   130  VAL130     -0.2718
     82  CB       -23.6100  -19.8850  -13.7380 C.3   130  VAL130      0.0266
     83  CG1      -22.6750  -18.9420  -13.0410 C.3   130  VAL130      0.0020
     84  CG2      -23.1580  -21.3370  -13.7750 C.3   130  VAL130      0.0020
     85  N        -25.9700  -17.5660  -12.8790 N.am  131  ALA131     -0.1980
     86  CA       -26.0630  -16.3640  -12.0460 C.3   131  ALA131      0.1597
     87  C        -27.3360  -15.5500  -12.2690 C.2   131  ALA131      0.2287
     88  O        -27.9390  -15.0680  -11.3100 O.2   131  ALA131     -0.2864
     89  CB       -24.8640  -15.5280  -12.2930 C.3   131  ALA131      0.0319
     90  N        -29.9090  -16.9950  -10.3280 N.3   134  VAL134     -0.1231
     91  CA       -29.8030  -16.6360   -8.9190 C.3   134  VAL134      0.1692
     92  C        -30.4650  -15.2990   -8.6240 C.2   134  VAL134      0.2592
     93  O        -31.1730  -15.1800   -7.6350 O.2   134  VAL134     -0.2718
     94  CB       -28.3020  -16.6530   -8.4580 C.3   134  VAL134      0.0266
     95  CG1      -28.1010  -15.9850   -7.1180 C.3   134  VAL134      0.0020
     96  CG2      -27.7490  -18.1090   -8.4550 C.3   134  VAL134      0.0020
     97  N        -30.2260  -14.3000   -9.4740 N.am  135  GLY135     -0.1957
     98  CA       -30.9400  -13.0020   -9.3720 C.3   135  GLY135      0.1869
     99  C        -32.4490  -13.1800   -9.4510 C.2   135  GLY135      0.2309
    100  O        -33.1860  -12.5700   -8.6830 O.2   135  GLY135     -0.2863
    101  N        -33.7520  -14.5900   -6.0270 N.3   138  LEU138     -0.1245
    102  CA       -33.7440  -13.4760   -5.0730 C.3   138  LEU138      0.1561
    103  C        -34.8000  -12.3930   -5.2370 C.2   138  LEU138      0.2260
    104  O        -35.0660  -11.6370   -4.3030 O.2   138  LEU138     -0.2867
    105  CB       -32.3620  -12.8080   -4.9930 C.3   138  LEU138      0.0270
    106  CG       -31.2280  -13.7690   -4.5790 C.3   138  LEU138      0.0019
    107  CD1      -29.8520  -13.1390   -4.7920 C.3   138  LEU138      0.0001
    108  CD2      -31.4010  -14.1140   -3.1590 C.3   138  LEU138      0.0001
    109  N        -36.1140   -9.3670   -2.4690 N.3   142  LEU142     -0.1245
    110  CA       -35.5460   -8.0190   -2.5560 C.3   142  LEU142      0.1561
    111  C        -36.5410   -6.9290   -3.0610 C.2   142  LEU142      0.2260
    112  O        -36.1590   -5.7670   -3.2060 O.2   142  LEU142     -0.2867
    113  CB       -34.3400   -8.0580   -3.5200 C.3   142  LEU142      0.0270
    114  CG       -33.1560   -8.9150   -3.0470 C.3   142  LEU142      0.0019
    115  CD1      -31.9990   -8.8730   -4.0550 C.3   142  LEU142      0.0001
    116  CD2      -32.6950   -8.5250   -1.6690 C.3   142  LEU142      0.0001
    117  N        -32.8910   -7.9370  -11.9780 N.3   154  ALA154     -0.1245
    118  CA       -32.1840   -8.8440  -11.0640 C.3   154  ALA154      0.1562
    119  C        -31.3720   -9.8800  -11.8370 C.2   154  ALA154      0.2260
    120  O        -30.2540  -10.1880  -11.4570 O.2   154  ALA154     -0.2867
    121  CB       -33.1810   -9.5460  -10.0970 C.3   154  ALA154      0.0290
    122  N        -28.3980   -8.0170  -13.2670 N.3   157  LEU157     -0.1231
    123  CA       -27.4310   -7.8100  -12.2320 C.3   157  LEU157      0.1693
    124  C        -26.6210   -9.0980  -11.9900 C.2   157  LEU157      0.2592
    125  O        -25.4010   -9.0780  -12.0560 O.2   157  LEU157     -0.2718
    126  CB       -28.0990   -7.3690  -10.9290 C.3   157  LEU157      0.0284
    127  CG       -27.1480   -7.2850   -9.7180 C.3   157  LEU157      0.0019
    128  CD1      -26.1150   -6.2340   -9.9390 C.3   157  LEU157      0.0001
    129  CD2      -27.9070   -7.0450   -8.3950 C.3   157  LEU157      0.0001
    130  N        -27.3080  -10.2250  -11.7910 N.am  158  GLY158     -0.1957
    131  CA       -26.6270  -11.5260  -11.6550 C.3   158  GLY158      0.1869
    132  C        -25.6550  -11.8740  -12.7810 C.2   158  GLY158      0.2309
    133  O        -24.5200  -12.2770  -12.5300 O.2   158  GLY158     -0.2863
    134  N        -22.5220   -9.6140  -12.5790 N.3   161  LEU161     -0.1231
    135  CA       -21.6150  -10.0160  -11.5270 C.3   161  LEU161      0.1693
    136  C        -20.8670  -11.2560  -11.9700 C.2   161  LEU161      0.2591
    137  O        -19.6790  -11.4230  -11.6580 O.2   161  LEU161     -0.2718
    138  CB       -22.3740  -10.3150  -10.2300 C.3   161  LEU161      0.0284
    139  CG       -23.0720   -9.0700   -9.7000 C.3   161  LEU161      0.0019
    140  CD1      -24.0690   -9.4340   -8.5850 C.3   161  LEU161      0.0001
    141  CD2      -22.0110   -8.1350   -9.1990 C.3   161  LEU161      0.0001
    142  N        -21.5540  -12.1590  -12.6580 N.am  162  GLN162     -0.1979
    143  CA       -20.8720  -13.3570  -13.1420 C.3   162  GLN162      0.1601
    144  C        -19.7770  -12.9920  -14.1390 C.2   162  GLN162      0.2287
    145  O        -18.7200  -13.5910  -14.1350 O.2   162  GLN162     -0.2864
    146  CB       -21.8350  -14.3320  -13.8130 C.3   162  GLN162      0.0394
    147  CG       -21.1830  -15.6290  -14.2710 C.3   162  GLN162      0.0908
    148  CD       -20.4750  -16.3850  -13.1400 C.2   162  GLN162      0.2608
    149  OE1      -20.8150  -16.2760  -11.9580 O.2   162  GLN162     -0.2717
    150  NE2      -19.4740  -17.1470  -13.5120 N.am  162  GLN162     -0.0878
    151  N        -16.8320  -11.6390  -12.2420 N.3   165  ASN165     -0.1240
    152  CA       -16.1610  -12.7870  -11.6700 C.3   165  ASN165      0.1653
    153  C        -15.2610  -13.4540  -12.7260 C.2   165  ASN165      0.2266
    154  O        -14.1260  -13.7550  -12.4610 O.2   165  ASN165     -0.2867
    155  CB       -17.2110  -13.7650  -11.1320 C.3   165  ASN165      0.1155
    156  CG       -16.5980  -14.9900  -10.4800 C.2   165  ASN165      0.2627
    157  OD1      -16.3750  -15.0020   -9.2740 O.2   165  ASN165     -0.2716
    158  ND2      -16.2580  -16.0010  -11.2880 N.am  165  ASN165     -0.0877
    159  N        -23.6020   -3.9480   -3.0110 N.3   241  ALA241     -0.1245
    160  CA       -23.1400   -5.2230   -3.5620 C.3   241  ALA241      0.1562
    161  C        -22.5830   -5.0430   -4.9560 C.2   241  ALA241      0.2260
    162  O        -21.4780   -5.5080   -5.2830 O.2   241  ALA241     -0.2867
    163  CB       -24.2810   -6.2470   -3.5630 C.3   241  ALA241      0.0290
    164  N        -18.5680   -5.3220   -6.1370 N.3   245  TYR245     -0.1241
    165  CA       -18.1890   -6.2230   -7.2150 C.3   245  TYR245      0.1605
    166  C        -17.5670   -5.5060   -8.3870 C.2   245  TYR245      0.2264
    167  O        -16.5820   -5.9720   -8.9680 O.2   245  TYR245     -0.2867
    168  CB       -19.3740   -7.0740   -7.6770 C.3   245  TYR245      0.0534
    169  CG       -19.0610   -8.5160   -7.4920 C.ar  245  TYR245     -0.0201
    170  CD1      -18.6960   -9.2850   -8.5720 C.ar  245  TYR245     -0.0009
    171  CD2      -18.8770   -9.0430   -6.2150 C.ar  245  TYR245     -0.0009
    172  CE1      -18.3090  -10.5880   -8.4210 C.ar  245  TYR245      0.0417
    173  CE2      -18.4280  -10.3430   -6.0370 C.ar  245  TYR245      0.0417
    174  CZ       -18.1370  -11.1100   -7.1510 C.ar  245  TYR245      0.1957
    175  OH       -17.7340  -12.4280   -7.0280 O.3   245  TYR245     -0.2866
@<TRIPOS>BOND
     1    78    79    1
     2   147   146    1
     3   147   148    1
     4   144   145    2
     5   144   143    1
     6   146   143    1
     7    84    82    1
     8    82    79    1
     9    82    83    1
    10   150   148   am
    11    79    80    1
    12   122   123    1
    13   143   142    1
    14   148   149    2
    15    85    80   am
    16    85    86    1
    17    70    71    1
    18   132   133    2
    19   132   131    1
    20   153   154    2
    21   153   152    1
    22   142   136   am
    23    73    72    2
    24   134   135    1
    25    80    81    2
    26    71    72    1
    27    71    74    1
    28    89    86    1
    29    87    86    1
    30    87    88    2
    31   151   152    1
    32   123   124    1
    33   123   126    1
    34   125   124    2
    35   124   130   am
    36   117   118    1
    37   136   137    2
    38   136   135    1
    39   119   120    2
    40   119   118    1
    41   130   131    1
    42   152   155    1
    43   135   138    1
    44   158   156   am
    45   155   156    1
    46   118   121    1
    47   126   127    1
    48    74    75    1
    49    76    75    1
    50   156   157    2
    51    90    91    1
    52   138   139    1
    53    75    77    1
    54   128   127    1
    55   127   129    1
    56   139   141    1
    57   139   140    1
    58    97    98    1
    59    97    92   am
    60    99    98    1
    61    99   100    2
    62    69    67   ar
    63   167   166    2
    64    91    92    1
    65    91    94    1
    66    92    93    2
    67   170   172   ar
    68   170   169   ar
    69    94    96    1
    70    94    95    1
    71   172   174   ar
    72   166   165    1
    73    65    64    2
    74    67    68   ar
    75    67    66    1
    76   168   169    1
    77   168   165    1
    78   169   171   ar
    79    63    64    1
    80    63    66    1
    81    63    62    1
    82   165   164    1
    83   174   175    1
    84   174   173   ar
    85   171   173   ar
    86   101   102    1
    87    21    20   ar
    88    21    19   ar
    89    50    49    1
    90    48    47    2
    91    20    18   ar
    92   162   161    2
    93    49    46    1
    94   103   102    1
    95   103   104    2
    96    19    17   ar
    97   102   105    1
    98   105   106    1
    99   161   160    1
   100    46    47    1
   101    46    45    1
   102   107   106    1
   103    47    51   am
   104    60    59    1
   105     9    10   ar
   106     9     7   ar
   107    10     8   ar
   108   106   108    1
   109   115   114    1
   110    18    16   ar
   111    54    53    2
   112    17    16   ar
   113    51    52    1
   114   163   160    1
   115   160   159    1
   116   113   114    1
   117   113   110    1
   118    59    61    1
   119    59    58    2
   120     7     6   ar
   121    52    53    1
   122    52    55    1
   123     8     6   ar
   124    16    15    1
   125   112   111    2
   126    44    43    1
   127   111   110    1
   128    57    58    1
   129    57    56    1
   130   114   116    1
   131    32    31   ar
   132    32    30   ar
   133    42    43   ar
   134    42    40   ar
   135   110   109    1
   136     6     5    1
   137    43    41   ar
   138    31    29   ar
   139    40    38   ar
   140    56    55    1
   141    36    35    2
   142    30    28   ar
   143    15    12    1
   144     4     3    2
   145    41    39   ar
   146    34    35    1
   147    34    33    1
   148    34    37    1
   149    38    39   ar
   150    38    37    1
   151    29    27   ar
   152    11    12    1
   153     5     2    1
   154    12    13    1
   155     3     2    1
   156    28    27   ar
   157     2     1    1
   158    27    26    1
   159    13    14    2
   160    26    23    1
   161    22    23    1
   162    23    24    1
   163    24    25    2
