@<TRIPOS>MOLECULE
tmp/4ea3A02.pdb
 104 103 0 0 0
SMALL
GASTEIGER

@<TRIPOS>ATOM
      1  N         18.0150  -53.5720   15.2410 N.3     9  VAL9       -0.1245
      2  CA        16.7970  -53.2220   15.9560 C.3     9  VAL9        0.1561
      3  C         16.9360  -51.8670   16.6400 C.2     9  VAL9        0.2260
      4  O         16.0340  -51.0310   16.5670 O.2     9  VAL9       -0.2867
      5  CB        16.4560  -54.2850   17.0080 C.3     9  VAL9        0.0252
      6  CG1       15.2570  -53.8580   17.8270 C.3     9  VAL9        0.0019
      7  CG2       16.1910  -55.6230   16.3400 C.3     9  VAL9        0.0019
      8  N         14.5060  -48.6510   16.2220 N.3    13  LEU13      -0.1245
      9  CA        13.9500  -47.8650   17.3160 C.3    13  LEU13       0.1561
     10  C         14.2860  -46.3890   17.1420 C.2    13  LEU13       0.2260
     11  O         13.4350  -45.5230   17.3460 O.2    13  LEU13      -0.2867
     12  CB        14.4800  -48.3690   18.6610 C.3    13  LEU13       0.0270
     13  CG        14.0320  -49.7750   19.0690 C.3    13  LEU13       0.0019
     14  CD1       14.7400  -50.2100   20.3400 C.3    13  LEU13       0.0001
     15  CD2       12.5210  -49.8300   19.2500 C.3    13  LEU13       0.0001
     16  N          8.8060  -51.2520   14.9980 N.3    59  PRO59      -0.2116
     17  CA         8.7800  -51.9400   16.2900 C.3    59  PRO59       0.1372
     18  C          8.4230  -53.4150   16.1250 C.2    59  PRO59       0.2244
     19  O          8.9970  -54.2750   16.7900 O.2    59  PRO59      -0.2868
     20  CB         7.6750  -51.1970   17.0480 C.3    59  PRO59       0.0268
     21  CG         7.7080  -49.8120   16.4650 C.3    59  PRO59       0.0207
     22  CD         7.9390  -50.0640   14.9920 C.3    59  PRO59       0.0892
     23  N         11.0880  -55.2640   14.0300 N.3    62  GLY62      -0.1210
     24  CA        12.2650  -55.3410   14.8730 C.3    62  GLY62       0.1956
     25  C         12.2850  -56.5760   15.7510 C.2    62  GLY62       0.2612
     26  O         13.3410  -57.1700   15.9630 O.2    62  GLY62      -0.2717
     27  N         11.1210  -56.9690   16.2600 N.am   63  THR63      -0.1952
     28  CA        11.0470  -58.1100   17.1650 C.3    63  THR63       0.1897
     29  C         11.1800  -59.4040   16.3760 C.2    63  THR63       0.2313
     30  O         11.7680  -60.3730   16.8550 O.2    63  THR63      -0.2863
     31  CB         9.7230  -58.1550   17.9580 C.3    63  THR63       0.1794
     32  OG1        8.7110  -58.8010   17.1790 O.3    63  THR63      -0.2208
     33  CG2        9.2560  -56.7610   18.3350 C.3    63  THR63       0.0378
     34  N         14.6780  -60.1900   15.9790 N.3    66  LEU66      -0.1231
     35  CA        15.2460  -60.7280   17.2110 C.3    66  LEU66       0.1693
     36  C         14.8400  -62.1790   17.4240 C.2    66  LEU66       0.2591
     37  O         15.6880  -63.0670   17.4910 O.2    66  LEU66      -0.2718
     38  CB        14.8020  -59.9010   18.4190 C.3    66  LEU66       0.0284
     39  CG        15.4030  -58.5020   18.5400 C.3    66  LEU66       0.0019
     40  CD1       14.7540  -57.7690   19.6950 C.3    66  LEU66       0.0001
     41  CD2       16.9130  -58.5680   18.7220 C.3    66  LEU66       0.0001
     42  N         13.5370  -62.4120   17.5260 N.am   67  LEU67      -0.1980
     43  CA        13.0180  -63.7360   17.8420 C.3    67  LEU67       0.1596
     44  C         13.3310  -64.7470   16.7470 C.2    67  LEU67       0.2287
     45  O         13.5260  -65.9290   17.0230 O.2    67  LEU67      -0.2864
     46  CB        11.5090  -63.6670   18.0590 C.3    67  LEU67       0.0297
     47  CG        11.0470  -62.7430   19.1810 C.3    67  LEU67       0.0022
     48  CD1        9.5340  -62.7810   19.2390 C.3    67  LEU67       0.0001
     49  CD2       11.6790  -63.1410   20.5130 C.3    67  LEU67       0.0001
     50  N         11.1780  -65.1310   14.1510 N.3    69  PHE69      -0.1227
     51  CA         9.8810  -65.6050   13.6850 C.3    69  PHE69       0.1736
     52  C          8.8250  -64.5270   13.9210 C.2    69  PHE69       0.2595
     53  O          9.0930  -63.5240   14.5760 O.2    69  PHE69      -0.2718
     54  CB         9.4970  -66.9200   14.3750 C.3    69  PHE69       0.0547
     55  CG         9.1440  -66.7720   15.8260 C.ar   69  PHE69      -0.0202
     56  CD1        7.8350  -66.5350   16.2070 C.ar   69  PHE69      -0.0042
     57  CD2       10.1140  -66.8890   16.8100 C.ar   69  PHE69      -0.0042
     58  CE1        7.4990  -66.4060   17.5400 C.ar   69  PHE69      -0.0003
     59  CE2        9.7820  -66.7620   18.1450 C.ar   69  PHE69      -0.0003
     60  CZ         8.4740  -66.5190   18.5100 C.ar   69  PHE69      -0.0000
     61  N          7.6340  -64.7230   13.3670 N.am   70  TRP70      -0.1963
     62  CA         6.5600  -63.7420   13.4910 C.3    70  TRP70       0.1756
     63  C          5.5410  -64.1560   14.5600 C.2    70  TRP70       0.2461
     64  O          4.7070  -65.0280   14.3290 O.2    70  TRP70      -0.2730
     65  CB         5.8620  -63.5680   12.1350 C.3    70  TRP70       0.0590
     66  CG         4.7830  -62.5250   12.1340 C.ar   70  TRP70       0.0006
     67  CD1        3.4370  -62.7380   12.2130 C.ar   70  TRP70       0.0946
     68  CD2        4.9610  -61.1050   12.0550 C.ar   70  TRP70       0.0152
     69  NE1        2.7660  -61.5380   12.1890 N.ar   70  TRP70      -0.2442
     70  CE2        3.6790  -60.5210   12.0920 C.ar   70  TRP70       0.0810
     71  CE3        6.0790  -60.2720   11.9570 C.ar   70  TRP70       0.0012
     72  CZ2        3.4850  -59.1430   12.0340 C.ar   70  TRP70       0.0191
     73  CZ3        5.8840  -58.9030   11.8980 C.ar   70  TRP70       0.0001
     74  CH2        4.5970  -58.3530   11.9380 C.ar   70  TRP70       0.0015
     75  N          5.5930  -63.5110   15.7280 N.am   71  PRO71      -0.2716
     76  CA         4.6850  -63.8730   16.8220 C.3    71  PRO71       0.1536
     77  C          3.4590  -62.9670   16.9600 C.2    71  PRO71       0.2599
     78  O          2.9030  -62.8940   18.0560 O.2    71  PRO71      -0.2715
     79  CB         5.5820  -63.7250   18.0590 C.3    71  PRO71       0.0310
     80  CG         6.5320  -62.6250   17.6690 C.3    71  PRO71       0.0237
     81  CD         6.8550  -62.9500   16.2300 C.3    71  PRO71       0.0939
     82  N          3.0410  -62.2900   15.8930 N.am   72  PHE72      -0.1960
     83  CA         1.8820  -61.4010   15.9880 C.3    72  PHE72       0.1771
     84  C          0.6710  -61.9220   15.2200 C.2    72  PHE72       0.2620
     85  O         -0.3780  -61.2770   15.1950 O.2    72  PHE72      -0.2715
     86  CB         2.2340  -59.9940   15.5020 C.3    72  PHE72       0.0574
     87  CG         3.3900  -59.3720   16.2300 C.ar   72  PHE72      -0.0200
     88  CD1        3.2360  -58.8840   17.5210 C.ar   72  PHE72      -0.0042
     89  CD2        4.6320  -59.2720   15.6230 C.ar   72  PHE72      -0.0042
     90  CE1        4.3010  -58.3100   18.1930 C.ar   72  PHE72      -0.0003
     91  CE2        5.6980  -58.6980   16.2860 C.ar   72  PHE72      -0.0003
     92  CZ         5.5320  -58.2160   17.5740 C.ar   72  PHE72      -0.0000
     93  N          0.8150  -63.0850   14.5950 N.am   73  GLY73      -0.1954
     94  CA        -0.2910  -63.7080   13.8900 C.3    73  GLY73       0.1869
     95  C         -0.4660  -63.2150   12.4640 C.2    73  GLY73       0.2309
     96  O          0.3690  -62.4800   11.9380 O.2    73  GLY73      -0.2863
     97  N          7.5360  -70.4680   11.9810 N.3   145  ILE145     -0.1245
     98  CA         6.4710  -69.6630   11.3900 C.3   145  ILE145      0.1561
     99  C          7.0560  -68.3130   10.9940 C.2   145  ILE145      0.2260
    100  O          7.9030  -67.7670   11.7000 O.2   145  ILE145     -0.2867
    101  CB         5.2950  -69.4510   12.3680 C.3   145  ILE145      0.0252
    102  CG1        4.1370  -68.7320   11.6670 C.3   145  ILE145      0.0019
    103  CG2        5.7580  -68.6710   13.5910 C.3   145  ILE145      0.0019
    104  CD1        2.8390  -68.7590   12.4480 C.3   145  ILE145      0.0001
@<TRIPOS>BOND
     1    99    98    1
     2    99   100    2
     3    98    97    1
     4    98   101    1
     5   102   101    1
     6   102   104    1
     7    73    74   ar
     8    73    71   ar
     9    96    95    2
    10    74    72   ar
    11    71    68   ar
    12    72    70   ar
    13    68    70   ar
    14    68    66   ar
    15    70    69   ar
    16    66    65    1
    17    66    67   ar
    18    65    62    1
    19    69    67   ar
    20   101   103    1
    21    95    94    1
    22    61    62    1
    23    61    52   am
    24    62    63    1
    25    51    52    1
    26    51    50    1
    27    51    54    1
    28    94    93    1
    29    52    53    2
    30    23    24    1
    31    64    63    2
    32    54    55    1
    33    63    75   am
    34    93    84   am
    35    24    25    1
    36    22    16    1
    37    22    21    1
    38    16    17    1
    39    85    84    2
    40    84    83    1
    41     1     2    1
    42    86    83    1
    43    86    87    1
    44    89    87   ar
    45    89    91   ar
    46    75    81    1
    47    75    76    1
    48    25    26    2
    49    25    27   am
    50    55    56   ar
    51    55    57   ar
    52    82    83    1
    53    82    77   am
    54     2     3    1
    55     2     5    1
    56    34    35    1
    57    18    17    1
    58    18    19    2
    59    56    58   ar
    60     8     9    1
    61    87    88   ar
    62    81    80    1
    63    27    28    1
    64    91    92   ar
    65    17    20    1
    66     7     5    1
    67    29    30    2
    68    29    28    1
    69    21    20    1
    70     4     3    2
    71    44    45    2
    72    44    43    1
    73    57    59   ar
    74    76    77    1
    75    76    79    1
    76    77    78    2
    77     5     6    1
    78    10     9    1
    79    10    11    2
    80    28    31    1
    81    32    31    1
    82    35    36    1
    83    35    38    1
    84     9    12    1
    85    36    37    2
    86    36    42   am
    87    88    90   ar
    88    42    43    1
    89    58    60   ar
    90    92    90   ar
    91    80    79    1
    92    43    46    1
    93    31    33    1
    94    46    47    1
    95    59    60   ar
    96    38    39    1
    97    39    41    1
    98    39    40    1
    99    12    13    1
   100    13    15    1
   101    13    14    1
   102    47    48    1
   103    47    49    1
