@<TRIPOS>MOLECULE
tmp/4ea3B02.pdb
 129 120 0 0 0
SMALL
GASTEIGER

@<TRIPOS>ATOM
      1  N          6.8680  -69.2660   43.6660 N.3   143  ALA143     -0.1245
      2  CA         6.8750  -68.0150   44.4210 C.3   143  ALA143      0.1562
      3  C          7.9350  -67.0450   43.9030 C.2   143  ALA143      0.2260
      4  O          7.6560  -65.8690   43.6710 O.2   143  ALA143     -0.2867
      5  CB         7.1060  -68.2970   45.8960 C.3   143  ALA143      0.0290
      6  N          7.7780  -63.3000   41.5200 N.3   147  TYR147     -0.1241
      7  CA         8.4560  -62.0720   41.9110 C.3   147  TYR147      0.1605
      8  C          9.3800  -61.6100   40.7890 C.2   147  TYR147      0.2264
      9  O          9.4640  -60.4180   40.4900 O.2   147  TYR147     -0.2867
     10  CB         9.2510  -62.2940   43.1970 C.3   147  TYR147      0.0534
     11  CG         8.3830  -62.5270   44.4090 C.ar  147  TYR147     -0.0201
     12  CD1        7.3110  -61.6900   44.6870 C.ar  147  TYR147     -0.0009
     13  CD2        8.6250  -63.5910   45.2700 C.ar  147  TYR147     -0.0009
     14  CE1        6.5110  -61.8980   45.7930 C.ar  147  TYR147      0.0417
     15  CE2        7.8280  -63.8080   46.3790 C.ar  147  TYR147      0.0417
     16  CZ         6.7730  -62.9580   46.6350 C.ar  147  TYR147      0.1957
     17  OH         5.9760  -63.1690   47.7340 O.3   147  TYR147     -0.2866
     18  N         11.3490  -53.1930   46.5980 N.3   197  PHE197     -0.1241
     19  CA        10.3000  -53.8740   47.3480 C.3   197  PHE197      0.1605
     20  C         10.1550  -55.3330   46.9180 C.2   197  PHE197      0.2264
     21  O          9.9560  -56.2170   47.7530 O.2   197  PHE197     -0.2867
     22  CB         8.9650  -53.1410   47.1900 C.3   197  PHE197      0.0534
     23  CG         8.9210  -51.8000   47.8770 C.ar  197  PHE197     -0.0203
     24  CD1        9.8720  -51.4560   48.8300 C.ar  197  PHE197     -0.0042
     25  CD2        7.9230  -50.8860   47.5740 C.ar  197  PHE197     -0.0042
     26  CE1        9.8290  -50.2250   49.4620 C.ar  197  PHE197     -0.0003
     27  CE2        7.8740  -49.6530   48.2020 C.ar  197  PHE197     -0.0003
     28  CZ         8.8290  -49.3220   49.1470 C.ar  197  PHE197     -0.0000
     29  N         13.1280  -57.2890   48.2100 N.3   200  THR200     -0.1203
     30  CA        12.9090  -57.5360   49.6290 C.3   200  THR200      0.1994
     31  C         11.9630  -58.7210   49.8150 C.2   200  THR200      0.2617
     32  O         12.2350  -59.6270   50.6040 O.2   200  THR200     -0.2717
     33  CB        12.3180  -56.2970   50.3370 C.3   200  THR200      0.1784
     34  OG1       13.2600  -55.2170   50.2930 O.3   200  THR200     -0.2211
     35  CG2       11.9920  -56.6120   51.7900 C.3   200  THR200      0.0376
     36  N         10.8520  -58.7100   49.0840 N.am  201  ALA201     -0.1979
     37  CA         9.8740  -59.7890   49.1620 C.3   201  ALA201      0.1597
     38  C         10.5240  -61.1270   48.8280 C.2   201  ALA201      0.2287
     39  O         10.3060  -62.1240   49.5160 O.2   201  ALA201     -0.2864
     40  CB         8.7140  -59.5170   48.2190 C.3   201  ALA201      0.0319
     41  N         12.7360  -62.2870   51.7890 N.3   204  VAL204     -0.1231
     42  CA        11.9380  -62.8700   52.8610 C.3   204  VAL204      0.1692
     43  C         11.4590  -64.2550   52.4430 C.2   204  VAL204      0.2592
     44  O         11.5380  -65.2070   53.2160 O.2   204  VAL204     -0.2718
     45  CB        10.7240  -61.9890   53.2090 C.3   204  VAL204      0.0266
     46  CG1        9.8070  -62.7060   54.1910 C.3   204  VAL204      0.0020
     47  CG2       11.1830  -60.6530   53.7790 C.3   204  VAL204      0.0020
     48  N         10.9690  -64.3600   51.2120 N.am  205  ASP205     -0.1974
     49  CA        10.5360  -65.6360   50.6590 C.3   205  ASP205      0.1709
     50  C         11.6370  -66.6840   50.8080 C.2   205  ASP205      0.2293
     51  O         11.3810  -67.8130   51.2260 O.2   205  ASP205     -0.2864
     52  CB        10.1640  -65.4630   49.1850 C.3   205  ASP205      0.1436
     53  CG         9.6540  -66.7450   48.5540 C.2   205  ASP205      0.3671
     54  OD1        8.4680  -67.0820   48.7540 O.co2 205  ASP205     -0.2456
     55  OD2       10.4380  -67.4230   47.8540 O.co2 205  ASP205     -0.2456
     56  N         12.1670  -67.7050   54.5060 N.3   208  VAL208     -0.1245
     57  CA        11.0810  -68.5740   54.9400 C.3   208  VAL208      0.1561
     58  C         11.3380  -70.0100   54.4990 C.2   208  VAL208      0.2260
     59  O         11.1320  -70.9520   55.2640 O.2   208  VAL208     -0.2867
     60  CB         9.7270  -68.1120   54.3700 C.3   208  VAL208      0.0252
     61  CG1        8.6560  -69.1600   54.6310 C.3   208  VAL208      0.0019
     62  CG2        9.3280  -66.7710   54.9680 C.3   208  VAL208      0.0019
     63  N          2.8390  -72.1160   52.1990 N.3   219  VAL219     -0.1231
     64  CA         3.0130  -70.6730   52.3180 C.3   219  VAL219      0.1692
     65  C          3.5180  -70.0170   51.0350 C.2   219  VAL219      0.2592
     66  O          3.1050  -68.9080   50.6970 O.2   219  VAL219     -0.2718
     67  CB         3.9910  -70.3290   53.4580 C.3   219  VAL219      0.0266
     68  CG1        4.2420  -68.8300   53.5100 C.3   219  VAL219      0.0020
     69  CG2        3.4530  -70.8310   54.7890 C.3   219  VAL219      0.0020
     70  N          4.4150  -70.6950   50.3280 N.am  220  ARG220     -0.1966
     71  CA         5.0500  -70.1070   49.1560 C.3   220  ARG220      0.1729
     72  C          4.3000  -70.4500   47.8740 C.2   220  ARG220      0.2616
     73  O          4.8980  -70.6530   46.8210 O.2   220  ARG220     -0.2715
     74  CB         6.5080  -70.5480   49.0740 C.3   220  ARG220      0.0348
     75  CG         7.3180  -70.1260   50.2900 C.3   220  ARG220      0.0492
     76  CD         8.7850  -70.4630   50.1420 C.3   220  ARG220      0.2205
     77  NE         9.3190  -69.9620   48.8800 N.pl3 220  ARG220     -0.0865
     78  CZ         9.5510  -70.7060   47.8000 C.cat 220  ARG220      0.5346
     79  NH1        9.3140  -72.0130   47.8060 N.pl3 220  ARG220      0.1354
     80  NH2       10.0320  -70.1360   46.7060 N.pl3 220  ARG220      0.1354
     81  N          2.9790  -70.5090   47.9850 N.am  221  THR221     -0.1951
     82  CA         2.1080  -70.6580   46.8320 C.3   221  THR221      0.1897
     83  C          2.2880  -69.4290   45.9420 C.2   221  THR221      0.2313
     84  O          2.6660  -68.3610   46.4220 O.2   221  THR221     -0.2863
     85  CB         0.6350  -70.7810   47.2820 C.3   221  THR221      0.1794
     86  OG1        0.4910  -71.9050   48.1590 O.3   221  THR221     -0.2208
     87  CG2       -0.2890  -70.9660   46.0970 C.3   221  THR221      0.0378
     88  N         -0.1360  -66.3550   46.5530 N.3   224  LYS224     -0.1231
     89  CA         0.2520  -65.4180   47.6040 C.3   224  LYS224      0.1693
     90  C          1.3400  -64.4690   47.1150 C.2   224  LYS224      0.2591
     91  O          1.3040  -63.2720   47.3970 O.2   224  LYS224     -0.2718
     92  CB         0.7260  -66.1750   48.8450 C.3   224  LYS224      0.0285
     93  CG        -0.3520  -67.0420   49.4770 C.3   224  LYS224      0.0035
     94  CD         0.1810  -67.8270   50.6570 C.3   224  LYS224      0.0206
     95  CE        -0.9330  -68.5550   51.3930 C.3   224  LYS224      0.1093
     96  NZ        -0.4220  -69.3580   52.5360 N.3   224  LYS224     -0.1314
     97  N          2.3100  -65.0100   46.3860 N.am  225  ALA225     -0.1980
     98  CA         3.3500  -64.1900   45.7810 C.3   225  ALA225      0.1597
     99  C          2.7160  -63.1880   44.8210 C.2   225  ALA225      0.2287
    100  O          3.1850  -62.0580   44.6860 O.2   225  ALA225     -0.2864
    101  CB         4.3540  -65.0630   45.0520 C.3   225  ALA225      0.0319
    102  N          1.3030  -60.3370   46.8810 N.3   228  VAL228     -0.1245
    103  CA         2.3620  -59.4310   47.3080 C.3   228  VAL228      0.1561
    104  C          2.6750  -58.4120   46.2140 C.2   228  VAL228      0.2260
    105  O          2.7500  -57.2120   46.4750 O.2   228  VAL228     -0.2867
    106  CB         3.6460  -60.1960   47.6790 C.3   228  VAL228      0.0252
    107  CG1        4.8050  -59.2300   47.8870 C.3   228  VAL228      0.0019
    108  CG2        3.4190  -61.0340   48.9250 C.3   228  VAL228      0.0019
    109  N          0.3970  -55.6480   46.3820 N.3   231  ALA231     -0.1231
    110  CA         0.7250  -54.7630   47.4950 C.3   231  ALA231      0.1694
    111  C          1.9610  -53.9210   47.1780 C.2   231  ALA231      0.2591
    112  O          2.0830  -52.7810   47.6300 O.2   231  ALA231     -0.2718
    113  CB         0.9460  -55.5720   48.7650 C.3   231  ALA231      0.0304
    114  N          2.8750  -54.4910   46.3990 N.am  232  ILE232     -0.1980
    115  CA         4.1020  -53.7990   46.0180 C.3   232  ILE232      0.1595
    116  C          3.8180  -52.6470   45.0570 C.2   232  ILE232      0.2287
    117  O          4.4200  -51.5780   45.1580 O.2   232  ILE232     -0.2864
    118  CB         5.1120  -54.7700   45.3750 C.3   232  ILE232      0.0276
    119  CG1        5.7350  -55.6620   46.4520 C.3   232  ILE232      0.0022
    120  CG2        6.1990  -54.0010   44.6330 C.3   232  ILE232      0.0022
    121  CD1        6.6410  -56.7420   45.9120 C.3   232  ILE232      0.0001
    122  N          2.0020  -49.9150   47.2070 N.3   235  LEU235     -0.1245
    123  CA         2.9420  -49.0930   47.9660 C.3   235  LEU235      0.1561
    124  C          3.6860  -48.1270   47.0520 C.2   235  LEU235      0.2260
    125  O          3.8660  -46.9550   47.3840 O.2   235  LEU235     -0.2867
    126  CB         3.9560  -49.9710   48.7070 C.3   235  LEU235      0.0270
    127  CG         3.6470  -50.3120   50.1670 C.3   235  LEU235      0.0019
    128  CD1        4.6810  -51.2850   50.7150 C.3   235  LEU235      0.0001
    129  CD2        3.6020  -49.0530   51.0170 C.3   235  LEU235      0.0001
@<TRIPOS>BOND
     1     9     8    2
     2     8     7    1
     3     6     7    1
     4     7    10    1
     5    10    11    1
     6     1     2    1
     7     4     3    2
     8     3     2    1
     9    11    12   ar
    10    11    13   ar
    11     2     5    1
    12   120   118    1
    13   100    99    2
    14    12    14   ar
    15    99    98    1
    16   101    98    1
    17   116   117    2
    18   116   115    1
    19    13    15   ar
    20   118   115    1
    21   118   119    1
    22    98    97    1
    23    14    16   ar
    24   121   119    1
    25    83    84    2
    26    83    82    1
    27   115   114    1
    28    87    85    1
    29   104   105    2
    30   104   103    1
    31    15    16   ar
    32   109   110    1
    33    97    90   am
    34   114   111   am
    35    88    89    1
    36    18    19    1
    37    16    17    1
    38    80    78    1
    39    73    72    2
    40    82    85    1
    41    82    81    1
    42   102   103    1
    43    20    19    1
    44    20    21    2
    45   124   125    2
    46   124   123    1
    47    90    91    2
    48    90    89    1
    49   111   110    1
    50   111   112    2
    51    22    19    1
    52    22    23    1
    53   122   123    1
    54    85    86    1
    55   103   106    1
    56   110   113    1
    57    25    23   ar
    58    25    27   ar
    59    89    92    1
    60   106   107    1
    61   106   108    1
    62    78    79    1
    63    78    77    2
    64    55    53   ar
    65    72    81   am
    66    72    71    1
    67    23    24   ar
    68   123   126    1
    69    27    28   ar
    70    29    30    1
    71    40    37    1
    72    53    54   ar
    73    53    52    1
    74   126   127    1
    75    38    37    1
    76    38    39    2
    77    24    26   ar
    78    92    93    1
    79    77    76    1
    80    74    71    1
    81    74    75    1
    82    36    37    1
    83    36    31   am
    84    28    26   ar
    85    71    70    1
    86    52    49    1
    87    93    94    1
    88    30    31    1
    89    30    33    1
    90    31    32    2
    91    76    75    1
    92   127   128    1
    93   127   129    1
    94    34    33    1
    95    70    65   am
    96    33    35    1
    97    94    95    1
    98    49    50    1
    99    49    48    1
   100    66    65    2
   101    50    51    2
   102    65    64    1
   103    48    43   am
   104    95    96    1
   105    41    42    1
   106    63    64    1
   107    64    67    1
   108    43    42    1
   109    43    44    2
   110    42    45    1
   111    45    47    1
   112    45    46    1
   113    67    68    1
   114    67    69    1
   115    60    61    1
   116    60    57    1
   117    60    62    1
   118    58    57    1
   119    58    59    2
   120    56    57    1
