@<TRIPOS>MOLECULE
tmp/4ea3B01.pdb
 216 208 0 0 0
SMALL
GASTEIGER

@<TRIPOS>ATOM
      1  N         21.8490  -46.5260   25.3460 N.3   116  TYR116     -0.1241
      2  CA        20.4360  -46.7260   25.6550 C.3   116  TYR116      0.1605
      3  C         19.7840  -47.6650   24.6460 C.2   116  TYR116      0.2264
      4  O         19.1550  -48.6550   25.0230 O.2   116  TYR116     -0.2867
      5  CB        19.6860  -45.3910   25.6720 C.3   116  TYR116      0.0534
      6  CG        19.8840  -44.5680   26.9290 C.ar  116  TYR116     -0.0201
      7  CD1       20.8010  -44.9450   27.9020 C.ar  116  TYR116     -0.0009
      8  CD2       19.1390  -43.4150   27.1450 C.ar  116  TYR116     -0.0009
      9  CE1       20.9770  -44.1910   29.0480 C.ar  116  TYR116      0.0417
     10  CE2       19.3070  -42.6570   28.2870 C.ar  116  TYR116      0.0417
     11  CZ        20.2270  -43.0490   29.2340 C.ar  116  TYR116      0.1957
     12  OH        20.3960  -42.2950   30.3730 O.3   116  TYR116     -0.2866
     13  N         14.0190  -40.7170   26.5360 N.3   165  GLN165     -0.1245
     14  CA        15.0520  -40.0250   27.2960 C.3   165  GLN165      0.1566
     15  C         16.2810  -39.7980   26.4240 C.2   165  GLN165      0.2260
     16  O         16.9740  -38.7890   26.5590 O.2   165  GLN165     -0.2867
     17  CB        15.4350  -40.8280   28.5390 C.3   165  GLN165      0.0367
     18  CG        14.3240  -40.9490   29.5690 C.3   165  GLN165      0.0905
     19  CD        14.8120  -41.5440   30.8780 C.2   165  GLN165      0.2608
     20  OE1       15.8000  -41.0830   31.4530 O.2   165  GLN165     -0.2717
     21  NE2       14.1260  -42.5790   31.3500 N.am  165  GLN165     -0.0878
     22  N         15.9720  -36.6140   24.3320 N.3   168  ASP168     -0.1225
     23  CA        16.0760  -35.4280   25.1720 C.3   168  ASP168      0.1805
     24  C         17.5470  -35.1020   25.3870 C.2   168  ASP168      0.2597
     25  O         17.9470  -33.9370   25.3670 O.2   168  ASP168     -0.2718
     26  CB        15.3760  -35.6460   26.5150 C.3   168  ASP168      0.1424
     27  CG        15.4410  -34.4210   27.4160 C.2   168  ASP168      0.3668
     28  OD1       14.3820  -34.0040   27.9320 O.co2 168  ASP168     -0.2456
     29  OD2       16.5480  -33.8790   27.6200 O.co2 168  ASP168     -0.2456
     30  N         18.3490  -36.1440   25.5840 N.am  169  ILE169     -0.1980
     31  CA        19.7820  -35.9800   25.7810 C.3   169  ILE169      0.1595
     32  C         20.4350  -35.3680   24.5440 C.2   169  ILE169      0.2287
     33  O         21.3090  -34.5080   24.6590 O.2   169  ILE169     -0.2864
     34  CB        20.4520  -37.3260   26.1200 C.3   169  ILE169      0.0276
     35  CG1       20.0540  -37.7590   27.5340 C.3   169  ILE169      0.0022
     36  CG2       21.9660  -37.2140   26.0110 C.3   169  ILE169      0.0022
     37  CD1       20.5030  -39.1560   27.9040 C.3   169  ILE169      0.0001
     38  N         12.9730  -31.3420   26.0550 N.3   174  TRP174     -0.1241
     39  CA        11.9140  -32.3450   25.9800 C.3   174  TRP174      0.1605
     40  C         10.8660  -31.9710   24.9340 C.2   174  TRP174      0.2264
     41  O         10.0800  -31.0470   25.1440 O.2   174  TRP174     -0.2867
     42  CB        11.2480  -32.4920   27.3460 C.3   174  TRP174      0.0550
     43  CG        10.1890  -33.5410   27.3860 C.ar  174  TRP174      0.0003
     44  CD1        8.8400  -33.3480   27.3290 C.ar  174  TRP174      0.0946
     45  CD2       10.3880  -34.9550   27.4930 C.ar  174  TRP174      0.0152
     46  NE1        8.1860  -34.5550   27.3950 N.ar  174  TRP174     -0.2442
     47  CE2        9.1150  -35.5580   27.4950 C.ar  174  TRP174      0.0810
     48  CE3       11.5200  -35.7710   27.5870 C.ar  174  TRP174      0.0012
     49  CZ2        8.9410  -36.9350   27.5890 C.ar  174  TRP174      0.0191
     50  CZ3       11.3460  -37.1400   27.6790 C.ar  174  TRP174      0.0001
     51  CH2       10.0670  -37.7080   27.6800 C.ar  174  TRP174      0.0015
     52  N          6.6340  -40.6010   31.9350 N.3   184  VAL184     -0.1231
     53  CA         8.0050  -41.0810   32.0500 C.3   184  VAL184      0.1692
     54  C          8.5090  -40.9830   33.4830 C.2   184  VAL184      0.2591
     55  O          9.1270  -41.9150   33.9940 O.2   184  VAL184     -0.2718
     56  CB         8.9540  -40.2960   31.1220 C.3   184  VAL184      0.0266
     57  CG1       10.4090  -40.5180   31.5220 C.3   184  VAL184      0.0020
     58  CG2        8.7300  -40.7030   29.6770 C.3   184  VAL184      0.0020
     59  N          8.2460  -39.8530   34.1290 N.am  185  ILE185     -0.1980
     60  CA         8.6990  -39.6540   35.4990 C.3   185  ILE185      0.1595
     61  C          8.1000  -40.7250   36.4110 C.2   185  ILE185      0.2287
     62  O          8.8130  -41.3490   37.1950 O.2   185  ILE185     -0.2864
     63  CB         8.3490  -38.2470   36.0220 C.3   185  ILE185      0.0276
     64  CG1        9.1040  -37.1840   35.2160 C.3   185  ILE185      0.0022
     65  CG2        8.7030  -38.1310   37.4940 C.3   185  ILE185      0.0022
     66  CD1        8.7880  -35.7550   35.6110 C.3   185  ILE185      0.0001
     67  N          9.7470  -44.1170   36.0370 N.3   188  ASP188     -0.1225
     68  CA        11.0930  -44.0650   36.5890 C.3   188  ASP188      0.1805
     69  C         11.1020  -44.3190   38.0960 C.2   188  ASP188      0.2597
     70  O         11.9380  -45.0690   38.6020 O.2   188  ASP188     -0.2718
     71  CB        11.7240  -42.7070   36.2900 C.3   188  ASP188      0.1424
     72  CG        13.1810  -42.6440   36.6900 C.2   188  ASP188      0.3668
     73  OD1       13.8950  -43.6570   36.5160 O.co2 188  ASP188     -0.2456
     74  OD2       13.6110  -41.5790   37.1810 O.co2 188  ASP188     -0.2456
     75  N         10.1780  -43.6900   38.8130 N.am  189  TYR189     -0.1976
     76  CA        10.0810  -43.8950   40.2510 C.3   189  TYR189      0.1639
     77  C          9.4450  -45.2500   40.5410 C.2   189  TYR189      0.2290
     78  O          9.9670  -46.0350   41.3360 O.2   189  TYR189     -0.2864
     79  CB         9.2940  -42.7620   40.9100 C.3   189  TYR189      0.0560
     80  CG        10.0930  -41.4820   41.0420 C.ar  189  TYR189     -0.0198
     81  CD1       10.6140  -41.0840   42.2680 C.ar  189  TYR189     -0.0009
     82  CD2       10.3390  -40.6790   39.9380 C.ar  189  TYR189     -0.0009
     83  CE1       11.3480  -39.9150   42.3880 C.ar  189  TYR189      0.0417
     84  CE2       11.0710  -39.5130   40.0490 C.ar  189  TYR189      0.0417
     85  CZ        11.5720  -39.1360   41.2750 C.ar  189  TYR189      0.1957
     86  OH        12.3010  -37.9740   41.3790 O.3   189  TYR189     -0.2866
     87  N         12.0920  -47.8680   40.4980 N.3   192  MET192     -0.1230
     88  CA        12.9790  -47.9420   41.6530 C.3   192  MET192      0.1702
     89  C         12.3010  -48.6130   42.8440 C.2   192  MET192      0.2592
     90  O         12.8740  -49.5030   43.4710 O.2   192  MET192     -0.2718
     91  CB        13.4420  -46.5410   42.0540 C.3   192  MET192      0.0401
     92  CG        14.6750  -46.5280   42.9460 C.3   192  MET192      0.0596
     93  SD        16.1050  -47.3090   42.1720 S.3   192  MET192     -0.1393
     94  CE        16.2020  -46.3790   40.6450 C.3   192  MET192      0.0692
     95  N         11.0810  -48.1840   43.1500 N.am  193  PHE193     -0.1976
     96  CA        10.3600  -48.6890   44.3140 C.3   193  PHE193      0.1639
     97  C          9.9120  -50.1340   44.1230 C.2   193  PHE193      0.2290
     98  O         10.1130  -50.9710   45.0020 O.2   193  PHE193     -0.2864
     99  CB         9.1510  -47.8040   44.6160 C.3   193  PHE193      0.0560
    100  CG         9.5030  -46.5020   45.2780 C.ar  193  PHE193     -0.0200
    101  CD1        9.4360  -46.3700   46.6550 C.ar  193  PHE193     -0.0042
    102  CD2        9.9050  -45.4120   44.5240 C.ar  193  PHE193     -0.0042
    103  CE1        9.7610  -45.1730   47.2660 C.ar  193  PHE193     -0.0003
    104  CE2       10.2300  -44.2140   45.1290 C.ar  193  PHE193     -0.0003
    105  CZ        10.1580  -44.0940   46.5020 C.ar  193  PHE193     -0.0000
    106  N         12.1060  -28.3520   29.6900 N.3   252  GLU252     -0.1231
    107  CA        12.6610  -29.6240   30.1420 C.3   252  GLU252      0.1699
    108  C         11.7300  -30.3970   31.0770 C.2   252  GLU252      0.2592
    109  O         10.9040  -29.8130   31.7770 O.2   252  GLU252     -0.2718
    110  CB        14.0000  -29.3830   30.8390 C.3   252  GLU252      0.0402
    111  CG        15.0700  -28.8290   29.9120 C.3   252  GLU252      0.1161
    112  CD        16.2520  -29.7760   29.7220 C.2   252  GLU252      0.3649
    113  OE1       16.1910  -30.9610   30.1240 O.co2 252  GLU252     -0.2457
    114  OE2       17.2670  -29.3270   29.1660 O.co2 252  GLU252     -0.2457
    115  N         11.8880  -31.7180   31.0820 N.am  253  CYS253     -0.1956
    116  CA        11.0910  -32.6070   31.9240 C.3   253  CYS253      0.1843
    117  C         11.7320  -32.7470   33.3060 C.2   253  CYS253      0.2625
    118  O         12.8890  -33.1510   33.4200 O.2   253  CYS253     -0.2714
    119  CB        10.9830  -33.9810   31.2560 C.3   253  CYS253      0.0997
    120  SG         9.7100  -35.0850   31.9340 S.3   253  CYS253     -0.0797
    121  N         10.9780  -32.4200   34.3530 N.am  254  LEU254     -0.1963
    122  CA        11.5170  -32.4380   35.7110 C.3   254  LEU254      0.1728
    123  C         10.4210  -32.4340   36.7730 C.2   254  LEU254      0.2616
    124  O          9.2610  -32.1450   36.4790 O.2   254  LEU254     -0.2715
    125  CB        12.4360  -31.2320   35.9240 C.3   254  LEU254      0.0311
    126  CG        11.8120  -29.8510   35.6920 C.3   254  LEU254      0.0022
    127  CD1       11.0230  -29.3700   36.9090 C.3   254  LEU254      0.0001
    128  CD2       12.8870  -28.8420   35.3220 C.3   254  LEU254      0.0001
    129  N         10.8020  -32.7550   38.0080 N.am  255  VAL255     -0.1977
    130  CA         9.8800  -32.7180   39.1400 C.3   255  VAL255      0.1596
    131  C         10.0350  -31.4050   39.9000 C.2   255  VAL255      0.2287
    132  O         11.1500  -30.9700   40.1900 O.2   255  VAL255     -0.2864
    133  CB        10.1160  -33.8980   40.1040 C.3   255  VAL255      0.0276
    134  CG1        9.2680  -33.7460   41.3630 C.3   255  VAL255      0.0022
    135  CG2        9.8080  -35.2160   39.4100 C.3   255  VAL255      0.0022
    136  N         13.1180  -40.2030   50.3060 N.3   272  ILE272     -0.1245
    137  CA        13.1750  -41.0880   49.1480 C.3   272  ILE272      0.1561
    138  C         14.4130  -41.9790   49.2260 C.2   272  ILE272      0.2260
    139  O         14.3800  -43.1430   48.8250 O.2   272  ILE272     -0.2867
    140  CB        13.1870  -40.2940   47.8260 C.3   272  ILE272      0.0252
    141  CG1       11.9190  -39.4440   47.6990 C.3   272  ILE272      0.0019
    142  CG2       13.3060  -41.2350   46.6350 C.3   272  ILE272      0.0019
    143  CD1       10.6320  -40.2360   47.7700 C.3   272  ILE272      0.0001
    144  N         13.1490  -45.7640   49.6350 N.3   276  SER276     -0.1217
    145  CA        13.2000  -46.3820   48.3150 C.3   276  SER276      0.1889
    146  C         14.3950  -47.3220   48.1810 C.2   276  SER276      0.2288
    147  O         14.3810  -48.2330   47.3540 O.2   276  SER276     -0.2866
    148  CB        13.2330  -45.3180   47.2070 C.3   276  SER276      0.2089
    149  OG        14.5530  -44.9090   46.8750 O.3   276  SER276     -0.2183
    150  N         22.7330  -48.9890   41.1790 N.3   319  TRP319     -0.1241
    151  CA        21.9090  -47.8430   41.5550 C.3   319  TRP319      0.1605
    152  C         22.4250  -47.0640   42.7650 C.2   319  TRP319      0.2264
    153  O         21.8040  -46.0880   43.1800 O.2   319  TRP319     -0.2867
    154  CB        20.4680  -48.2950   41.8140 C.3   319  TRP319      0.0550
    155  CG        19.6880  -48.5620   40.5610 C.ar  319  TRP319      0.0003
    156  CD1       19.2650  -49.7740   40.0980 C.ar  319  TRP319      0.0946
    157  CD2       19.2420  -47.5900   39.6060 C.ar  319  TRP319      0.0152
    158  NE1       18.5800  -49.6170   38.9160 N.ar  319  TRP319     -0.2442
    159  CE2       18.5520  -48.2860   38.5930 C.ar  319  TRP319      0.0810
    160  CE3       19.3570  -46.1980   39.5120 C.ar  319  TRP319      0.0012
    161  CZ2       17.9790  -47.6390   37.4990 C.ar  319  TRP319      0.0191
    162  CZ3       18.7870  -45.5570   38.4240 C.ar  319  TRP319      0.0001
    163  CH2       18.1080  -46.2780   37.4320 C.ar  319  TRP319      0.0015
    164  N         24.0320  -43.4690   41.6990 N.3   322  VAL322     -0.1231
    165  CA        22.9650  -42.5360   41.3560 C.3   322  VAL322      0.1692
    166  C         22.2250  -42.0850   42.6100 C.2   322  VAL322      0.2591
    167  O         21.9530  -40.8990   42.7900 O.2   322  VAL322     -0.2718
    168  CB        21.9520  -43.1730   40.3830 C.3   322  VAL322      0.0266
    169  CG1       20.8290  -42.1960   40.0640 C.3   322  VAL322      0.0020
    170  CG2       22.6490  -43.6290   39.1050 C.3   322  VAL322      0.0020
    171  N         21.9050  -43.0410   43.4760 N.am  323  GLN323     -0.1979
    172  CA        21.1870  -42.7500   44.7110 C.3   323  GLN323      0.1601
    173  C         21.8910  -41.6710   45.5290 C.2   323  GLN323      0.2287
    174  O         21.2540  -40.7370   46.0170 O.2   323  GLN323     -0.2864
    175  CB        21.0390  -44.0240   45.5450 C.3   323  GLN323      0.0394
    176  CG        19.9280  -44.9460   45.0700 C.3   323  GLN323      0.0908
    177  CD        18.5500  -44.4490   45.4610 C.2   323  GLN323      0.2608
    178  OE1       18.4120  -43.4140   46.1160 O.2   323  GLN323     -0.2717
    179  NE2       17.5200  -45.1860   45.0630 N.am  323  GLN323     -0.0878
    180  N         21.9190  -38.1890   43.4720 N.3   326  VAL326     -0.1245
    181  CA        20.5830  -37.6110   43.5570 C.3   326  VAL326      0.1561
    182  C         20.3270  -37.0780   44.9630 C.2   326  VAL326      0.2260
    183  O         19.7410  -36.0070   45.1340 O.2   326  VAL326     -0.2867
    184  CB        19.4970  -38.6440   43.1970 C.3   326  VAL326      0.0252
    185  CG1       18.1120  -38.1150   43.5460 C.3   326  VAL326      0.0019
    186  CG2       19.5770  -39.0060   41.7170 C.3   326  VAL326      0.0019
    187  N         25.7000  -38.5400   33.8850 N.3   345  ARG345     -0.1245
    188  CA        25.0270  -39.1530   32.7460 C.3   345  ARG345      0.1563
    189  C         25.3180  -40.6460   32.6580 C.2   345  ARG345      0.2260
    190  O         24.4350  -41.4380   32.3280 O.2   345  ARG345     -0.2867
    191  CB        25.4590  -38.4790   31.4420 C.3   345  ARG345      0.0307
    192  CG        24.9770  -37.0470   31.2810 C.3   345  ARG345      0.0489
    193  CD        23.4620  -36.9610   31.3080 C.3   345  ARG345      0.2205
    194  NE        22.9870  -35.6300   30.9440 N.pl3 345  ARG345     -0.0865
    195  CZ        21.7070  -35.2700   30.9190 C.cat 345  ARG345      0.5346
    196  NH1       20.7590  -36.1390   31.2420 N.pl3 345  ARG345      0.1354
    197  NH2       21.3750  -34.0340   30.5720 N.pl3 345  ARG345      0.1354
    198  N         23.7850  -42.6090   35.6690 N.3   348  THR348     -0.1218
    199  CA        22.3550  -42.7230   35.4160 C.3   348  THR348      0.1862
    200  C         22.1210  -43.8200   34.3880 C.2   348  THR348      0.2287
    201  O         21.1620  -44.5880   34.4850 O.2   348  THR348     -0.2866
    202  CB        21.7620  -41.4070   34.8830 C.3   348  THR348      0.1770
    203  OG1       21.9460  -40.3660   35.8510 O.3   348  THR348     -0.2211
    204  CG2       20.2750  -41.5700   34.5910 C.3   348  THR348      0.0375
    205  N         20.2510  -47.8070   34.3780 N.3   352  TYR352     -0.1241
    206  CA        19.3360  -48.3290   33.3680 C.3   352  TYR352      0.1605
    207  C         19.8580  -49.6080   32.7230 C.2   352  TYR352      0.2264
    208  O         19.0920  -50.3550   32.1160 O.2   352  TYR352     -0.2867
    209  CB        19.0660  -47.2740   32.2930 C.3   352  TYR352      0.0534
    210  CG        18.1860  -46.1330   32.7600 C.ar  352  TYR352     -0.0201
    211  CD1       17.1200  -46.3580   33.6260 C.ar  352  TYR352     -0.0009
    212  CD2       18.4240  -44.8310   32.3390 C.ar  352  TYR352     -0.0009
    213  CE1       16.3170  -45.3190   34.0550 C.ar  352  TYR352      0.0417
    214  CE2       17.6250  -43.7840   32.7640 C.ar  352  TYR352      0.0417
    215  CZ        16.5730  -44.0340   33.6210 C.ar  352  TYR352      0.1957
    216  OH        15.7770  -42.9980   34.0510 O.3   352  TYR352     -0.2866
@<TRIPOS>BOND
     1    22    23    1
     2    32    33    2
     3    32    31    1
     4     3     4    2
     5     3     2    1
     6    40    41    2
     7    40    39    1
     8    23    24    1
     9    23    26    1
    10     1     2    1
    11    25    24    2
    12    24    30   am
    13    30    31    1
    14     2     5    1
    15     5     6    1
    16    31    34    1
    17    39    38    1
    18    39    42    1
    19    36    34    1
    20    34    35    1
    21    15    16    2
    22    15    14    1
    23    26    27    1
    24    13    14    1
    25     6     8   ar
    26     6     7   ar
    27     8    10   ar
    28    14    17    1
    29    44    43   ar
    30    44    46   ar
    31    42    43    1
    32    43    45   ar
    33    46    47   ar
    34    27    29   ar
    35    27    28   ar
    36    45    47   ar
    37    45    48   ar
    38    47    49   ar
    39    35    37    1
    40    48    50   ar
    41    49    51   ar
    42    50    51   ar
    43     7     9   ar
    44    10    11   ar
    45    17    18    1
    46     9    11   ar
    47   114   112   ar
    48    11    12    1
    49    18    19    1
    50    58    56    1
    51   106   107    1
    52   112   111    1
    53   112   113   ar
    54   111   110    1
    55   107   110    1
    56   107   108    1
    57   197   195    1
    58    19    21   am
    59    19    20    2
    60   195   194    2
    61   195   196    1
    62   194   193    1
    63   108   115   am
    64   108   109    2
    65   115   116    1
    66    56    57    1
    67    56    53    1
    68   119   116    1
    69   119   120    1
    70   192   193    1
    71   192   191    1
    72   191   188    1
    73   116   117    1
    74    52    53    1
    75    53    54    1
    76   208   207    2
    77   209   210    1
    78   209   206    1
    79   190   189    2
    80   212   210   ar
    81   212   214   ar
    82   189   188    1
    83   207   206    1
    84   188   187    1
    85   210   211   ar
    86   214   215   ar
    87   117   118    2
    88   117   121   am
    89   206   205    1
    90    54    55    2
    91    54    59   am
    92   215   216    1
    93   215   213   ar
    94   211   213   ar
    95    59    60    1
    96   121   122    1
    97   200   201    2
    98   200   199    1
    99   204   202    1
   100   202   199    1
   101   202   203    1
   102    64    66    1
   103    64    63    1
   104   128   126    1
   105   199   198    1
   106    60    63    1
   107    60    61    1
   108   126   125    1
   109   126   127    1
   110   122   125    1
   111   122   123    1
   112    63    65    1
   113    67    68    1
   114    71    68    1
   115    71    72    1
   116    61    62    2
   117   124   123    2
   118    73    72   ar
   119    68    69    1
   120    72    74   ar
   121   123   129   am
   122   163   161   ar
   123   163   162   ar
   124   161   159   ar
   125   129   130    1
   126    69    70    2
   127    69    75   am
   128   162   160   ar
   129   159   158   ar
   130   159   157   ar
   131    75    76    1
   132   158   156   ar
   133   170   168    1
   134   130   131    1
   135   130   133    1
   136   135   133    1
   137   160   157   ar
   138   157   155   ar
   139   131   132    2
   140    82    84   ar
   141    82    80   ar
   142    84    85   ar
   143   169   168    1
   144   156   155   ar
   145   133   134    1
   146    76    77    1
   147    76    79    1
   148   168   165    1
   149    87    88    1
   150    77    78    2
   151   155   154    1
   152    94    93    1
   153    79    80    1
   154    80    81   ar
   155   150   151    1
   156    85    86    1
   157    85    83   ar
   158   165   164    1
   159   165   166    1
   160   151   154    1
   161   151   152    1
   162    88    91    1
   163    88    89    1
   164   186   184    1
   165    91    92    1
   166    93    92    1
   167    81    83   ar
   168   166   167    2
   169   166   171   am
   170   152   153    2
   171    89    95   am
   172    89    90    2
   173    95    96    1
   174   184   185    1
   175   184   181    1
   176   180   181    1
   177   171   172    1
   178   181   182    1
   179    97    96    1
   180    97    98    2
   181    96    99    1
   182   102   104   ar
   183   102   100   ar
   184    99   100    1
   185   172   173    1
   186   172   175    1
   187   182   183    2
   188   179   177   am
   189   176   177    1
   190   176   175    1
   191   104   105   ar
   192   100   101   ar
   193   177   178    2
   194   173   174    2
   195   105   103   ar
   196   142   140    1
   197   101   103   ar
   198   149   148    1
   199   148   145    1
   200   147   146    2
   201   141   143    1
   202   141   140    1
   203   140   137    1
   204   146   145    1
   205   145   144    1
   206   139   138    2
   207   137   138    1
   208   137   136    1
