@<TRIPOS>MOLECULE
tmp/4ea8A01.pdb
 166 159 0 0 0
SMALL
GASTEIGER

@<TRIPOS>ATOM
      1  N          0.5280  -37.6630   13.6330 N.3    11  ILE11      -0.1231
      2  CA         0.1760  -39.0000   14.1160 C.3    11  ILE11       0.1692
      3  C         -1.3390  -39.0860   14.1690 C.2    11  ILE11       0.2593
      4  O         -1.9850  -38.3420   14.9310 O.2    11  ILE11      -0.2718
      5  CB         0.8220  -39.2930   15.4900 C.3    11  ILE11       0.0266
      6  CG1        2.3480  -39.3260   15.3740 C.3    11  ILE11       0.0019
      7  CG2        0.2800  -40.5640   16.0840 C.3    11  ILE11       0.0020
      8  CD1        3.0470  -39.6270   16.7130 C.3    11  ILE11       0.0001
      9  N         -1.9030  -40.0090   13.3910 N.am   12  GLY12      -0.1942
     10  CA        -3.3500  -40.2060   13.3020 C.3    12  GLY12       0.2014
     11  C         -3.9090  -39.6640   11.9830 C.2    12  GLY12       0.2639
     12  O         -3.5470  -38.5720   11.5510 O.2    12  GLY12      -0.2714
     13  N         -4.8340  -40.4550   11.4020 N.am   13  GLY13      -0.1939
     14  CA        -5.4120  -40.1420   10.0970 C.3    13  GLY13       0.2014
     15  C         -6.9220  -40.2330   10.0020 C.2    13  GLY13       0.2639
     16  O         -7.4910  -40.4730    8.9570 O.2    13  GLY13      -0.2714
     17  N         -7.5910  -40.0330   11.1390 N.am   14  GLY14      -0.1939
     18  CA        -9.0270  -40.1040   11.2630 C.3    14  GLY14       0.2014
     19  C         -9.7240  -38.7460   11.1530 C.2    14  GLY14       0.2639
     20  O         -9.2150  -37.7650   10.6070 O.2    14  GLY14      -0.2714
     21  N        -10.9780  -38.6970   11.6210 N.am   15  GLY15      -0.1939
     22  CA       -11.7690  -37.4840   11.5510 C.3    15  GLY15       0.2014
     23  C        -11.1610  -36.2800   12.2750 C.2    15  GLY15       0.2639
     24  O        -11.1770  -35.1330   11.8200 O.2    15  GLY15      -0.2714
     25  N        -10.6030  -36.5840   13.4780 N.am   16  HIS16      -0.1959
     26  CA        -9.9390  -35.5060   14.2320 C.3    16  HIS16       0.1787
     27  C         -8.7410  -34.9370   13.4480 C.2    16  HIS16       0.2620
     28  O         -8.5370  -33.7220   13.4000 O.2    16  HIS16      -0.2715
     29  CB        -9.5200  -36.0590   15.5820 C.3    16  HIS16       0.0785
     30  CG        -8.9590  -35.0890   16.5320 C.ar   16  HIS16       0.0821
     31  ND1       -9.6700  -34.0860   17.0740 N.ar   16  HIS16      -0.2267
     32  CD2       -7.7070  -35.0420   17.0750 C.ar   16  HIS16       0.1154
     33  CE1       -8.8460  -33.4650   17.8880 C.ar   16  HIS16       0.1986
     34  NE2       -7.6270  -33.9790   17.9340 N.ar   16  HIS16      -0.2212
     35  N         -7.9590  -35.8300   12.8200 N.am   17  ALA17      -0.1977
     36  CA        -6.8820  -35.3870   11.9570 C.3    17  ALA17       0.1597
     37  C         -7.3480  -34.4550   10.8440 C.2    17  ALA17       0.2287
     38  O         -6.6460  -33.4890   10.5100 O.2    17  ALA17      -0.2864
     39  CB        -6.1110  -36.5720   11.3620 C.3    17  ALA17       0.0319
     40  N         -9.7110  -32.2760   10.8730 N.3    19  VAL19      -0.1245
     41  CA        -9.9500  -30.9430   11.4250 C.3    19  VAL19       0.1561
     42  C         -8.6220  -30.2810   11.7520 C.2    19  VAL19       0.2260
     43  O         -8.4170  -29.0760   11.4910 O.2    19  VAL19      -0.2867
     44  CB       -10.9070  -31.0320   12.6440 C.3    19  VAL19       0.0252
     45  CG1      -11.1600  -29.6510   13.2190 C.3    19  VAL19       0.0019
     46  CG2      -12.2080  -31.7130   12.2090 C.3    19  VAL19       0.0019
     47  N          1.3350  -40.6240    9.8350 N.3    35  VAL35      -0.1231
     48  CA         1.5730  -42.0250   10.2630 C.3    35  VAL35       0.1692
     49  C          0.2850  -42.5200   10.9300 C.2    35  VAL35       0.2592
     50  O         -0.2860  -41.8310   11.7980 O.2    35  VAL35      -0.2718
     51  CB         2.8220  -42.3010   11.0990 C.3    35  VAL35       0.0266
     52  CG1        4.0640  -42.0110   10.2510 C.3    35  VAL35       0.0020
     53  CG2        2.8300  -41.4790   12.3290 C.3    35  VAL35       0.0020
     54  N         -0.1640  -43.7210   10.5500 N.am   36  ASP36      -0.1960
     55  CA        -1.4290  -44.2600   10.9780 C.3    36  ASP36       0.1840
     56  C         -1.2950  -45.7350   11.2430 C.2    36  ASP36       0.2622
     57  O         -0.6060  -46.4300   10.4690 O.2    36  ASP36      -0.2715
     58  CB        -2.5790  -43.9740    9.9730 C.3    36  ASP36       0.1450
     59  CG        -3.9350  -44.2300   10.5790 C.2    36  ASP36       0.3671
     60  OD1       -4.5540  -43.2960   11.1240 O.co2  36  ASP36      -0.2456
     61  OD2       -4.3900  -45.3840   10.5190 O.co2  36  ASP36      -0.2456
     62  N         -1.9660  -46.2850   12.2490 N.am   37  ALA37      -0.1963
     63  CA        -1.8640  -47.6790   12.5820 C.3    37  ALA37       0.1728
     64  C         -2.4350  -48.5770   11.5170 C.2    37  ALA37       0.2613
     65  O         -2.1310  -49.7440   11.4490 O.2    37  ALA37      -0.2715
     66  CB        -2.6250  -47.9510   13.8760 C.3    37  ALA37       0.0334
     67  N         -3.3220  -48.0360   10.6960 N.am   38  ASP38      -0.2025
     68  CA        -3.6100  -48.7120    9.4440 C.3    38  ASP38       0.1395
     69  C         -2.6110  -48.1730    8.4170 C.3    38  ASP38       0.2041
     70  O         -3.0460  -47.1890    7.8450 O.3    38  ASP38      -0.2185
     71  CB        -5.0600  -48.3860    9.1150 C.3    38  ASP38       0.1383
     72  CG        -5.4340  -49.0030    7.7750 C.2    38  ASP38       0.3667
     73  OD1       -6.6400  -48.9120    7.3900 O.co2  38  ASP38      -0.2456
     74  OD2       -4.5530  -49.6210    7.1270 O.co2  38  ASP38      -0.2456
     75  N          3.6190  -46.0730   13.0710 N.3    50  ASP50      -0.1239
     76  CA         4.5400  -45.3170   13.9260 C.3    50  ASP50       0.1674
     77  C          5.9920  -45.7810   13.7660 C.2    50  ASP50       0.2266
     78  O          6.9380  -45.0510   14.1460 O.2    50  ASP50      -0.2867
     79  CB         4.1110  -45.3850   15.3890 C.3    50  ASP50       0.1410
     80  CG         2.7910  -44.6690   15.6680 C.2    50  ASP50       0.3668
     81  OD1        1.9640  -45.1670   16.4880 O.co2  50  ASP50      -0.2456
     82  OD2        2.5270  -43.6180   15.0420 O.co2  50  ASP50      -0.2456
     83  N         -2.8060  -36.1480   16.3900 N.3    67  ALA67      -0.1231
     84  CA        -4.2140  -35.9990   16.0680 C.3    67  ALA67       0.1694
     85  C         -4.9780  -37.3060   16.3720 C.2    67  ALA67       0.2592
     86  O         -5.4570  -37.9920   15.5000 O.2    67  ALA67      -0.2718
     87  CB        -4.4070  -35.5320   14.6140 C.3    67  ALA67       0.0304
     88  N         -5.0290  -37.6090   17.6500 N.am   68  ILE68      -0.1966
     89  CA        -5.6690  -38.8010   18.1780 C.3    68  ILE68       0.1727
     90  C         -6.6760  -38.3610   19.2580 C.2    68  ILE68       0.2617
     91  O         -6.2640  -37.6800   20.2130 O.2    68  ILE68      -0.2715
     92  CB        -4.6310  -39.7640   18.8020 C.3    68  ILE68       0.0290
     93  CG1       -3.6310  -40.3040   17.7130 C.3    68  ILE68       0.0022
     94  CG2       -5.2830  -40.8620   19.6280 C.3    68  ILE68       0.0023
     95  CD1       -4.2290  -41.3600   16.8500 C.3    68  ILE68       0.0001
     96  N         -7.9290  -38.6890   19.1120 N.am   69  GLY69      -0.1940
     97  CA        -8.9390  -38.2440   20.0440 C.3    69  GLY69       0.2014
     98  C         -8.8190  -38.8470   21.4390 C.2    69  GLY69       0.2638
     99  O         -9.0930  -38.1730   22.4350 O.2    69  GLY69      -0.2714
    100  N         -8.4630  -40.1230   21.5300 N.am   70  ASP70      -0.1971
    101  CA        -8.3980  -40.8120   22.8120 C.3    70  ASP70       0.1709
    102  C         -7.3220  -40.1800   23.6620 C.2    70  ASP70       0.2293
    103  O         -6.1450  -40.1180   23.2530 O.2    70  ASP70      -0.2864
    104  CB        -8.1190  -42.3170   22.6160 C.3    70  ASP70       0.1436
    105  CG        -8.0790  -43.0030   23.9690 C.2    70  ASP70       0.3671
    106  OD1       -7.0040  -43.1410   24.6220 O.co2  70  ASP70      -0.2456
    107  OD2       -9.1780  -43.3640   24.3980 O.co2  70  ASP70      -0.2456
    108  N         -4.1560  -42.4240   24.9390 N.3    73  LEU73      -0.1245
    109  CA        -3.3160  -42.7900   23.7910 C.3    73  LEU73       0.1561
    110  C         -2.5670  -41.5940   23.2270 C.2    73  LEU73       0.2260
    111  O         -1.3530  -41.6400   22.8970 O.2    73  LEU73      -0.2867
    112  CB        -4.1560  -43.5210   22.7730 C.3    73  LEU73       0.0270
    113  CG        -3.4480  -43.9760   21.4960 C.3    73  LEU73       0.0019
    114  CD1       -2.3750  -45.0040   21.8540 C.3    73  LEU73       0.0001
    115  CD2       -4.4420  -44.5590   20.4830 C.3    73  LEU73       0.0001
    116  N          1.4560  -41.2260   22.7730 N.3    77  LEU77      -0.1245
    117  CA         2.0850  -40.9730   21.4630 C.3    77  LEU77       0.1561
    118  C          2.8390  -39.6680   21.4330 C.2    77  LEU77       0.2260
    119  O          3.8540  -39.5550   20.7210 O.2    77  LEU77      -0.2867
    120  CB         0.9960  -41.0690   20.3690 C.3    77  LEU77       0.0270
    121  CG         0.4620  -42.4710   20.0970 C.3    77  LEU77       0.0019
    122  CD1       -0.8190  -42.4000   19.2740 C.3    77  LEU77       0.0001
    123  CD2        1.5270  -43.3090   19.3940 C.3    77  LEU77       0.0001
    124  N        -12.0860  -28.0380   21.7030 N.3   129  ASN129     -0.1225
    125  CA       -12.7500  -28.3630   20.4380 C.3   129  ASN129      0.1785
    126  C        -13.7210  -27.2760   20.0060 C.2   129  ASN129      0.2597
    127  O        -13.8840  -26.2410   20.6570 O.2   129  ASN129     -0.2718
    128  CB       -13.3720  -29.7610   20.5270 C.3   129  ASN129      0.1169
    129  CG       -13.1780  -30.6060   19.2660 C.2   129  ASN129      0.2627
    130  OD1      -13.2320  -30.0630   18.1420 O.2   129  ASN129     -0.2716
    131  ND2      -12.9930  -31.8880   19.4290 N.am  129  ASN129     -0.0877
    132  N        -14.3500  -27.4890   18.8650 N.am  130  THR130     -0.1953
    133  CA       -14.9760  -26.4470   18.0590 C.3   130  THR130      0.1897
    134  C        -15.9990  -25.6650   18.8640 C.2   130  THR130      0.2313
    135  O        -16.9430  -26.2200   19.4460 O.2   130  THR130     -0.2863
    136  CB       -15.6890  -27.0830   16.8390 C.3   130  THR130      0.1794
    137  OG1      -14.7960  -28.0490   16.2290 O.3   130  THR130     -0.2208
    138  CG2      -16.0800  -26.0750   15.8110 C.3   130  THR130      0.0378
    139  N         -9.7100  -32.9710   27.2520 N.3   145  HIS145     -0.1241
    140  CA       -10.4740  -32.6890   26.0320 C.3   145  HIS145      0.1621
    141  C        -11.7790  -31.9910   26.4290 C.2   145  HIS145      0.2264
    142  O        -12.6380  -32.5860   27.1110 O.2   145  HIS145     -0.2867
    143  CB       -10.7540  -33.9790   25.2720 C.3   145  HIS145      0.0745
    144  CG       -11.5300  -33.8020   23.9940 C.ar  145  HIS145      0.0817
    145  ND1      -11.9190  -34.8830   23.2390 N.ar  145  HIS145     -0.2268
    146  CD2      -11.9810  -32.7270   23.2810 C.ar  145  HIS145      0.1154
    147  CE1      -12.5620  -34.4530   22.1570 C.ar  145  HIS145      0.1986
    148  NE2      -12.6230  -33.1480   22.1360 N.ar  145  HIS145     -0.2212
    149  N        -16.8080  -30.1250   21.5920 N.3   148  PRO148     -0.2116
    150  CA       -17.4300  -29.0070   20.8800 C.3   148  PRO148      0.1372
    151  C        -18.5010  -28.3520   21.6940 C.2   148  PRO148      0.2244
    152  O        -19.3310  -29.0110   22.3340 O.2   148  PRO148     -0.2868
    153  CB       -17.9640  -29.6580   19.5990 C.3   148  PRO148      0.0268
    154  CG       -17.1590  -30.9080   19.4130 C.3   148  PRO148      0.0207
    155  CD       -16.8380  -31.3680   20.8260 C.3   148  PRO148      0.0892
    156  N        -12.4840  -35.6460   30.0980 N.3   163  PHE163     -0.1241
    157  CA       -13.2180  -35.4390   28.8430 C.3   163  PHE163      0.1605
    158  C        -14.5850  -34.8770   29.1220 C.2   163  PHE163      0.2264
    159  O        -15.3560  -35.4520   29.8890 O.2   163  PHE163     -0.2867
    160  CB       -13.3300  -36.7920   28.1180 C.3   163  PHE163      0.0534
    161  CG       -14.2080  -36.7780   26.8760 C.ar  163  PHE163     -0.0203
    162  CD1      -14.0960  -35.7880   25.8910 C.ar  163  PHE163     -0.0042
    163  CD2      -15.1480  -37.6890   26.6610 C.ar  163  PHE163     -0.0042
    164  CE1      -14.8860  -35.7940   24.7810 C.ar  163  PHE163     -0.0003
    165  CE2      -15.9680  -37.6950   25.5490 C.ar  163  PHE163     -0.0003
    166  CZ       -15.8500  -36.7280   24.6050 C.ar  163  PHE163     -0.0000
@<TRIPOS>BOND
     1    74    72   ar
     2    73    72   ar
     3    72    71    1
     4    70    69    1
     5    69    68    1
     6    16    15    2
     7    71    68    1
     8    68    67    1
     9    47    48    1
    10    58    59    1
    11    58    55    1
    12    15    14    1
    13    15    17   am
    14    14    13    1
    15    52    51    1
    16    48    49    1
    17    48    51    1
    18    57    56    2
    19    38    37    2
    20    61    59   ar
    21    54    49   am
    22    54    55    1
    23    59    60   ar
    24    20    19    2
    25    67    64   am
    26    37    36    1
    27    40    41    1
    28    49    50    2
    29    55    56    1
    30    51    53    1
    31    17    18    1
    32    19    18    1
    33    19    21   am
    34    56    62   am
    35    39    36    1
    36    13    11   am
    37    41    42    1
    38    41    44    1
    39    65    64    2
    40    43    42    2
    41    64    63    1
    42    22    21    1
    43    22    23    1
    44    12    11    2
    45    24    23    2
    46    36    35    1
    47    11    10    1
    48    46    44    1
    49    62    63    1
    50    23    25   am
    51    63    66    1
    52    44    45    1
    53    35    27   am
    54    75    76    1
    55    10     9    1
    56     9     3   am
    57    28    27    2
    58    27    26    1
    59    25    26    1
    60     1     2    1
    61    77    76    1
    62    77    78    2
    63    76    79    1
    64     2     3    1
    65     2     5    1
    66     3     4    2
    67    26    29    1
    68    87    84    1
    69    82    80   ar
    70     6     5    1
    71     6     8    1
    72    79    80    1
    73     5     7    1
    74    86    85    2
    75    29    30    1
    76    80    81   ar
    77   138   136    1
    78    84    85    1
    79    84    83    1
    80   137   136    1
    81    85    88   am
    82    30    31   ar
    83    30    32   ar
    84   136   133    1
    85    95    93    1
    86    31    33   ar
    87    32    34   ar
    88    88    89    1
    89    93    92    1
    90    33    34   ar
    91   133   134    1
    92   133   132    1
    93   130   129    2
    94    89    92    1
    95    89    90    1
    96    92    94    1
    97   134   135    2
    98   132   126   am
    99    96    90   am
   100    96    97    1
   101    90    91    2
   102   129   131   am
   103   129   128    1
   104   122   121    1
   105   123   121    1
   106   154   153    1
   107   154   155    1
   108   153   150    1
   109   126   125    1
   110   126   127    2
   111    97    98    1
   112   121   120    1
   113   120   117    1
   114   125   128    1
   115   125   124    1
   116   115   113    1
   117   119   118    2
   118   155   149    1
   119   150   149    1
   120   150   151    1
   121   118   117    1
   122    98   100   am
   123    98    99    2
   124   117   116    1
   125   113   114    1
   126   113   112    1
   127   100   101    1
   128   151   152    2
   129   148   147   ar
   130   148   146   ar
   131   147   145   ar
   132   104   101    1
   133   104   105    1
   134   112   109    1
   135   101   102    1
   136   111   110    2
   137   110   109    1
   138   145   144   ar
   139   103   102    2
   140   146   144   ar
   141   109   108    1
   142   105   107   ar
   143   105   106   ar
   144   144   143    1
   145   166   164   ar
   146   166   165   ar
   147   164   162   ar
   148   143   140    1
   149   165   163   ar
   150   162   161   ar
   151   140   141    1
   152   140   139    1
   153   141   142    2
   154   163   161   ar
   155   161   160    1
   156   160   157    1
   157   157   158    1
   158   157   156    1
   159   158   159    2
