@<TRIPOS>MOLECULE
tmp/4eabA01.pdb
 93 86 0 0 0
SMALL
GASTEIGER

@<TRIPOS>ATOM
      1  N         27.9300  -11.9960   21.6780 N.3   131  ASN131     -0.1240
      2  CA        28.2130  -12.6470   20.3970 C.3   131  ASN131      0.1653
      3  C         27.0990  -13.5860   19.9490 C.2   131  ASN131      0.2266
      4  O         26.0950  -13.7950   20.6270 O.2   131  ASN131     -0.2867
      5  CB        29.5680  -13.3860   20.4840 C.3   131  ASN131      0.1155
      6  CG        30.4770  -13.0860   19.2860 C.2   131  ASN131      0.2627
      7  OD1       31.7030  -12.8880   19.4160 O.2   131  ASN131     -0.2716
      8  ND2       29.8960  -13.1500   18.1090 N.am  131  ASN131     -0.0877
      9  N         32.8260   -9.6810   27.2060 N.3   147  HIS147     -0.1241
     10  CA        32.5660  -10.4290   25.9720 C.3   147  HIS147      0.1621
     11  C         31.8590  -11.7080   26.3350 C.2   147  HIS147      0.2264
     12  O         32.5140  -12.5440   26.9900 O.2   147  HIS147     -0.2867
     13  CB        33.8580  -10.6820   25.1820 C.3   147  HIS147      0.0745
     14  CG        33.6630  -11.4400   23.8910 C.ar  147  HIS147      0.0817
     15  ND1       34.7340  -11.8910   23.1560 N.ar  147  HIS147     -0.2268
     16  CD2       32.5500  -11.8670   23.2350 C.ar  147  HIS147      0.1154
     17  CE1       34.2950  -12.5380   22.0820 C.ar  147  HIS147      0.1986
     18  NE2       32.9720  -12.5500   22.1240 N.ar  147  HIS147     -0.2212
     19  N         30.0610  -16.6800   21.5520 N.3   150  PRO150     -0.2116
     20  CA        28.9300  -17.3000   20.8350 C.3   150  PRO150      0.1372
     21  C         28.2980  -18.4170   21.6520 C.2   150  PRO150      0.2244
     22  O         28.9650  -19.2330   22.3110 O.2   150  PRO150     -0.2868
     23  CB        29.5860  -17.8540   19.5760 C.3   150  PRO150      0.0268
     24  CG        30.8450  -17.0060   19.3520 C.3   150  PRO150      0.0207
     25  CD        31.3110  -16.6710   20.7700 C.3   150  PRO150      0.0892
     26  N         35.5360  -12.4170   30.0220 N.3   165  PHE165     -0.1241
     27  CA        35.3300  -13.1220   28.7690 C.3   165  PHE165      0.1605
     28  C         34.7210  -14.4810   29.0620 C.2   165  PHE165      0.2264
     29  O         35.2780  -15.2510   29.8600 O.2   165  PHE165     -0.2867
     30  CB        36.6580  -13.3400   28.0490 C.3   165  PHE165      0.0534
     31  CG        36.5690  -14.1990   26.8050 C.ar  165  PHE165     -0.0203
     32  CD1       35.5760  -13.9980   25.8480 C.ar  165  PHE165     -0.0042
     33  CD2       37.4780  -15.2200   26.6130 C.ar  165  PHE165     -0.0042
     34  CE1       35.5330  -14.8170   24.7300 C.ar  165  PHE165     -0.0003
     35  CE2       37.4290  -16.0330   25.4880 C.ar  165  PHE165     -0.0003
     36  CZ        36.4670  -15.8260   24.5630 C.ar  165  PHE165     -0.0000
     37  N         33.7970  -17.9430   27.1070 N.3   167  GLY167     -0.1210
     38  CA        34.0150  -18.6770   25.8720 C.3   167  GLY167      0.1956
     39  C         32.7560  -19.2700   25.2640 C.2   167  GLY167      0.2611
     40  O         31.6810  -19.2640   25.8820 O.2   167  GLY167     -0.2717
     41  N         32.9070  -19.7800   24.0390 N.am  168  VAL168     -0.1979
     42  CA        31.7540  -20.3650   23.3510 C.3   168  VAL168      0.1595
     43  C         31.0130  -21.3710   24.2160 C.2   168  VAL168      0.2287
     44  O         31.5970  -22.2900   24.8070 O.2   168  VAL168     -0.2864
     45  CB        32.1950  -20.9420   21.9760 C.3   168  VAL168      0.0276
     46  CG1       33.2530  -22.0570   22.1370 C.3   168  VAL168      0.0022
     47  CG2       30.9980  -21.5170   21.2180 C.3   168  VAL168      0.0022
     48  N         38.2180  -15.0700   32.9090 N.3   183  ILE183     -0.1245
     49  CA        37.9450  -15.8580   31.6960 C.3   183  ILE183      0.1561
     50  C         37.2380  -17.1370   32.1250 C.2   183  ILE183      0.2260
     51  O         37.7650  -17.8540   32.9850 O.2   183  ILE183     -0.2867
     52  CB        39.2420  -16.2320   30.9680 C.3   183  ILE183      0.0252
     53  CG1       39.9660  -14.9480   30.5290 C.3   183  ILE183      0.0019
     54  CG2       38.9570  -17.1990   29.7760 C.3   183  ILE183      0.0019
     55  CD1       41.3470  -15.1920   29.9010 C.3   183  ILE183      0.0001
     56  N         36.3190  -20.6440   30.4210 N.3   185  GLY185     -0.1210
     57  CA        36.5260  -21.4130   29.1860 C.3   185  GLY185      0.1956
     58  C         35.2590  -21.8340   28.4520 C.2   185  GLY185      0.2611
     59  O         34.1810  -21.8760   29.0240 O.2   185  GLY185     -0.2717
     60  N         35.4600  -22.1630   27.1840 N.am  186  ALA186     -0.1979
     61  CA        34.3760  -22.7110   26.3910 C.3   186  ALA186      0.1597
     62  C         33.6820  -23.8180   27.1570 C.2   186  ALA186      0.2287
     63  O         34.3180  -24.7010   27.7510 O.2   186  ALA186     -0.2864
     64  CB        34.9420  -23.2520   25.0800 C.3   186  ALA186      0.0319
     65  N         40.8730  -17.7540   35.7380 N.3   199  LEU199     -0.1245
     66  CA        40.4610  -18.5860   34.6200 C.3   199  LEU199      0.1561
     67  C         39.6870  -19.7390   35.2290 C.2   199  LEU199      0.2260
     68  O         40.2340  -20.4020   36.1140 O.2   199  LEU199     -0.2867
     69  CB        41.6640  -19.1400   33.8450 C.3   199  LEU199      0.0270
     70  CG        41.3870  -20.3010   32.8800 C.3   199  LEU199      0.0019
     71  CD1       40.4630  -19.8380   31.7530 C.3   199  LEU199      0.0001
     72  CD2       42.7140  -20.8490   32.3020 C.3   199  LEU199      0.0001
     73  N         37.2910  -23.2840   34.2390 N.3   201  ILE201     -0.1231
     74  CA        36.9320  -24.2460   33.1950 C.3   201  ILE201      0.1692
     75  C         36.2380  -25.4480   33.8020 C.2   201  ILE201      0.2592
     76  O         36.5090  -25.8370   34.9550 O.2   201  ILE201     -0.2718
     77  CB        38.1570  -24.7600   32.3910 C.3   201  ILE201      0.0266
     78  CG1       39.2170  -25.3050   33.3540 C.3   201  ILE201      0.0019
     79  CG2       38.7420  -23.6300   31.5470 C.3   201  ILE201      0.0020
     80  CD1       40.3830  -26.0150   32.6500 C.3   201  ILE201      0.0001
     81  N         35.3510  -26.0590   33.0220 N.am  202  GLY202     -0.1957
     82  CA        34.7470  -27.3340   33.3690 C.3   202  GLY202      0.1869
     83  C         33.2660  -27.2030   33.6530 C.2   202  GLY202      0.2309
     84  O         32.6660  -26.1110   33.6570 O.2   202  GLY202     -0.2863
     85  N         41.4600  -22.5120   37.6200 N.3   208  LYS208     -0.1245
     86  CA        42.6880  -23.1920   37.2290 C.3   208  LYS208      0.1561
     87  C         43.8190  -22.2370   37.5760 C.2   208  LYS208      0.2260
     88  O         43.9120  -21.1440   36.9900 O.2   208  LYS208     -0.2867
     89  CB        42.7060  -23.4490   35.7160 C.3   208  LYS208      0.0271
     90  CG        43.7640  -24.4300   35.2730 C.3   208  LYS208      0.0035
     91  CD        45.0980  -23.7630   35.0030 C.3   208  LYS208      0.0206
     92  CE        45.5820  -24.0920   33.5870 C.3   208  LYS208      0.1093
     93  NZ        44.9690  -25.3620   33.0850 N.3   208  LYS208     -0.1314
@<TRIPOS>BOND
     1     8     6   am
     2     6     7    2
     3     6     5    1
     4    24    23    1
     5    24    25    1
     6    23    20    1
     7     3     2    1
     8     3     4    2
     9     2     5    1
    10     2     1    1
    11    25    19    1
    12    20    19    1
    13    20    21    1
    14    47    45    1
    15    21    22    2
    16    45    46    1
    17    45    42    1
    18    17    18   ar
    19    17    15   ar
    20    18    16   ar
    21    15    14   ar
    22    16    14   ar
    23    42    41    1
    24    42    43    1
    25    14    13    1
    26    41    39   am
    27    43    44    2
    28    36    34   ar
    29    36    35   ar
    30    34    32   ar
    31    64    61    1
    32    13    10    1
    33    39    38    1
    34    39    40    2
    35    35    33   ar
    36    32    31   ar
    37    38    37    1
    38    10    11    1
    39    10     9    1
    40    11    12    2
    41    61    62    1
    42    61    60    1
    43    33    31   ar
    44    31    30    1
    45    62    63    2
    46    60    58   am
    47    30    27    1
    48    58    59    2
    49    58    57    1
    50    27    28    1
    51    27    26    1
    52    28    29    2
    53    57    56    1
    54    54    52    1
    55    55    53    1
    56    53    52    1
    57    52    49    1
    58    79    77    1
    59    49    50    1
    60    49    48    1
    61    71    70    1
    62    50    51    2
    63    72    70    1
    64    77    74    1
    65    77    78    1
    66    80    78    1
    67    70    69    1
    68    81    82    1
    69    81    75   am
    70    93    92    1
    71    74    75    1
    72    74    73    1
    73    82    83    1
    74    92    91    1
    75    83    84    2
    76    75    76    2
    77    69    66    1
    78    66    67    1
    79    66    65    1
    80    91    90    1
    81    67    68    2
    82    90    89    1
    83    89    86    1
    84    88    87    2
    85    86    87    1
    86    86    85    1
