@<TRIPOS>MOLECULE
tmp/4eabA00.pdb
 153 145 0 0 0
SMALL
GASTEIGER

@<TRIPOS>ATOM
      1  N         37.4810    0.4810   13.6350 N.3    11  ILE11      -0.1231
      2  CA        38.8380    0.1540   14.0880 C.3    11  ILE11       0.1692
      3  C         38.9250   -1.3720   14.1700 C.2    11  ILE11       0.2593
      4  O         38.1990   -2.0340   14.9400 O.2    11  ILE11      -0.2718
      5  CB        39.0940    0.8140   15.4650 C.3    11  ILE11       0.0266
      6  CG1       39.2100    2.3420   15.3350 C.3    11  ILE11       0.0019
      7  CG2       40.3680    0.2390   16.0720 C.3    11  ILE11       0.0020
      8  CD1       39.4890    3.0620   16.6630 C.3    11  ILE11       0.0001
      9  N         39.8300   -1.9580   13.3920 N.am   12  GLY12      -0.1942
     10  CA        40.0440   -3.3950   13.3060 C.3    12  GLY12       0.2014
     11  C         39.5020   -3.9680   12.0100 C.2    12  GLY12       0.2639
     12  O         38.4670   -3.5960   11.5010 O.2    12  GLY12      -0.2714
     13  N         40.2790   -4.8920   11.4570 N.am   13  GLY13      -0.1939
     14  CA        39.9760   -5.4500   10.1420 C.3    13  GLY13       0.2014
     15  C         40.0770   -6.9680   10.1230 C.2    13  GLY13       0.2639
     16  O         40.3330   -7.5420    9.0540 O.2    13  GLY13      -0.2714
     17  N         39.7900   -7.6180   11.2500 N.am   14  GLY14      -0.1939
     18  CA        39.8280   -9.0740   11.3810 C.3    14  GLY14       0.2014
     19  C         38.4760   -9.7630   11.1990 C.2    14  GLY14       0.2639
     20  O         37.5170   -9.1780   10.6750 O.2    14  GLY14      -0.2714
     21  N         38.4060  -10.9940   11.6880 N.am   15  GLY15      -0.1939
     22  CA        37.1920  -11.7910   11.6060 C.3    15  GLY15       0.2014
     23  C         36.0330  -11.1560   12.3760 C.2    15  GLY15       0.2639
     24  O         34.8840  -11.1550   11.9290 O.2    15  GLY15      -0.2714
     25  N         36.3670  -10.5280   13.5070 N.am   16  HIS16      -0.1959
     26  CA        35.3120   -9.8630   14.2550 C.3    16  HIS16       0.1787
     27  C         34.7660   -8.6720   13.4380 C.2    16  HIS16       0.2620
     28  O         33.5650   -8.4180   13.3890 O.2    16  HIS16      -0.2715
     29  CB        35.9370   -9.4440   15.5930 C.3    16  HIS16       0.0785
     30  CG        34.9650   -8.8110   16.5320 C.ar   16  HIS16       0.0821
     31  ND1       33.8560   -9.4830   17.0090 N.ar   16  HIS16      -0.2267
     32  CD2       34.9640   -7.5930   17.1160 C.ar   16  HIS16       0.1154
     33  CE1       33.1950   -8.6760   17.8260 C.ar   16  HIS16       0.1986
     34  NE2       33.8580   -7.5360   17.9240 N.ar   16  HIS16      -0.2212
     35  N         35.6880   -7.8900   12.8700 N.am   17  ALA17      -0.1977
     36  CA        35.2220   -6.8300   11.9850 C.3    17  ALA17       0.1597
     37  C         34.2950   -7.3330   10.8860 C.2    17  ALA17       0.2287
     38  O         33.3570   -6.6200   10.5440 O.2    17  ALA17      -0.2864
     39  CB        36.4130   -6.0570   11.3860 C.3    17  ALA17       0.0319
     40  N         40.4660    1.3070    9.8570 N.3    35  VAL35      -0.1231
     41  CA        41.8400    1.5260   10.2810 C.3    35  VAL35       0.1692
     42  C         42.3350    0.2660   10.9750 C.2    35  VAL35       0.2592
     43  O         41.6680   -0.3270   11.8320 O.2    35  VAL35      -0.2718
     44  CB        42.0450    2.8090   11.1310 C.3    35  VAL35       0.0266
     45  CG1       41.7360    4.0300   10.2590 C.3    35  VAL35       0.0020
     46  CG2       41.1100    2.8430   12.3320 C.3    35  VAL35       0.0020
     47  N         43.5160   -0.1830   10.5820 N.am   36  ASP36      -0.1960
     48  CA        44.0750   -1.4330   11.0850 C.3    36  ASP36       0.1840
     49  C         45.5700   -1.2780   11.3300 C.2    36  ASP36       0.2622
     50  O         46.2420   -0.5880   10.5580 O.2    36  ASP36      -0.2715
     51  CB        43.8120   -2.5530   10.0740 C.3    36  ASP36       0.1450
     52  CG        44.1120   -3.9290   10.6400 C.2    36  ASP36       0.3671
     53  OD1       43.1940   -4.6030   11.1570 O.co2  36  ASP36      -0.2456
     54  OD2       45.2810   -4.3520   10.6180 O.co2  36  ASP36      -0.2456
     55  N         46.0620   -1.8750   12.4100 N.am   37  ALA37      -0.1963
     56  CA        47.4650   -1.7460   12.8090 C.3    37  ALA37       0.1728
     57  C         48.3860   -2.2980   11.7290 C.2    37  ALA37       0.2616
     58  O         49.5610   -1.9260   11.6710 O.2    37  ALA37      -0.2715
     59  CB        47.7360   -2.4640   14.1160 C.3    37  ALA37       0.0334
     60  N         47.8640   -3.1660   10.8760 N.am   38  ASP38      -0.1971
     61  CA        48.5670   -3.4480    9.6400 C.3    38  ASP38       0.1709
     62  C         48.0470   -2.5570    8.5160 C.2    38  ASP38       0.2293
     63  O         47.0460   -2.8960    7.8880 O.2    38  ASP38      -0.2864
     64  CB        48.3510   -4.9000    9.2300 C.3    38  ASP38       0.1436
     65  CG        49.0210   -5.2070    7.9080 C.2    38  ASP38       0.3671
     66  OD1       49.6340   -4.2630    7.3520 O.co2  38  ASP38      -0.2456
     67  OD2       48.9170   -6.3630    7.4510 O.co2  38  ASP38      -0.2456
     68  N         44.3880   -2.6850    1.4540 N.3    41  ARG41      -0.1245
     69  CA        43.4880   -3.7970    1.2170 C.3    41  ARG41       0.1563
     70  C         42.0590   -3.4410    1.6150 C.2    41  ARG41       0.2260
     71  O         41.6520   -2.2780    1.7070 O.2    41  ARG41      -0.2867
     72  CB        43.9500   -4.9730    2.0700 C.3    41  ARG41       0.0307
     73  CG        44.3290   -4.5840    3.4900 C.3    41  ARG41       0.0489
     74  CD        44.7660   -5.8580    4.2190 C.3    41  ARG41       0.2205
     75  NE        44.5010   -5.9120    5.6590 N.pl3  41  ARG41      -0.0865
     76  CZ        45.0880   -5.1370    6.5690 C.cat  41  ARG41       0.5346
     77  NH1       45.9600   -4.2100    6.1870 N.pl3  41  ARG41       0.1354
     78  NH2       44.8140   -5.2640    7.8630 N.pl3  41  ARG41       0.1354
     79  N         45.8640    3.6020   13.1350 N.3    52  ASP52      -0.1239
     80  CA        45.1330    4.5510   13.9800 C.3    52  ASP52       0.1674
     81  C         45.5680    6.0090   13.8260 C.2    52  ASP52       0.2266
     82  O         44.8440    6.9370   14.2270 O.2    52  ASP52      -0.2867
     83  CB        45.1930    4.1110   15.4380 C.3    52  ASP52       0.1410
     84  CG        44.4230    2.8380   15.6810 C.2    52  ASP52       0.3668
     85  OD1       44.9350    2.0360   16.4820 O.co2  52  ASP52      -0.2456
     86  OD2       43.3750    2.6420   15.0180 O.co2  52  ASP52      -0.2456
     87  N         36.0350   -2.7560   16.4080 N.3    69  ALA69      -0.1231
     88  CA        35.8960   -4.1850   16.0990 C.3    69  ALA69       0.1694
     89  C         37.1410   -4.9750   16.3950 C.2    69  ALA69       0.2592
     90  O         37.8080   -5.4960   15.5140 O.2    69  ALA69      -0.2718
     91  CB        35.3980   -4.4440   14.6980 C.3    69  ALA69       0.0304
     92  N         37.4610   -5.0000   17.6800 N.am   70  ILE70      -0.1966
     93  CA        38.6860   -5.6230   18.1950 C.3    70  ILE70       0.1727
     94  C         38.2230   -6.5830   19.2920 C.2    70  ILE70       0.2617
     95  O         37.5890   -6.1390   20.2540 O.2    70  ILE70      -0.2715
     96  CB        39.5670   -4.5250   18.8320 C.3    70  ILE70       0.0290
     97  CG1       40.1310   -3.6070   17.7250 C.3    70  ILE70       0.0022
     98  CG2       40.7280   -5.2200   19.5920 C.3    70  ILE70       0.0023
     99  CD1       41.1640   -4.2810   16.8550 C.3    70  ILE70       0.0001
    100  N         38.4900   -7.8780   19.1340 N.am   71  GLY71      -0.1940
    101  CA        38.0650   -8.8680   20.1450 C.3    71  GLY71       0.2014
    102  C         38.7030   -8.7320   21.5160 C.2    71  GLY71       0.2638
    103  O         38.0320   -8.9830   22.5250 O.2    71  GLY71      -0.2714
    104  N         39.9760   -8.3500   21.5710 N.am   72  ASP72      -0.1971
    105  CA        40.7330   -8.2550   22.8260 C.3    72  ASP72       0.1709
    106  C         40.0690   -7.1850   23.6910 C.2    72  ASP72       0.2293
    107  O         39.9660   -6.0200   23.2930 O.2    72  ASP72      -0.2864
    108  CB        42.1520   -7.8240   22.4340 C.3    72  ASP72       0.1436
    109  CG        43.0920   -7.6050   23.6100 C.2    72  ASP72       0.3671
    110  OD1       42.7200   -7.0510   24.6600 O.co2  72  ASP72      -0.2456
    111  OD2       44.2840   -7.9820   23.4870 O.co2  72  ASP72      -0.2456
    112  N         42.2390   -4.0830   24.9420 N.3    75  LEU75      -0.1245
    113  CA        42.6330   -3.2580   23.7980 C.3    75  LEU75       0.1561
    114  C         41.4150   -2.5160   23.2440 C.2    75  LEU75       0.2260
    115  O         41.4890   -1.3340   22.9110 O.2    75  LEU75      -0.2867
    116  CB        43.2860   -4.1070   22.7070 C.3    75  LEU75       0.0270
    117  CG        43.7510   -3.3230   21.4690 C.3    75  LEU75       0.0019
    118  CD1       44.7320   -2.2080   21.7740 C.3    75  LEU75       0.0001
    119  CD2       44.3920   -4.3520   20.5190 C.3    75  LEU75       0.0001
    120  N         41.0390    1.5100   22.8050 N.3    79  LEU79      -0.1245
    121  CA        40.7540    2.1120   21.4950 C.3    79  LEU79       0.1561
    122  C         39.4530    2.8820   21.4630 C.2    79  LEU79       0.2260
    123  O         39.3360    3.9120   20.8000 O.2    79  LEU79      -0.2867
    124  CB        40.8130    1.0640   20.3670 C.3    79  LEU79       0.0270
    125  CG        42.2020    0.4710   20.1190 C.3    79  LEU79       0.0019
    126  CD1       42.2920   -0.8170   19.2690 C.3    79  LEU79       0.0001
    127  CD2       43.0900    1.5750   19.5000 C.3    79  LEU79       0.0001
    128  N         30.6120   -7.0490   24.0400 N.3   129  ILE129     -0.1245
    129  CA        30.2800   -7.8990   22.8750 C.3   129  ILE129      0.1561
    130  C         29.2960   -8.9540   23.3850 C.2   129  ILE129      0.2260
    131  O         29.6450   -9.7120   24.2950 O.2   129  ILE129     -0.2867
    132  CB        31.4980   -8.6030   22.2580 C.3   129  ILE129      0.0252
    133  CG1       32.4980   -7.5840   21.6850 C.3   129  ILE129      0.0019
    134  CG2       31.0430   -9.5810   21.1690 C.3   129  ILE129      0.0019
    135  CD1       33.8570   -8.2140   21.3970 C.3   129  ILE129      0.0001
    136  N         27.9300  -11.9960   21.6780 N.3   131  ASN131     -0.1240
    137  CA        28.2130  -12.6470   20.3970 C.3   131  ASN131      0.1653
    138  C         27.0990  -13.5860   19.9490 C.2   131  ASN131      0.2266
    139  O         26.0950  -13.7950   20.6270 O.2   131  ASN131     -0.2867
    140  CB        29.5680  -13.3860   20.4840 C.3   131  ASN131      0.1155
    141  CG        30.4770  -13.0860   19.2860 C.2   131  ASN131      0.2627
    142  OD1       31.7030  -12.8880   19.4160 O.2   131  ASN131     -0.2716
    143  ND2       29.8960  -13.1500   18.1090 N.am  131  ASN131     -0.0877
    144  N         32.8260   -9.6810   27.2060 N.3   147  HIS147     -0.1241
    145  CA        32.5660  -10.4290   25.9720 C.3   147  HIS147      0.1621
    146  C         31.8590  -11.7080   26.3350 C.2   147  HIS147      0.2264
    147  O         32.5140  -12.5440   26.9900 O.2   147  HIS147     -0.2867
    148  CB        33.8580  -10.6820   25.1820 C.3   147  HIS147      0.0745
    149  CG        33.6630  -11.4400   23.8910 C.ar  147  HIS147      0.0817
    150  ND1       34.7340  -11.8910   23.1560 N.ar  147  HIS147     -0.2268
    151  CD2       32.5500  -11.8670   23.2350 C.ar  147  HIS147      0.1154
    152  CE1       34.2950  -12.5380   22.0820 C.ar  147  HIS147      0.1986
    153  NE2       32.9720  -12.5500   22.1240 N.ar  147  HIS147     -0.2212
@<TRIPOS>BOND
     1    69    68    1
     2    69    70    1
     3    69    72    1
     4    70    71    2
     5    72    73    1
     6    73    74    1
     7    74    75    1
     8    75    76    2
     9    77    76    1
    10    76    78    1
    11    66    65   ar
    12    67    65   ar
    13    63    62    2
    14    65    64    1
    15    62    61    1
    16    16    15    2
    17    64    61    1
    18    61    60    1
    19    40    41    1
    20    51    52    1
    21    51    48    1
    22    15    14    1
    23    15    17   am
    24    14    13    1
    25    45    44    1
    26    41    42    1
    27    41    44    1
    28    38    37    2
    29    50    49    2
    30    47    42   am
    31    47    48    1
    32    54    52   ar
    33    52    53   ar
    34    20    19    2
    35    60    57   am
    36    37    36    1
    37    42    43    2
    38    48    49    1
    39    44    46    1
    40    19    18    1
    41    19    21   am
    42    17    18    1
    43    49    55   am
    44    39    36    1
    45    13    11   am
    46    12    11    2
    47    22    21    1
    48    22    23    1
    49    58    57    2
    50    57    56    1
    51    24    23    2
    52    36    35    1
    53    11    10    1
    54    23    25   am
    55    55    56    1
    56    56    59    1
    57    35    27   am
    58    79    80    1
    59    10     9    1
    60    28    27    2
    61     9     3   am
    62    27    26    1
    63    25    26    1
    64     1     2    1
    65    81    80    1
    66    81    82    2
    67    80    83    1
    68     2     3    1
    69     2     5    1
    70     3     4    2
    71    26    29    1
    72    91    88    1
    73    86    84   ar
    74     6     5    1
    75     6     8    1
    76    83    84    1
    77     5     7    1
    78    90    89    2
    79    29    30    1
    80    84    85   ar
    81    88    89    1
    82    88    87    1
    83    89    92   am
    84    30    31   ar
    85    30    32   ar
    86    99    97    1
    87    31    33   ar
    88    32    34   ar
    89    92    93    1
    90    97    96    1
    91    33    34   ar
    92   143   141   am
    93    93    96    1
    94    93    94    1
    95    96    98    1
    96   100    94   am
    97   100   101    1
    98   126   125    1
    99   141   142    2
   100   141   140    1
   101    94    95    2
   102   127   125    1
   103   138   137    1
   104   138   139    2
   105   125   124    1
   106   101   102    1
   107   124   121    1
   108   137   140    1
   109   137   136    1
   110   119   117    1
   111   123   122    2
   112   134   132    1
   113   135   133    1
   114   122   121    1
   115   117   118    1
   116   117   116    1
   117   121   120    1
   118   102   104   am
   119   102   103    2
   120   104   105    1
   121   133   132    1
   122   152   153   ar
   123   152   150   ar
   124   153   151   ar
   125   132   129    1
   126   108   105    1
   127   108   109    1
   128   116   113    1
   129   105   106    1
   130   129   130    1
   131   129   128    1
   132   115   114    2
   133   150   149   ar
   134   151   149   ar
   135   114   113    1
   136   107   106    2
   137   130   131    2
   138   111   109   ar
   139   109   110   ar
   140   113   112    1
   141   149   148    1
   142   148   145    1
   143   145   146    1
   144   145   144    1
   145   146   147    2
