@<TRIPOS>MOLECULE
tmp/4eadA00.pdb
 128 118 0 0 0
SMALL
GASTEIGER

@<TRIPOS>ATOM
      1  N         33.0930   -9.3390    7.6480 N.3    85  HIS85      -0.1241
      2  CA        33.3370   -9.6180    6.2350 C.3    85  HIS85       0.1621
      3  C         33.1580   -8.3820    5.4100 C.2    85  HIS85       0.2264
      4  O         32.3150   -7.5510    5.7180 O.2    85  HIS85      -0.2867
      5  CB        32.4180  -10.7290    5.7100 C.3    85  HIS85       0.0745
      6  CG        32.7960  -11.2040    4.3330 C.ar   85  HIS85       0.0817
      7  ND1       33.9900  -11.7720    4.0760 N.ar   85  HIS85      -0.2268
      8  CD2       32.1230  -11.1240    3.1120 C.ar   85  HIS85       0.1154
      9  CE1       34.0640  -12.0770    2.7630 C.ar   85  HIS85       0.1986
     10  NE2       32.9180  -11.6850    2.1790 N.ar   85  HIS85      -0.2212
     11  N         32.8100   -6.8990    1.2300 N.3    87  THR87      -0.1218
     12  CA        32.6250   -7.2640   -0.1870 C.3    87  THR87       0.1862
     13  C         33.9070   -7.1420   -1.0200 C.2    87  THR87       0.2287
     14  O         34.0050   -7.7300   -2.1140 O.2    87  THR87      -0.2866
     15  CB        31.4560   -6.5220   -0.8880 C.3    87  THR87       0.1770
     16  OG1       31.6880   -5.1120   -0.8820 O.3    87  THR87      -0.2211
     17  CG2       30.1190   -6.8270   -0.2070 C.3    87  THR87       0.0375
     18  N         40.1750  -11.4440   -5.7940 N.3   117  LEU117     -0.1245
     19  CA        39.2940  -11.7900   -6.9160 C.3   117  LEU117      0.1561
     20  C         39.1030  -10.5720   -7.8040 C.2   117  LEU117      0.2260
     21  O         38.9600   -9.4600   -7.3000 O.2   117  LEU117     -0.2867
     22  CB        37.9200  -12.2380   -6.4040 C.3   117  LEU117      0.0270
     23  CG        37.8580  -13.4460   -5.4640 C.3   117  LEU117      0.0019
     24  CD1       36.4450  -13.6840   -4.9510 C.3   117  LEU117      0.0001
     25  CD2       38.3750  -14.6880   -6.1760 C.3   117  LEU117      0.0001
     26  N         40.0250   -6.8250   -6.8610 N.3   120  THR120     -0.1218
     27  CA        40.1560   -6.5320   -5.4280 C.3   120  THR120      0.1862
     28  C         41.2660   -7.3510   -4.7760 C.2   120  THR120      0.2287
     29  O         41.5410   -8.4850   -5.1780 O.2   120  THR120     -0.2866
     30  CB        38.8300   -6.7500   -4.6690 C.3   120  THR120      0.1770
     31  OG1       38.3730   -8.0830   -4.8900 O.3   120  THR120     -0.2211
     32  CG2       37.7510   -5.7730   -5.1400 C.3   120  THR120      0.0375
     33  N         29.1910  -24.3750   -1.7390 N.3   164  ASP164     -0.1239
     34  CA        29.5100  -23.0460   -2.2700 C.3   164  ASP164      0.1674
     35  C         30.6650  -23.0850   -3.2630 C.2   164  ASP164      0.2266
     36  O         30.7600  -22.2300   -4.1490 O.2   164  ASP164     -0.2867
     37  CB        29.8570  -22.0730   -1.1390 C.3   164  ASP164      0.1410
     38  CG        30.0800  -20.6680   -1.6380 C.2   164  ASP164      0.3668
     39  OD1       29.1350  -20.0790   -2.1970 O.co2 164  ASP164     -0.2456
     40  OD2       31.2120  -20.1560   -1.4770 O.co2 164  ASP164     -0.2456
     41  N         29.7970  -21.2100   -6.5680 N.3   168  TYR168     -0.1241
     42  CA        30.5020  -19.9920   -6.9460 C.3   168  TYR168      0.1605
     43  C         31.3390  -20.1980   -8.2120 C.2   168  TYR168      0.2264
     44  O         31.3360  -19.3410   -9.0840 O.2   168  TYR168     -0.2867
     45  CB        31.3580  -19.4420   -5.8030 C.3   168  TYR168      0.0534
     46  CG        32.0570  -18.1810   -6.2160 C.ar  168  TYR168     -0.0201
     47  CD1       31.3510  -16.9840   -6.3420 C.ar  168  TYR168     -0.0009
     48  CD2       33.4100  -18.1900   -6.5410 C.ar  168  TYR168     -0.0009
     49  CE1       31.9840  -15.8180   -6.7420 C.ar  168  TYR168      0.0417
     50  CE2       34.0520  -17.0330   -6.9520 C.ar  168  TYR168      0.0417
     51  CZ        33.3380  -15.8530   -7.0460 C.ar  168  TYR168      0.1957
     52  OH        33.9890  -14.7150   -7.4440 O.3   168  TYR168     -0.2866
     53  N         28.8760  -19.9070  -11.0290 N.3   171  ARG171     -0.1245
     54  CA        28.4150  -18.5220  -11.1340 C.3   171  ARG171      0.1563
     55  C         29.4410  -17.6550  -11.8670 C.2   171  ARG171      0.2260
     56  O         29.0960  -16.8220  -12.7060 O.2   171  ARG171     -0.2867
     57  CB        28.1430  -17.9550   -9.7370 C.3   171  ARG171      0.0307
     58  CG        26.8200  -18.4400   -9.1390 C.3   171  ARG171      0.0489
     59  CD        26.7640  -18.1060   -7.6580 C.3   171  ARG171      0.2205
     60  NE        26.8040  -16.6560   -7.4280 N.pl3 171  ARG171     -0.0865
     61  CZ        27.3810  -16.0710   -6.3710 C.cat 171  ARG171      0.5346
     62  NH1       27.3660  -14.7460   -6.2640 N.pl3 171  ARG171      0.1354
     63  NH2       28.0010  -16.7890   -5.4280 N.pl3 171  ARG171      0.1354
     64  N         27.1010  -14.2940  -10.9660 N.3   177  VAL177     -0.1245
     65  CA        27.6490  -13.7820   -9.7050 C.3   177  VAL177      0.1561
     66  C         26.7370  -12.6840   -9.1740 C.2   177  VAL177      0.2260
     67  O         26.4240  -12.6630   -7.9890 O.2   177  VAL177     -0.2867
     68  CB        29.0880  -13.2440   -9.8750 C.3   177  VAL177      0.0252
     69  CG1       29.5960  -12.6070   -8.5800 C.3   177  VAL177      0.0019
     70  CG2       30.0140  -14.3810  -10.2890 C.3   177  VAL177      0.0019
     71  N         24.6880  -13.9920   -3.7470 N.3   183  ILE183     -0.1245
     72  CA        25.7840  -13.3710   -2.9820 C.3   183  ILE183      0.1561
     73  C         25.5700  -13.5760   -1.4830 C.2   183  ILE183      0.2260
     74  O         26.4950  -13.9920   -0.7590 O.2   183  ILE183     -0.2867
     75  CB        25.9660  -11.8680   -3.3260 C.3   183  ILE183      0.0252
     76  CG1       26.3740  -11.7250   -4.8030 C.3   183  ILE183      0.0019
     77  CG2       27.0220  -11.2170   -2.4200 C.3   183  ILE183      0.0019
     78  CD1       26.2400  -10.3140   -5.3720 C.3   183  ILE183      0.0001
     79  N         26.1190  -17.1570   -0.4670 N.3   186  SER186     -0.1202
     80  CA        27.5280  -17.5300   -0.5910 C.3   186  SER186      0.2020
     81  C         28.3660  -16.9420    0.5530 C.2   186  SER186      0.2618
     82  O         29.1580  -17.6590    1.1760 O.2   186  SER186     -0.2717
     83  CB        28.0760  -17.0900   -1.9540 C.3   186  SER186      0.2103
     84  OG        29.3980  -17.5500   -2.1400 O.3   186  SER186     -0.2182
     85  N         28.1920  -15.6490    0.8310 N.am  187  ILE187     -0.1979
     86  CA        28.9260  -14.9870    1.9130 C.3   187  ILE187      0.1595
     87  C         28.5950  -15.6340    3.2580 C.2   187  ILE187      0.2287
     88  O         29.4930  -15.9880    4.0350 O.2   187  ILE187     -0.2864
     89  CB        28.6190  -13.4730    1.9580 C.3   187  ILE187      0.0276
     90  CG1       29.3040  -12.7710    0.7780 C.3   187  ILE187      0.0022
     91  CG2       29.0590  -12.8730    3.2980 C.3   187  ILE187      0.0022
     92  CD1       28.9370  -11.3110    0.6080 C.3   187  ILE187      0.0001
     93  N         29.6490  -19.3480    4.3810 N.3   190  LYS190     -0.1245
     94  CA        30.9930  -19.4280    4.9410 C.3   190  LYS190      0.1561
     95  C         31.0940  -18.7610    6.3070 C.2   190  LYS190      0.2260
     96  O         31.6340  -19.3580    7.2330 O.2   190  LYS190     -0.2867
     97  CB        32.0250  -18.8390    3.9820 C.3   190  LYS190      0.0271
     98  CG        32.0690  -19.5160    2.6140 C.3   190  LYS190      0.0035
     99  CD        33.1480  -18.8030    1.8150 C.3   190  LYS190      0.0206
    100  CE        32.8480  -18.6550    0.3410 C.3   190  LYS190      0.1093
    101  NZ        31.6940  -17.7900   -0.0070 N.3   190  LYS190     -0.1314
    102  N         31.8130   -3.7430   -5.6730 N.3   210  PHE210     -0.1227
    103  CA        31.1160   -4.6460   -6.5520 C.3   210  PHE210      0.1736
    104  C         29.7190   -4.2200   -6.9600 C.2   210  PHE210      0.2595
    105  O         29.4420   -4.2390   -8.1730 O.2   210  PHE210     -0.2718
    106  CB        31.0540   -6.0770   -6.0440 C.3   210  PHE210      0.0547
    107  CG        30.4420   -7.0240   -7.0440 C.ar  210  PHE210     -0.0202
    108  CD1       31.2420   -7.5990   -8.0240 C.ar  210  PHE210     -0.0042
    109  CD2       29.0750   -7.3200   -7.0340 C.ar  210  PHE210     -0.0042
    110  CE1       30.7060   -8.4620   -8.9730 C.ar  210  PHE210     -0.0003
    111  CE2       28.5370   -8.1980   -7.9730 C.ar  210  PHE210     -0.0003
    112  CZ        29.3570   -8.7700   -8.9390 C.ar  210  PHE210     -0.0000
    113  N         28.8220   -3.8970   -6.0290 N.am  211  MET211     -0.1979
    114  CA        27.4790   -3.5110   -6.4690 C.3   211  MET211      0.1605
    115  C         27.5990   -2.1860   -7.2350 C.2   211  MET211      0.2287
    116  O         28.4180   -1.3410   -6.8760 O.2   211  MET211     -0.2864
    117  CB        26.4940   -3.4530   -5.3040 C.3   211  MET211      0.0413
    118  CG        26.5180   -4.7080   -4.4350 C.3   211  MET211      0.0598
    119  SD        26.0370   -6.2420   -5.2800 S.3   211  MET211     -0.1393
    120  CE        24.2720   -6.0060   -5.3900 C.3   211  MET211      0.0692
    121  N         21.7610   -5.2720   -0.8200 N.3   220  LEU220     -0.1245
    122  CA        22.6030   -6.4160   -0.4550 C.3   220  LEU220      0.1561
    123  C         22.8360   -6.4460    1.0490 C.2   220  LEU220      0.2260
    124  O         22.7240   -7.5070    1.6930 O.2   220  LEU220     -0.2867
    125  CB        23.9540   -6.3670   -1.1850 C.3   220  LEU220      0.0270
    126  CG        24.9430   -7.4720   -0.7950 C.3   220  LEU220      0.0019
    127  CD1       24.3750   -8.8470   -1.1270 C.3   220  LEU220      0.0001
    128  CD2       26.2720   -7.2780   -1.4990 C.3   220  LEU220      0.0001
@<TRIPOS>BOND
     1    56    55    2
     2    55    54    1
     3    54    53    1
     4    54    57    1
     5    64    65    1
     6    70    68    1
     7    68    65    1
     8    68    69    1
     9    57    58    1
    10    65    66    1
    11    66    67    2
    12    58    59    1
    13    44    43    2
    14   110   112   ar
    15   110   108   ar
    16   112   111   ar
    17    43    42    1
    18   105   104    2
    19   108   107   ar
    20   111   109   ar
    21    20    21    2
    22    20    19    1
    23    59    60    1
    24    52    51    1
    25    60    61    2
    26   115   116    2
    27   115   114    1
    28    51    50   ar
    29    51    49   ar
    30   107   109   ar
    31   107   106    1
    32   104   103    1
    33   104   113   am
    34    50    48   ar
    35    42    41    1
    36    42    45    1
    37    19    22    1
    38    19    18    1
    39    26    27    1
    40    49    47   ar
    41   103   106    1
    42   103   102    1
    43    48    46   ar
    44   114   113    1
    45   114   117    1
    46    22    23    1
    47    61    62    1
    48    61    63    1
    49    47    46   ar
    50    46    45    1
    51    25    23    1
    52    23    24    1
    53    27    28    1
    54    27    30    1
    55   120   119    1
    56    78    76    1
    57   117   118    1
    58   119   118    1
    59    29    28    2
    60    32    30    1
    61    31    30    1
    62    76    75    1
    63    36    35    2
    64    71    72    1
    65    75    72    1
    66    75    77    1
    67    35    34    1
    68    72    73    1
    69    34    33    1
    70    34    37    1
    71    39    38   ar
    72    84    83    1
    73    14    13    2
    74    83    80    1
    75    38    40   ar
    76    38    37    1
    77   128   126    1
    78    73    74    2
    79   125   126    1
    80   125   122    1
    81   127   126    1
    82    13    12    1
    83    15    16    1
    84    15    17    1
    85    15    12    1
    86   121   122    1
    87    80    79    1
    88    80    81    1
    89   122   123    1
    90    12    11    1
    91   101   100    1
    92   100    99    1
    93    81    85   am
    94    81    82    2
    95    92    90    1
    96    90    89    1
    97    85    86    1
    98   123   124    2
    99    99    98    1
   100    86    89    1
   101    86    87    1
   102    89    91    1
   103    10     9   ar
   104    10     8   ar
   105    98    97    1
   106     9     7   ar
   107     8     6   ar
   108    87    88    2
   109    97    94    1
   110     7     6   ar
   111     6     5    1
   112    93    94    1
   113    94    95    1
   114     3     4    2
   115     3     2    1
   116     5     2    1
   117     2     1    1
   118    95    96    2
