@<TRIPOS>MOLECULE
tmp/4eagC01.pdb
 174 169 0 0 0
SMALL
GASTEIGER

@<TRIPOS>ATOM
      1  N        -28.2030  -45.7420   11.1870 N.3   123  LYS123     -0.1245
      2  CA       -27.0530  -44.9890   10.7290 C.3   123  LYS123      0.1561
      3  C        -27.3910  -43.5680   10.2890 C.2   123  LYS123      0.2260
      4  O        -27.0430  -43.1630    9.1870 O.2   123  LYS123     -0.2867
      5  CB       -26.3660  -45.7370    9.5860 C.3   123  LYS123      0.0271
      6  CG       -25.5500  -46.9490   10.0260 C.3   123  LYS123      0.0035
      7  CD       -24.3650  -47.1940    9.0820 C.3   123  LYS123      0.0206
      8  CE       -23.3260  -46.0690    9.1530 C.3   123  LYS123      0.1093
      9  NZ       -22.1410  -46.2980    8.2640 N.3   123  LYS123     -0.1314
     10  N        -27.7680  -39.1740   11.6540 N.3   125  HIS125     -0.1241
     11  CA       -27.2210  -38.2530   12.6570 C.3   125  HIS125      0.1621
     12  C        -28.2860  -37.3540   13.2850 C.2   125  HIS125      0.2264
     13  O        -28.0770  -36.8100   14.3710 O.2   125  HIS125     -0.2867
     14  CB       -26.0450  -37.4250   12.1060 C.3   125  HIS125      0.0745
     15  CG       -24.8360  -38.2460   11.7570 C.ar  125  HIS125      0.0817
     16  ND1      -23.7200  -37.7110   11.1590 N.ar  125  HIS125     -0.2268
     17  CD2      -24.5830  -39.5700   11.9170 C.ar  125  HIS125      0.1154
     18  CE1      -22.8290  -38.6690   10.9560 C.ar  125  HIS125      0.1986
     19  NE2      -23.3250  -39.8020   11.4140 N.ar  125  HIS125     -0.2212
     20  N        -29.6980  -35.0220   18.3660 N.3   142  THR142     -0.1203
     21  CA       -28.3750  -35.4590   17.8790 C.3   142  THR142      0.1994
     22  C        -27.5770  -36.2390   18.9340 C.2   142  THR142      0.2618
     23  O        -27.8740  -36.1530   20.1170 O.2   142  THR142     -0.2717
     24  CB       -27.5110  -34.2770   17.3800 C.3   142  THR142      0.1784
     25  OG1      -27.1320  -33.4490   18.4840 O.3   142  THR142     -0.2211
     26  CG2      -28.2510  -33.4540   16.3430 C.3   142  THR142      0.0376
     27  N        -26.5680  -36.9950   18.5050 N.am  143  HIS143     -0.1961
     28  CA       -25.6530  -37.6580   19.4430 C.3   143  HIS143      0.1787
     29  C        -25.0310  -36.6750   20.4120 C.2   143  HIS143      0.2620
     30  O        -24.8860  -36.9800   21.5920 O.2   143  HIS143     -0.2715
     31  CB       -24.5020  -38.3480   18.7180 C.3   143  HIS143      0.0785
     32  CG       -24.8910  -39.6070   18.0260 C.ar  143  HIS143      0.0821
     33  ND1      -25.3860  -40.6990   18.7010 N.ar  143  HIS143     -0.2267
     34  CD2      -24.8310  -39.9560   16.7170 C.ar  143  HIS143      0.1154
     35  CE1      -25.6350  -41.6660   17.8340 C.ar  143  HIS143      0.1986
     36  NE2      -25.3170  -41.2400   16.6290 N.ar  143  HIS143     -0.2212
     37  N        -24.6430  -35.5100   19.8940 N.am  144  LYS144     -0.1977
     38  CA       -24.0440  -34.4490   20.6950 C.3   144  LYS144      0.1596
     39  C        -25.0160  -33.9030   21.7370 C.2   144  LYS144      0.2287
     40  O        -24.6660  -33.6720   22.8950 O.2   144  LYS144     -0.2864
     41  CB       -23.5790  -33.3360   19.7790 C.3   144  LYS144      0.0298
     42  CG       -23.1900  -32.0510   20.4750 C.3   144  LYS144      0.0038
     43  CD       -22.5460  -31.0730   19.4830 C.3   144  LYS144      0.0206
     44  CE       -22.6950  -29.6160   19.8940 C.3   144  LYS144      0.1093
     45  NZ       -22.0910  -28.7060   18.8750 N.3   144  LYS144     -0.1314
     46  N        -12.6890  -46.1470   16.1750 N.3   174  THR174     -0.1218
     47  CA       -12.3900  -46.8590   14.9380 C.3   174  THR174      0.1862
     48  C        -10.9060  -46.7780   14.6230 C.2   174  THR174      0.2287
     49  O        -10.3230  -45.6880   14.6030 O.2   174  THR174     -0.2866
     50  CB       -13.2590  -46.3540   13.7730 C.3   174  THR174      0.1770
     51  OG1      -14.6250  -46.7160   14.0270 O.3   174  THR174     -0.2211
     52  CG2      -12.8170  -46.9600   12.4490 C.3   174  THR174      0.0375
     53  N         -8.6540  -49.2550    8.9110 N.3   177  ASN177     -0.1225
     54  CA        -9.0690  -48.7120    7.6270 C.3   177  ASN177      0.1785
     55  C         -9.6130  -47.2990    7.7600 C.2   177  ASN177      0.2597
     56  O        -10.7560  -47.0280    7.4050 O.2   177  ASN177     -0.2718
     57  CB       -10.1210  -49.6240    6.9810 C.3   177  ASN177      0.1169
     58  CG        -9.5650  -50.9950    6.6220 C.2   177  ASN177      0.2627
     59  OD1      -10.2490  -52.0070    6.7780 O.2   177  ASN177     -0.2716
     60  ND2       -8.3150  -51.0340    6.1490 N.am  177  ASN177     -0.0877
     61  N         -8.7920  -46.3980    8.2800 N.am  178  ILE178     -0.1966
     62  CA        -9.2140  -45.0180    8.4240 C.3   178  ILE178      0.1727
     63  C         -9.1690  -44.2930    7.0790 C.2   178  ILE178      0.2616
     64  O         -8.1320  -44.2440    6.4030 O.2   178  ILE178     -0.2715
     65  CB        -8.3770  -44.2700    9.4760 C.3   178  ILE178      0.0290
     66  CG1       -8.5170  -44.9570   10.8380 C.3   178  ILE178      0.0022
     67  CG2       -8.7740  -42.7910    9.5400 C.3   178  ILE178      0.0023
     68  CD1       -9.9260  -45.2220   11.2380 C.3   178  ILE178      0.0001
     69  N        -10.3140  -43.7470    6.6890 N.am  179  ALA179     -0.1977
     70  CA       -10.4100  -42.9590    5.4770 C.3   179  ALA179      0.1597
     71  C         -9.7770  -41.6140    5.7390 C.2   179  ALA179      0.2287
     72  O        -10.2340  -40.8660    6.6110 O.2   179  ALA179     -0.2864
     73  CB       -11.8610  -42.7920    5.0590 C.3   179  ALA179      0.0319
     74  N        -19.4370  -43.1280    3.4630 N.3   198  ARG198     -0.1231
     75  CA       -20.3460  -42.7480    4.5320 C.3   198  ARG198      0.1694
     76  C        -19.5300  -42.6030    5.8120 C.2   198  ARG198      0.2592
     77  O        -19.6020  -43.4050    6.7580 O.2   198  ARG198     -0.2718
     78  CB       -21.4610  -43.7850    4.6980 C.3   198  ARG198      0.0321
     79  CG       -22.2790  -44.0180    3.4250 C.3   198  ARG198      0.0489
     80  CD       -22.2960  -45.4940    3.0400 C.3   198  ARG198      0.2205
     81  NE       -22.6640  -46.3540    4.1660 N.pl3 198  ARG198     -0.0865
     82  CZ       -21.9300  -47.3740    4.6000 C.cat 198  ARG198      0.5346
     83  NH1      -20.7840  -47.6730    3.9970 N.pl3 198  ARG198      0.1354
     84  NH2      -22.3430  -48.0990    5.6340 N.pl3 198  ARG198      0.1354
     85  N        -18.6960  -41.5810    5.7820 N.am  199  VAL199     -0.1966
     86  CA       -18.0570  -41.0700    6.9580 C.3   199  VAL199      0.1727
     87  C        -18.3090  -39.5980    6.8250 C.2   199  VAL199      0.2617
     88  O        -18.5730  -39.1200    5.7310 O.2   199  VAL199     -0.2715
     89  CB       -16.5520  -41.2630    6.9090 C.3   199  VAL199      0.0290
     90  CG1      -15.9640  -40.5490    5.6910 C.3   199  VAL199      0.0023
     91  CG2      -15.9550  -40.6980    8.1580 C.3   199  VAL199      0.0023
     92  N        -18.2210  -38.8650    7.9210 N.am  200  SER200     -0.1936
     93  CA       -18.4170  -37.4350    7.8310 C.3   200  SER200      0.2055
     94  C        -17.1310  -36.6930    7.4900 C.2   200  SER200      0.2643
     95  O        -17.1150  -35.8780    6.5760 O.2   200  SER200     -0.2714
     96  CB       -19.0950  -36.8850    9.0950 C.3   200  SER200      0.2130
     97  OG       -20.4960  -36.6920    8.8830 O.3   200  SER200     -0.2179
     98  N        -16.0430  -36.9660    8.2020 N.am  201  ALA201     -0.1963
     99  CA       -14.8360  -36.1810    7.9620 C.3   201  ALA201      0.1728
    100  C        -13.5790  -36.9730    7.6380 C.2   201  ALA201      0.2616
    101  O        -13.4210  -38.1390    8.0090 O.2   201  ALA201     -0.2715
    102  CB       -14.5810  -35.2520    9.1010 C.3   201  ALA201      0.0334
    103  N        -12.6720  -36.3110    6.9400 N.am  202  LEU202     -0.1964
    104  CA       -11.4500  -36.9530    6.5180 C.3   202  LEU202      0.1713
    105  C        -10.2620  -36.2590    7.1300 C.2   202  LEU202      0.2458
    106  O        -10.1170  -35.0390    7.0270 O.2   202  LEU202     -0.2730
    107  CB       -11.3600  -36.9220    5.0080 C.3   202  LEU202      0.0310
    108  CG       -12.5280  -37.6800    4.3880 C.3   202  LEU202      0.0022
    109  CD1      -12.4380  -37.6220    2.8950 C.3   202  LEU202      0.0001
    110  CD2      -12.5360  -39.1240    4.8720 C.3   202  LEU202      0.0001
    111  N         -9.4150  -37.0350    7.8050 N.am  203  PRO203     -0.2727
    112  CA        -8.1550  -36.4880    8.2900 C.3   203  PRO203      0.1402
    113  C         -7.2420  -36.2220    7.1070 C.2   203  PRO203      0.2269
    114  O         -7.0530  -37.1130    6.2690 O.2   203  PRO203     -0.2865
    115  CB        -7.5850  -37.6220    9.1380 C.3   203  PRO203      0.0296
    116  CG        -8.7210  -38.4860    9.4460 C.3   203  PRO203      0.0237
    117  CD        -9.6270  -38.4110    8.2620 C.3   203  PRO203      0.0939
    118  N        -17.1340  -33.0630   17.0360 N.3   262  HIS262     -0.1226
    119  CA       -17.9120  -34.3010   16.8450 C.3   262  HIS262      0.1752
    120  C        -17.0590  -35.5750   16.8500 C.2   262  HIS262      0.2595
    121  O        -17.5730  -36.6930   16.7820 O.2   262  HIS262     -0.2718
    122  CB       -18.6870  -34.2660   15.5260 C.3   262  HIS262      0.0759
    123  CG       -19.5460  -33.0580   15.3580 C.ar  262  HIS262      0.0818
    124  ND1      -20.8840  -33.0490   15.6780 N.ar  262  HIS262     -0.2268
    125  CD2      -19.2550  -31.8140   14.9100 C.ar  262  HIS262      0.1154
    126  CE1      -21.3850  -31.8520   15.4320 C.ar  262  HIS262      0.1986
    127  NE2      -20.4160  -31.0830   14.9680 N.ar  262  HIS262     -0.2212
    128  N        -15.7480  -35.4190   16.8900 N.am  263  ARG263     -0.1980
    129  CA       -14.9160  -36.5870   17.0590 C.3   263  ARG263      0.1597
    130  C        -13.4880  -36.2070   17.3650 C.2   263  ARG263      0.2287
    131  O        -13.0940  -35.0470   17.2240 O.2   263  ARG263     -0.2864
    132  CB       -14.9810  -37.4980   15.8280 C.3   263  ARG263      0.0334
    133  CG       -14.0300  -37.1190   14.7010 C.3   263  ARG263      0.0492
    134  CD       -14.6590  -36.0950   13.7700 C.3   263  ARG263      0.2205
    135  NE       -15.9260  -36.5770   13.2230 N.pl3 263  ARG263     -0.0865
    136  CZ       -16.7940  -35.8160   12.5620 C.cat 263  ARG263      0.5346
    137  NH1      -16.5440  -34.5170   12.3600 N.pl3 263  ARG263      0.1354
    138  NH2      -17.9200  -36.3590   12.1120 N.pl3 263  ARG263      0.1354
    139  N        -10.0130  -42.9940   15.0380 N.3   276  ILE276     -0.1245
    140  CA       -10.9680  -41.9320   15.2710 C.3   276  ILE276      0.1561
    141  C        -11.8930  -42.4040   16.3530 C.2   276  ILE276      0.2260
    142  O        -12.3170  -43.5600   16.3570 O.2   276  ILE276     -0.2867
    143  CB       -11.8370  -41.6420   14.0220 C.3   276  ILE276      0.0252
    144  CG1      -11.1140  -40.7010   13.0740 C.3   276  ILE276      0.0019
    145  CG2      -13.1220  -40.9620   14.4100 C.3   276  ILE276      0.0019
    146  CD1       -9.9940  -41.3450   12.3790 C.3   276  ILE276      0.0001
    147  N        -15.5880  -41.1040   17.8140 N.3   278  SER278     -0.1202
    148  CA       -16.7210  -40.2390   17.4880 C.3   278  SER278      0.2020
    149  C        -17.7860  -40.2310   18.5750 C.2   278  SER278      0.2619
    150  O        -17.6480  -40.8300   19.6370 O.2   278  SER278     -0.2717
    151  CB       -17.4050  -40.7350   16.2260 C.3   278  SER278      0.2103
    152  OG       -16.4590  -41.2400   15.3080 O.3   278  SER278     -0.2182
    153  N        -18.8860  -39.5650   18.2990 N.am  279  LEU279     -0.1965
    154  CA       -19.8900  -39.4800   19.3220 C.3   279  LEU279      0.1728
    155  C        -20.6440  -40.7700   19.3580 C.2   279  LEU279      0.2617
    156  O        -20.8990  -41.2790   20.4400 O.2   279  LEU279     -0.2715
    157  CB       -20.8190  -38.3060   19.0860 C.3   279  LEU279      0.0311
    158  CG       -20.1100  -36.9970   19.3640 C.3   279  LEU279      0.0022
    159  CD1      -20.8360  -35.8780   18.7110 C.3   279  LEU279      0.0001
    160  CD2      -20.0500  -36.7900   20.8440 C.3   279  LEU279      0.0001
    161  N        -20.9930  -41.3090   18.1900 N.am  280  SER280     -0.1936
    162  CA       -21.6590  -42.6090   18.1700 C.3   280  SER280      0.2055
    163  C        -20.8200  -43.6100   18.9310 C.2   280  SER280      0.2643
    164  O        -21.3530  -44.3860   19.7050 O.2   280  SER280     -0.2714
    165  CB       -21.9560  -43.1240   16.7470 C.3   280  SER280      0.2130
    166  OG       -20.8130  -43.6350   16.0710 O.3   280  SER280     -0.2179
    167  N        -19.5050  -43.5710   18.7290 N.am  281  ASP281     -0.1971
    168  CA       -18.6100  -44.4820   19.4310 C.3   281  ASP281      0.1709
    169  C        -18.8250  -44.3760   20.9320 C.2   281  ASP281      0.2293
    170  O        -19.1670  -45.3540   21.5870 O.2   281  ASP281     -0.2864
    171  CB       -17.1450  -44.1990   19.0990 C.3   281  ASP281      0.1436
    172  CG       -16.8700  -44.1790   17.6060 C.2   281  ASP281      0.3671
    173  OD1      -17.8080  -44.4700   16.8330 O.co2 281  ASP281     -0.2456
    174  OD2      -15.7160  -43.8640   17.2160 O.co2 281  ASP281     -0.2456
@<TRIPOS>BOND
     1   109   108    1
     2    80    79    1
     3    80    81    1
     4    79    78    1
     5    74    75    1
     6    83    82    1
     7    81    82    2
     8   108   110    1
     9   108   107    1
    10    75    78    1
    11    75    76    1
    12    82    84    1
    13   107   104    1
    14    73    70    1
    15    70    71    1
    16    70    69    1
    17    90    89    1
    18    88    87    2
    19    71    72    2
    20    85    76   am
    21    85    86    1
    22    76    77    2
    23    60    58   am
    24   114   113    2
    25    64    63    2
    26   104   103    1
    27   104   105    1
    28    95    94    2
    29    58    59    2
    30    58    57    1
    31    69    63   am
    32    87    86    1
    33    87    92   am
    34    89    86    1
    35    89    91    1
    36   103   100   am
    37    57    54    1
    38   106   105    2
    39    63    62    1
    40   113   112    1
    41   105   111   am
    42    56    55    2
    43    94    93    1
    44    94    98   am
    45    54    55    1
    46    54    53    1
    47   100    99    1
    48   100   101    2
    49    55    61   am
    50   111   117    1
    51   111   112    1
    52    93    92    1
    53    93    96    1
    54    99    98    1
    55    99   102    1
    56   117   116    1
    57     9     8    1
    58    61    62    1
    59   112   115    1
    60    62    65    1
    61    97    96    1
    62     7     8    1
    63     7     6    1
    64   115   116    1
    65     4     3    2
    66    65    67    1
    67    65    66    1
    68     5     6    1
    69     5     2    1
    70     3     2    1
    71     2     1    1
    72    66    68    1
    73    18    16   ar
    74    18    19   ar
    75    16    15   ar
    76    19    17   ar
    77    10    11    1
    78    15    17   ar
    79    15    14    1
    80    14    11    1
    81   138   136    1
    82   137   136    1
    83   146   144    1
    84    52    50    1
    85   136   135    2
    86    11    12    1
    87   144   143    1
    88   135   134    1
    89    12    13    2
    90   134   133    1
    91    50    51    1
    92    50    47    1
    93   143   145    1
    94   143   140    1
    95    49    48    2
    96    48    47    1
    97   133   132    1
    98   125   127   ar
    99   125   123   ar
   100    47    46    1
   101   127   126   ar
   102   139   140    1
   103   140   141    1
   104   152   151    1
   105   123   122    1
   106   123   124   ar
   107   126   124   ar
   108   122   119    1
   109   132   129    1
   110   166   165    1
   111   151   148    1
   112    26    24    1
   113   141   142    2
   114    36    34   ar
   115    36    35   ar
   116    34    32   ar
   117   165   162    1
   118   121   120    2
   119   173   172   ar
   120   119   120    1
   121   119   118    1
   122   120   128   am
   123   128   129    1
   124   129   130    1
   125   174   172   ar
   126   131   130    2
   127    24    21    1
   128    24    25    1
   129   148   147    1
   130   148   149    1
   131   172   171    1
   132    35    33   ar
   133    21    20    1
   134    21    22    1
   135    32    33   ar
   136    32    31    1
   137   162   161    1
   138   162   163    1
   139   161   155   am
   140   153   149   am
   141   153   154    1
   142    27    22   am
   143    27    28    1
   144   149   150    2
   145   159   158    1
   146    31    28    1
   147   167   163   am
   148   167   168    1
   149    45    44    1
   150   163   164    2
   151    22    23    2
   152   157   154    1
   153   157   158    1
   154   171   168    1
   155   154   155    1
   156   155   156    2
   157   158   160    1
   158   168   169    1
   159    28    29    1
   160    43    44    1
   161    43    42    1
   162    41    42    1
   163    41    38    1
   164    37    29   am
   165    37    38    1
   166    29    30    2
   167    38    39    1
   168   169   170    2
   169    39    40    2
