@<TRIPOS>MOLECULE
tmp/4eamA01.pdb
 117 113 0 0 0
SMALL
GASTEIGER

@<TRIPOS>ATOM
      1  N          0.0860  -63.8820   19.6900 N.3   149  TRP149     -0.1241
      2  CA         0.4130  -65.2710   20.0550 C.3   149  TRP149      0.1605
      3  C         -0.2190  -65.7740   21.3490 C.2   149  TRP149      0.2264
      4  O         -0.8140  -66.8550   21.3460 O.2   149  TRP149     -0.2867
      5  CB         1.9080  -65.5860   20.0470 C.3   149  TRP149      0.0550
      6  CG         2.5610  -65.3990   18.7320 C.ar  149  TRP149      0.0003
      7  CD1        1.9900  -65.5350   17.5020 C.ar  149  TRP149      0.0946
      8  CD2        3.9340  -65.0580   18.5130 C.ar  149  TRP149      0.0152
      9  NE1        2.9340  -65.2910   16.5190 N.ar  149  TRP149     -0.2442
     10  CE2        4.1320  -64.9960   17.1210 C.ar  149  TRP149      0.0810
     11  CE3        5.0200  -64.7960   19.3640 C.ar  149  TRP149      0.0012
     12  CZ2        5.3690  -64.6740   16.5570 C.ar  149  TRP149      0.0191
     13  CZ3        6.2570  -64.4630   18.7970 C.ar  149  TRP149      0.0001
     14  CH2        6.4180  -64.4270   17.4060 C.ar  149  TRP149      0.0015
     15  N          2.0260  -63.0110   12.5470 N.3   204  GLU204     -0.1245
     16  CA         2.8180  -64.2150   12.2900 C.3   204  GLU204      0.1567
     17  C          2.0710  -65.4970   12.6620 C.2   204  GLU204      0.2260
     18  O          2.5670  -66.3160   13.4470 O.2   204  GLU204     -0.2867
     19  CB         4.1730  -64.1510   13.0120 C.3   204  GLU204      0.0388
     20  CG         5.0400  -62.9630   12.6140 C.3   204  GLU204      0.1160
     21  CD         6.4770  -63.0730   13.0830 C.2   204  GLU204      0.3649
     22  OE1        6.8210  -64.0840   13.7300 O.co2 204  GLU204     -0.2457
     23  OE2        7.2720  -62.1470   12.7860 O.co2 204  GLU204     -0.2457
     24  N          3.9220  -68.8240   12.4900 N.3   207  VAL207     -0.1245
     25  CA         4.7780  -69.2210   13.6000 C.3   207  VAL207      0.1561
     26  C          4.0260  -70.1420   14.5560 C.2   207  VAL207      0.2260
     27  O          4.6110  -71.0730   15.1310 O.2   207  VAL207     -0.2867
     28  CB         5.3490  -67.9770   14.3170 C.3   207  VAL207      0.0252
     29  CG1        5.9080  -68.3390   15.6890 C.3   207  VAL207      0.0019
     30  CG2        6.4120  -67.3390   13.4550 C.3   207  VAL207      0.0019
     31  N          6.1610  -73.3590   14.5420 N.3   211  LEU211     -0.1245
     32  CA         6.9810  -73.6120   15.7360 C.3   211  LEU211      0.1561
     33  C          6.1960  -74.3910   16.7870 C.2   211  LEU211      0.2260
     34  O          6.7660  -75.1920   17.5060 O.2   211  LEU211     -0.2867
     35  CB         7.4990  -72.3110   16.3260 C.3   211  LEU211      0.0270
     36  CG         8.4900  -71.5330   15.4460 C.3   211  LEU211      0.0019
     37  CD1        9.1220  -70.3940   16.2180 C.3   211  LEU211      0.0001
     38  CD2        9.5550  -72.4490   14.8770 C.3   211  LEU211      0.0001
     39  N          5.1120  -63.7430    9.0260 N.3   261  ALA261     -0.1231
     40  CA         6.5490  -63.9130    9.1250 C.3   261  ALA261      0.1694
     41  C          7.1060  -64.3970    7.7880 C.2   261  ALA261      0.2592
     42  O          6.8100  -65.5180    7.3700 O.2   261  ALA261     -0.2718
     43  CB         6.8810  -64.9230   10.2150 C.3   261  ALA261      0.0304
     44  N          7.9220  -63.5760    7.1370 N.am  262  ASN262     -0.1960
     45  CA         8.4710  -63.9360    5.8400 C.3   262  ASN262      0.1819
     46  C          9.9580  -64.1960    5.8460 C.2   262  ASN262      0.2622
     47  O         10.7210  -63.6370    6.6470 O.2   262  ASN262     -0.2715
     48  CB         8.2540  -62.8270    4.7950 C.3   262  ASN262      0.1195
     49  CG         6.8090  -62.5030    4.5750 C.2   262  ASN262      0.2630
     50  OD1        6.0830  -63.2680    3.9350 O.2   262  ASN262     -0.2716
     51  ND2        6.3820  -61.3590    5.0830 N.am  262  ASN262     -0.0877
     52  N         10.3480  -65.0550    4.9130 N.am  263  SER263     -0.1950
     53  CA        11.7310  -65.2130    4.5520 C.3   263  SER263      0.1924
     54  C         11.8720  -64.9830    3.0580 C.2   263  SER263      0.2314
     55  O         10.9060  -65.1410    2.2890 O.2   263  SER263     -0.2863
     56  CB        12.2220  -66.6080    4.8990 C.3   263  SER263      0.2116
     57  OG        13.6190  -66.6630    4.7750 O.3   263  SER263     -0.2180
     58  N          6.7970  -58.9590    7.6960 N.3   314  ASN314     -0.1240
     59  CA         7.8180  -59.0650    8.7310 C.3   314  ASN314      0.1653
     60  C          9.0090  -59.7660    8.0890 C.2   314  ASN314      0.2266
     61  O          8.8840  -60.8760    7.5770 O.2   314  ASN314     -0.2867
     62  CB         7.3560  -59.8630    9.9400 C.3   314  ASN314      0.1155
     63  CG         6.3070  -59.1390   10.7650 C.2   314  ASN314      0.2627
     64  OD1        5.8790  -58.0300   10.4440 O.2   314  ASN314     -0.2716
     65  ND2        5.9000  -59.7690   11.8320 N.am  314  ASN314     -0.0877
     66  N         13.3540  -60.5260    8.3590 N.3   316  TYR316     -0.1227
     67  CA        14.6520  -60.4890    9.0490 C.3   316  TYR316      0.1736
     68  C         15.8340  -60.9990    8.2290 C.2   316  TYR316      0.2596
     69  O         16.9210  -60.4200    8.2720 O.2   316  TYR316     -0.2718
     70  CB        14.5570  -61.2570   10.3740 C.3   316  TYR316      0.0548
     71  CG        13.5870  -60.5850   11.3420 C.ar  316  TYR316     -0.0200
     72  CD1       12.2220  -60.8640   11.3120 C.ar  316  TYR316     -0.0009
     73  CD2       14.0380  -59.6640   12.2640 C.ar  316  TYR316     -0.0009
     74  CE1       11.3470  -60.2480   12.2040 C.ar  316  TYR316      0.0417
     75  CE2       13.1840  -59.0350   13.1390 C.ar  316  TYR316      0.0417
     76  CZ        11.8360  -59.3200   13.1060 C.ar  316  TYR316      0.1957
     77  OH        11.0010  -58.6990   14.0050 O.3   316  TYR316     -0.2866
     78  N         15.6360  -62.0890    7.4980 N.am  317  THR317     -0.1953
     79  CA        16.7410  -62.7050    6.7670 C.3   317  THR317      0.1897
     80  C         16.2020  -63.6650    5.7060 C.2   317  THR317      0.2313
     81  O         14.9810  -63.8090    5.5390 O.2   317  THR317     -0.2863
     82  CB        17.7420  -63.4280    7.7420 C.3   317  THR317      0.1794
     83  OG1       18.8970  -63.8620    7.0040 O.3   317  THR317     -0.2208
     84  CG2       17.1170  -64.6090    8.4500 C.3   317  THR317      0.0378
     85  N         18.4730  -67.9750    8.8100 N.3   336  HIS336     -0.1241
     86  CA        18.3170  -68.0050   10.2490 C.3   336  HIS336      0.1621
     87  C         18.9630  -69.2350   10.8740 C.2   336  HIS336      0.2264
     88  O         18.8290  -69.4580   12.0730 O.2   336  HIS336     -0.2867
     89  CB        16.8500  -67.8720   10.6500 C.3   336  HIS336      0.0745
     90  CG        15.9900  -69.0150   10.2280 C.ar  336  HIS336      0.0817
     91  ND1       15.1500  -68.9470    9.1400 N.ar  336  HIS336     -0.2268
     92  CD2       15.7980  -70.2380   10.7760 C.ar  336  HIS336      0.1154
     93  CE1       14.4910  -70.0880    9.0220 C.ar  336  HIS336      0.1986
     94  NE2       14.8700  -70.8900    9.9980 N.ar  336  HIS336     -0.2212
     95  N         21.3440  -64.8840   12.7820 N.3   355  TRP355     -0.1241
     96  CA        20.6050  -64.5580   11.5650 C.3   355  TRP355      0.1605
     97  C         21.4840  -63.7540   10.6220 C.2   355  TRP355      0.2264
     98  O         22.0910  -62.7520   11.0120 O.2   355  TRP355     -0.2867
     99  CB        19.3140  -63.7910   11.8660 C.3   355  TRP355      0.0550
    100  CG        18.3610  -64.5460   12.7660 C.ar  355  TRP355      0.0003
    101  CD1       18.5070  -65.8130   13.2160 C.ar  355  TRP355      0.0946
    102  CD2       17.1150  -64.0630   13.3130 C.ar  355  TRP355      0.0152
    103  NE1       17.4420  -66.1690   14.0120 N.ar  355  TRP355     -0.2442
    104  CE2       16.5740  -65.1090   14.0890 C.ar  355  TRP355      0.0810
    105  CE3       16.4200  -62.8560   13.2180 C.ar  355  TRP355      0.0012
    106  CZ2       15.3830  -64.9730   14.7960 C.ar  355  TRP355      0.0191
    107  CZ3       15.2250  -62.7240   13.9020 C.ar  355  TRP355      0.0001
    108  CH2       14.7120  -63.7790   14.6800 C.ar  355  TRP355      0.0015
    109  N         11.9560  -61.8010   24.4470 N.3   426  GLU426     -0.1245
    110  CA        11.9620  -62.5600   23.1940 C.3   426  GLU426      0.1567
    111  C         11.5770  -64.0270   23.4410 C.2   426  GLU426      0.2260
    112  O         12.2890  -64.9590   23.0620 O.2   426  GLU426     -0.2867
    113  CB        13.3400  -62.4130   22.5340 C.3   426  GLU426      0.0388
    114  CG        13.5280  -63.0340   21.1570 C.3   426  GLU426      0.1160
    115  CD        12.5450  -62.5290   20.1100 C.2   426  GLU426      0.3649
    116  OE1       12.2100  -63.3650   19.2400 O.co2 426  GLU426     -0.2457
    117  OE2       12.1210  -61.3340   20.1430 O.co2 426  GLU426     -0.2457
@<TRIPOS>BOND
     1    55    54    2
     2    54    53    1
     3    50    49    2
     4    53    56    1
     5    53    52    1
     6    49    48    1
     7    49    51   am
     8    57    56    1
     9    48    45    1
    10    52    46   am
    11    81    80    2
    12    80    79    1
    13    45    46    1
    14    45    44    1
    15    46    47    2
    16    79    78    1
    17    79    82    1
    18    83    82    1
    19    44    41   am
    20    42    41    2
    21    78    68   am
    22    61    60    2
    23    58    59    1
    24    82    84    1
    25    41    40    1
    26    60    59    1
    27    68    69    2
    28    68    67    1
    29    66    67    1
    30    59    62    1
    31    85    86    1
    32    93    91   ar
    33    93    94   ar
    34    39    40    1
    35    67    70    1
    36    40    43    1
    37    91    90   ar
    38    62    63    1
    39    94    92   ar
    40    90    89    1
    41    90    92   ar
    42    86    89    1
    43    86    87    1
    44    70    71    1
    45    64    63    2
    46    97    98    2
    47    97    96    1
    48    63    65   am
    49    87    88    2
    50    72    71   ar
    51    72    74   ar
    52    71    73   ar
    53    96    99    1
    54    96    95    1
    55    99   100    1
    56    74    76   ar
    57    73    75   ar
    58    16    15    1
    59    16    17    1
    60    16    19    1
    61    24    25    1
    62    20    19    1
    63    20    21    1
    64    17    18    2
    65   100   101   ar
    66   100   102   ar
    67    23    21   ar
    68    21    22   ar
    69    76    75   ar
    70    76    77    1
    71   101   103   ar
    72   105   102   ar
    73   105   107   ar
    74   102   104   ar
    75    30    28    1
    76    25    28    1
    77    25    26    1
    78   107   108   ar
    79   103   104   ar
    80   104   106   ar
    81    28    29    1
    82    31    32    1
    83    26    27    2
    84   108   106   ar
    85    38    36    1
    86    36    37    1
    87    36    35    1
    88    32    35    1
    89    32    33    1
    90     9    10   ar
    91     9     7   ar
    92    12    10   ar
    93    12    14   ar
    94    33    34    2
    95    10     8   ar
    96    14    13   ar
    97     7     6   ar
    98     8     6   ar
    99     8    11   ar
   100     6     5    1
   101    13    11   ar
   102   116   115   ar
   103     1     2    1
   104     5     2    1
   105     2     3    1
   106   115   117   ar
   107   115   114    1
   108   114   113    1
   109     4     3    2
   110   113   110    1
   111   112   111    2
   112   110   111    1
   113   110   109    1
