@<TRIPOS>MOLECULE
tmp/4eamA03.pdb
 136 138 0 0 0
SMALL
GASTEIGER

@<TRIPOS>ATOM
      1  N          5.3170  -59.0160   25.3150 N.3    18  GLN18      -0.1245
      2  CA         6.7720  -58.8840   25.2930 C.3    18  GLN18       0.1566
      3  C          7.2430  -57.5760   25.8770 C.2    18  GLN18       0.2260
      4  O          8.3890  -57.4730   26.3310 O.2    18  GLN18      -0.2867
      5  CB         7.2930  -59.0590   23.8690 C.3    18  GLN18       0.0367
      6  CG         6.9090  -60.4310   23.2860 C.3    18  GLN18       0.0905
      7  CD         7.3160  -60.6180   21.8140 C.2    18  GLN18       0.2608
      8  OE1        6.4850  -60.9590   20.9790 O.2    18  GLN18      -0.2717
      9  NE2        8.6080  -60.4630   21.5190 N.am   18  GLN18      -0.0878
     10  N         -1.1090  -61.4740   19.0170 N.3   148  HIS148     -0.1226
     11  CA         0.3540  -61.6270   18.8470 C.3   148  HIS148      0.1752
     12  C          0.9060  -62.8350   19.6430 C.2   148  HIS148      0.2596
     13  O          2.0070  -62.7720   20.2220 O.2   148  HIS148     -0.2718
     14  CB         1.0810  -60.3430   19.2550 C.3   148  HIS148      0.0759
     15  CG         2.4620  -60.1960   18.6520 C.ar  148  HIS148      0.0818
     16  ND1        2.8490  -59.0640   17.9630 N.ar  148  HIS148     -0.2268
     17  CD2        3.5400  -61.0160   18.6560 C.ar  148  HIS148      0.1154
     18  CE1        4.1020  -59.1950   17.5590 C.ar  148  HIS148      0.1986
     19  NE2        4.5490  -60.3640   17.9730 N.ar  148  HIS148     -0.2212
     20  N          0.0860  -63.8820   19.6900 N.am  149  TRP149     -0.1976
     21  CA         0.4130  -65.2710   20.0550 C.3   149  TRP149      0.1640
     22  C         -0.2190  -65.7740   21.3490 C.2   149  TRP149      0.2290
     23  O         -0.8140  -66.8550   21.3460 O.2   149  TRP149     -0.2864
     24  CB         1.9080  -65.5860   20.0470 C.3   149  TRP149      0.0576
     25  CG         2.5610  -65.3990   18.7320 C.ar  149  TRP149      0.0006
     26  CD1        1.9900  -65.5350   17.5020 C.ar  149  TRP149      0.0946
     27  CD2        3.9340  -65.0580   18.5130 C.ar  149  TRP149      0.0152
     28  NE1        2.9340  -65.2910   16.5190 N.ar  149  TRP149     -0.2442
     29  CE2        4.1320  -64.9960   17.1210 C.ar  149  TRP149      0.0810
     30  CE3        5.0200  -64.7960   19.3640 C.ar  149  TRP149      0.0012
     31  CZ2        5.3690  -64.6740   16.5570 C.ar  149  TRP149      0.0191
     32  CZ3        6.2570  -64.4630   18.7970 C.ar  149  TRP149      0.0001
     33  CH2        6.4180  -64.4270   17.4060 C.ar  149  TRP149      0.0015
     34  N          2.0260  -63.0110   12.5470 N.3   204  GLU204     -0.1245
     35  CA         2.8180  -64.2150   12.2900 C.3   204  GLU204      0.1567
     36  C          2.0710  -65.4970   12.6620 C.2   204  GLU204      0.2260
     37  O          2.5670  -66.3160   13.4470 O.2   204  GLU204     -0.2867
     38  CB         4.1730  -64.1510   13.0120 C.3   204  GLU204      0.0388
     39  CG         5.0400  -62.9630   12.6140 C.3   204  GLU204      0.1160
     40  CD         6.4770  -63.0730   13.0830 C.2   204  GLU204      0.3649
     41  OE1        6.8210  -64.0840   13.7300 O.co2 204  GLU204     -0.2457
     42  OE2        7.2720  -62.1470   12.7860 O.co2 204  GLU204     -0.2457
     43  N         13.3540  -60.5260    8.3590 N.3   316  TYR316     -0.1241
     44  CA        14.6520  -60.4890    9.0490 C.3   316  TYR316      0.1605
     45  C         15.8340  -60.9990    8.2290 C.2   316  TYR316      0.2264
     46  O         16.9210  -60.4200    8.2720 O.2   316  TYR316     -0.2867
     47  CB        14.5570  -61.2570   10.3740 C.3   316  TYR316      0.0534
     48  CG        13.5870  -60.5850   11.3420 C.ar  316  TYR316     -0.0201
     49  CD1       12.2220  -60.8640   11.3120 C.ar  316  TYR316     -0.0009
     50  CD2       14.0380  -59.6640   12.2640 C.ar  316  TYR316     -0.0009
     51  CE1       11.3470  -60.2480   12.2040 C.ar  316  TYR316      0.0417
     52  CE2       13.1840  -59.0350   13.1390 C.ar  316  TYR316      0.0417
     53  CZ        11.8360  -59.3200   13.1060 C.ar  316  TYR316      0.1957
     54  OH        11.0010  -58.6990   14.0050 O.3   316  TYR316     -0.2866
     55  N         21.5020  -63.6000   17.2810 N.3   353  PHE353     -0.1241
     56  CA        20.5450  -64.7150   17.1430 C.3   353  PHE353      0.1605
     57  C         21.0180  -65.7190   16.0920 C.2   353  PHE353      0.2264
     58  O         20.3720  -66.7600   15.8890 O.2   353  PHE353     -0.2867
     59  CB        19.1780  -64.1440   16.6960 C.3   353  PHE353      0.0534
     60  CG        17.9650  -64.6460   17.4870 C.ar  353  PHE353     -0.0203
     61  CD1       17.8790  -65.9510   17.9260 C.ar  353  PHE353     -0.0042
     62  CD2       16.9010  -63.7930   17.7240 C.ar  353  PHE353     -0.0042
     63  CE1       16.7440  -66.3890   18.6260 C.ar  353  PHE353     -0.0003
     64  CE2       15.7870  -64.2120   18.4020 C.ar  353  PHE353     -0.0003
     65  CZ        15.7060  -65.5110   18.8580 C.ar  353  PHE353     -0.0000
     66  N         21.3440  -64.8840   12.7820 N.3   355  TRP355     -0.1241
     67  CA        20.6050  -64.5580   11.5650 C.3   355  TRP355      0.1605
     68  C         21.4840  -63.7540   10.6220 C.2   355  TRP355      0.2264
     69  O         22.0910  -62.7520   11.0120 O.2   355  TRP355     -0.2867
     70  CB        19.3140  -63.7910   11.8660 C.3   355  TRP355      0.0550
     71  CG        18.3610  -64.5460   12.7660 C.ar  355  TRP355      0.0003
     72  CD1       18.5070  -65.8130   13.2160 C.ar  355  TRP355      0.0946
     73  CD2       17.1150  -64.0630   13.3130 C.ar  355  TRP355      0.0152
     74  NE1       17.4420  -66.1690   14.0120 N.ar  355  TRP355     -0.2442
     75  CE2       16.5740  -65.1090   14.0890 C.ar  355  TRP355      0.0810
     76  CE3       16.4200  -62.8560   13.2180 C.ar  355  TRP355      0.0012
     77  CZ2       15.3830  -64.9730   14.7960 C.ar  355  TRP355      0.0191
     78  CZ3       15.2250  -62.7240   13.9020 C.ar  355  TRP355      0.0001
     79  CH2       14.7120  -63.7790   14.6800 C.ar  355  TRP355      0.0015
     80  N          7.6140  -55.4320   10.4840 N.3   381  GLU381     -0.1245
     81  CA         8.7710  -55.7860   11.3090 C.3   381  GLU381      0.1567
     82  C         10.0210  -55.9150   10.4540 C.2   381  GLU381      0.2260
     83  O         10.0110  -56.5490    9.3830 O.2   381  GLU381     -0.2867
     84  CB         8.6010  -57.0750   12.1010 C.3   381  GLU381      0.0388
     85  CG         7.4970  -57.0220   13.1580 C.3   381  GLU381      0.1160
     86  CD         7.4470  -58.2420   14.0560 C.2   381  GLU381      0.3649
     87  OE1        8.4140  -59.0550   14.0540 O.co2 381  GLU381     -0.2457
     88  OE2        6.3990  -58.4040   14.7600 O.co2 381  GLU381     -0.2457
     89  N         11.4020  -53.3950   14.2790 N.3   419  TRP419     -0.1241
     90  CA        11.2470  -54.2250   15.4740 C.3   419  TRP419      0.1605
     91  C         12.5670  -54.1250   16.2340 C.2   419  TRP419      0.2264
     92  O         13.5650  -54.6890   15.7740 O.2   419  TRP419     -0.2867
     93  CB        10.9440  -55.6930   15.1410 C.3   419  TRP419      0.0550
     94  CG        10.7620  -56.4840   16.4160 C.ar  419  TRP419      0.0003
     95  CD1       11.7510  -57.0420   17.1800 C.ar  419  TRP419      0.0946
     96  CD2        9.5350  -56.6930   17.1460 C.ar  419  TRP419      0.0152
     97  NE1       11.2170  -57.6240   18.3030 N.ar  419  TRP419     -0.2442
     98  CE2        9.8600  -57.4160   18.3080 C.ar  419  TRP419      0.0810
     99  CE3        8.2060  -56.3530   16.9170 C.ar  419  TRP419      0.0012
    100  CZ2        8.8960  -57.8050   19.2410 C.ar  419  TRP419      0.0191
    101  CZ3        7.2440  -56.7860   17.8340 C.ar  419  TRP419      0.0001
    102  CH2        7.6020  -57.4860   18.9750 C.ar  419  TRP419      0.0015
    103  N         11.9560  -61.8010   24.4470 N.3   426  GLU426     -0.1231
    104  CA        11.9620  -62.5600   23.1940 C.3   426  GLU426      0.1699
    105  C         11.5770  -64.0270   23.4410 C.2   426  GLU426      0.2592
    106  O         12.2890  -64.9590   23.0620 O.2   426  GLU426     -0.2718
    107  CB        13.3400  -62.4130   22.5340 C.3   426  GLU426      0.0402
    108  CG        13.5280  -63.0340   21.1570 C.3   426  GLU426      0.1161
    109  CD        12.5450  -62.5290   20.1100 C.2   426  GLU426      0.3649
    110  OE1       12.2100  -63.3650   19.2400 O.co2 426  GLU426     -0.2457
    111  OE2       12.1210  -61.3340   20.1430 O.co2 426  GLU426     -0.2457
    112  N         10.4340  -64.2150   24.1010 N.am  427  TRP427     -0.1976
    113  CA         9.8530  -65.5280   24.3140 C.3   427  TRP427      0.1640
    114  C         10.8590  -66.5210   24.8750 C.2   427  TRP427      0.2290
    115  O         11.3730  -66.2840   25.9620 O.2   427  TRP427     -0.2864
    116  CB         9.1480  -66.0090   23.0560 C.3   427  TRP427      0.0576
    117  CG         7.7740  -65.3910   22.9290 C.ar  427  TRP427      0.0006
    118  CD1        7.4590  -64.1280   22.4690 C.ar  427  TRP427      0.0946
    119  CD2        6.5380  -65.9940   23.3070 C.ar  427  TRP427      0.0152
    120  NE1        6.1000  -63.9400   22.5170 N.ar  427  TRP427     -0.2442
    121  CE2        5.5120  -65.0650   23.0310 C.ar  427  TRP427      0.0810
    122  CE3        6.1840  -67.2450   23.8480 C.ar  427  TRP427      0.0012
    123  CZ2        4.1730  -65.3530   23.2630 C.ar  427  TRP427      0.0191
    124  CZ3        4.8450  -67.5120   24.0790 C.ar  427  TRP427      0.0001
    125  CH2        3.8640  -66.5800   23.7830 C.ar  427  TRP427      0.0015
    126  N         16.5860  -56.4060   20.4910 N.3   435  PHE435     -0.1241
    127  CA        16.1980  -55.8460   19.1900 C.3   435  PHE435      0.1605
    128  C         15.9360  -54.3280   19.2130 C.2   435  PHE435      0.2264
    129  O         15.5730  -53.7460   18.2050 O.2   435  PHE435     -0.2867
    130  CB        14.9250  -56.5290   18.6660 C.3   435  PHE435      0.0534
    131  CG        15.1490  -57.9010   18.0620 C.ar  435  PHE435     -0.0203
    132  CD1       15.1880  -59.0270   18.8660 C.ar  435  PHE435     -0.0042
    133  CD2       15.2620  -58.0550   16.6810 C.ar  435  PHE435     -0.0042
    134  CE1       15.3680  -60.3310   18.2990 C.ar  435  PHE435     -0.0003
    135  CE2       15.4380  -59.3180   16.1050 C.ar  435  PHE435     -0.0003
    136  CZ        15.4890  -60.4650   16.9140 C.ar  435  PHE435     -0.0000
@<TRIPOS>BOND
     1    45    46    2
     2    45    44    1
     3    43    44    1
     4    44    47    1
     5    83    82    2
     6    47    48    1
     7    82    81    1
     8    80    81    1
     9    68    69    2
    10    68    67    1
    11    81    84    1
    12    49    48   ar
    13    49    51   ar
    14    48    50   ar
    15    67    70    1
    16    67    66    1
    17    70    71    1
    18    84    85    1
    19    51    53   ar
    20    50    52   ar
    21    35    34    1
    22    35    36    1
    23    35    38    1
    24    39    38    1
    25    39    40    1
    26    36    37    2
    27    71    72   ar
    28    71    73   ar
    29    42    40   ar
    30    40    41   ar
    31    53    52   ar
    32    53    54    1
    33    85    86    1
    34    72    74   ar
    35    76    73   ar
    36    76    78   ar
    37    73    75   ar
    38    78    79   ar
    39    74    75   ar
    40    87    86   ar
    41    86    88   ar
    42    75    77   ar
    43    89    90    1
    44    79    77   ar
    45    93    90    1
    46    93    94    1
    47    90    91    1
    48    92    91    2
    49    58    57    2
    50    57    56    1
    51   135   133   ar
    52   135   136   ar
    53    94    96   ar
    54    94    95   ar
    55    28    29   ar
    56    28    26   ar
    57    31    29   ar
    58    31    33   ar
    59   133   131   ar
    60    59    56    1
    61    59    60    1
    62   136   134   ar
    63    99    96   ar
    64    99   101   ar
    65    29    27   ar
    66    56    55    1
    67    96    98   ar
    68    95    97   ar
    69    33    32   ar
    70    60    62   ar
    71    60    61   ar
    72    26    25   ar
    73    18    16   ar
    74    18    19   ar
    75    62    64   ar
    76   101   102   ar
    77    61    63   ar
    78    16    15   ar
    79    19    17   ar
    80   131   130    1
    81   131   132   ar
    82   129   128    2
    83   134   132   ar
    84    97    98   ar
    85    98   100   ar
    86    64    65   ar
    87    27    25   ar
    88    27    30   ar
    89    63    65   ar
    90    15    17   ar
    91    15    14    1
    92   130   127    1
    93    25    24    1
    94    32    30   ar
    95    11    10    1
    96    11    14    1
    97    11    12    1
    98   102   100   ar
    99   127   128    1
   100   127   126    1
   101   110   109   ar
   102    12    20   am
   103    12    13    2
   104    20    21    1
   105    24    21    1
   106    21    22    1
   107   109   111   ar
   108   109   108    1
   109     8     7    2
   110   108   107    1
   111    23    22    2
   112     9     7   am
   113     7     6    1
   114   118   120   ar
   115   118   117   ar
   116   120   121   ar
   117   107   104    1
   118   117   116    1
   119   117   119   ar
   120   121   123   ar
   121   121   119   ar
   122   116   113    1
   123   106   105    2
   124   104   105    1
   125   104   103    1
   126   123   125   ar
   127     6     5    1
   128   119   122   ar
   129   105   112   am
   130   125   124   ar
   131   122   124   ar
   132     5     2    1
   133   112   113    1
   134   113   114    1
   135   114   115    2
   136     2     1    1
   137     2     3    1
   138     3     4    2
