@<TRIPOS>MOLECULE
tmp/4eamA02.pdb
 127 126 0 0 0
SMALL
GASTEIGER

@<TRIPOS>ATOM
      1  N          5.3170  -59.0160   25.3150 N.3    18  GLN18      -0.1245
      2  CA         6.7720  -58.8840   25.2930 C.3    18  GLN18       0.1566
      3  C          7.2430  -57.5760   25.8770 C.2    18  GLN18       0.2260
      4  O          8.3890  -57.4730   26.3310 O.2    18  GLN18      -0.2867
      5  CB         7.2930  -59.0590   23.8690 C.3    18  GLN18       0.0367
      6  CG         6.9090  -60.4310   23.2860 C.3    18  GLN18       0.0905
      7  CD         7.3160  -60.6180   21.8140 C.2    18  GLN18       0.2608
      8  OE1        6.4850  -60.9590   20.9790 O.2    18  GLN18      -0.2717
      9  NE2        8.6080  -60.4630   21.5190 N.am   18  GLN18      -0.0878
     10  N          0.0860  -63.8820   19.6900 N.3   149  TRP149     -0.1241
     11  CA         0.4130  -65.2710   20.0550 C.3   149  TRP149      0.1605
     12  C         -0.2190  -65.7740   21.3490 C.2   149  TRP149      0.2264
     13  O         -0.8140  -66.8550   21.3460 O.2   149  TRP149     -0.2867
     14  CB         1.9080  -65.5860   20.0470 C.3   149  TRP149      0.0550
     15  CG         2.5610  -65.3990   18.7320 C.ar  149  TRP149      0.0003
     16  CD1        1.9900  -65.5350   17.5020 C.ar  149  TRP149      0.0946
     17  CD2        3.9340  -65.0580   18.5130 C.ar  149  TRP149      0.0152
     18  NE1        2.9340  -65.2910   16.5190 N.ar  149  TRP149     -0.2442
     19  CE2        4.1320  -64.9960   17.1210 C.ar  149  TRP149      0.0810
     20  CE3        5.0200  -64.7960   19.3640 C.ar  149  TRP149      0.0012
     21  CZ2        5.3690  -64.6740   16.5570 C.ar  149  TRP149      0.0191
     22  CZ3        6.2570  -64.4630   18.7970 C.ar  149  TRP149      0.0001
     23  CH2        6.4180  -64.4270   17.4060 C.ar  149  TRP149      0.0015
     24  N          2.0260  -63.0110   12.5470 N.3   204  GLU204     -0.1245
     25  CA         2.8180  -64.2150   12.2900 C.3   204  GLU204      0.1567
     26  C          2.0710  -65.4970   12.6620 C.2   204  GLU204      0.2260
     27  O          2.5670  -66.3160   13.4470 O.2   204  GLU204     -0.2867
     28  CB         4.1730  -64.1510   13.0120 C.3   204  GLU204      0.0388
     29  CG         5.0400  -62.9630   12.6140 C.3   204  GLU204      0.1160
     30  CD         6.4770  -63.0730   13.0830 C.2   204  GLU204      0.3649
     31  OE1        6.8210  -64.0840   13.7300 O.co2 204  GLU204     -0.2457
     32  OE2        7.2720  -62.1470   12.7860 O.co2 204  GLU204     -0.2457
     33  N          3.9220  -68.8240   12.4900 N.3   207  VAL207     -0.1245
     34  CA         4.7780  -69.2210   13.6000 C.3   207  VAL207      0.1561
     35  C          4.0260  -70.1420   14.5560 C.2   207  VAL207      0.2260
     36  O          4.6110  -71.0730   15.1310 O.2   207  VAL207     -0.2867
     37  CB         5.3490  -67.9770   14.3170 C.3   207  VAL207      0.0252
     38  CG1        5.9080  -68.3390   15.6890 C.3   207  VAL207      0.0019
     39  CG2        6.4120  -67.3390   13.4550 C.3   207  VAL207      0.0019
     40  N          6.1610  -73.3590   14.5420 N.3   211  LEU211     -0.1245
     41  CA         6.9810  -73.6120   15.7360 C.3   211  LEU211      0.1561
     42  C          6.1960  -74.3910   16.7870 C.2   211  LEU211      0.2260
     43  O          6.7660  -75.1920   17.5060 O.2   211  LEU211     -0.2867
     44  CB         7.4990  -72.3110   16.3260 C.3   211  LEU211      0.0270
     45  CG         8.4900  -71.5330   15.4460 C.3   211  LEU211      0.0019
     46  CD1        9.1220  -70.3940   16.2180 C.3   211  LEU211      0.0001
     47  CD2        9.5550  -72.4490   14.8770 C.3   211  LEU211      0.0001
     48  N         12.0670  -75.1090   19.5590 N.3   218  SER218     -0.1202
     49  CA        12.0780  -73.6550   19.6830 C.3   218  SER218      0.2020
     50  C         11.4980  -73.1290   20.9910 C.2   218  SER218      0.2619
     51  O         11.8050  -72.0010   21.4050 O.2   218  SER218     -0.2717
     52  CB        11.3370  -73.0170   18.5220 C.3   218  SER218      0.2103
     53  OG         9.9340  -73.2710   18.6060 O.3   218  SER218     -0.2182
     54  N         10.7190  -73.9500   21.6700 N.am  219  GLY219     -0.1942
     55  CA        10.0850  -73.5310   22.9040 C.3   219  GLY219      0.2014
     56  C          8.8700  -72.6420   22.6790 C.2   219  GLY219      0.2638
     57  O          8.5470  -71.7840   23.5260 O.2   219  GLY219     -0.2714
     58  N          8.2170  -72.8040   21.5290 N.am  220  PHE220     -0.1973
     59  CA         6.9270  -72.1490   21.2730 C.3   220  PHE220      0.1639
     60  C          5.7670  -73.0640   21.6920 C.2   220  PHE220      0.2290
     61  O          5.7390  -74.2480   21.3310 O.2   220  PHE220     -0.2864
     62  CB         6.7860  -71.7940   19.7930 C.3   220  PHE220      0.0560
     63  CG         5.7180  -70.7610   19.5240 C.ar  220  PHE220     -0.0200
     64  CD1        4.4230  -71.1370   19.2990 C.ar  220  PHE220     -0.0042
     65  CD2        6.0350  -69.4110   19.5150 C.ar  220  PHE220     -0.0042
     66  CE1        3.4300  -70.1740   19.0870 C.ar  220  PHE220     -0.0003
     67  CE2        5.0740  -68.4600   19.2950 C.ar  220  PHE220     -0.0003
     68  CZ         3.7720  -68.8430   19.0740 C.ar  220  PHE220     -0.0000
     69  N         21.5020  -63.6000   17.2810 N.3   353  PHE353     -0.1241
     70  CA        20.5450  -64.7150   17.1430 C.3   353  PHE353      0.1605
     71  C         21.0180  -65.7190   16.0920 C.2   353  PHE353      0.2264
     72  O         20.3720  -66.7600   15.8890 O.2   353  PHE353     -0.2867
     73  CB        19.1780  -64.1440   16.6960 C.3   353  PHE353      0.0534
     74  CG        17.9650  -64.6460   17.4870 C.ar  353  PHE353     -0.0203
     75  CD1       17.8790  -65.9510   17.9260 C.ar  353  PHE353     -0.0042
     76  CD2       16.9010  -63.7930   17.7240 C.ar  353  PHE353     -0.0042
     77  CE1       16.7440  -66.3890   18.6260 C.ar  353  PHE353     -0.0003
     78  CE2       15.7870  -64.2120   18.4020 C.ar  353  PHE353     -0.0003
     79  CZ        15.7060  -65.5110   18.8580 C.ar  353  PHE353     -0.0000
     80  N         21.3440  -64.8840   12.7820 N.3   355  TRP355     -0.1241
     81  CA        20.6050  -64.5580   11.5650 C.3   355  TRP355      0.1605
     82  C         21.4840  -63.7540   10.6220 C.2   355  TRP355      0.2264
     83  O         22.0910  -62.7520   11.0120 O.2   355  TRP355     -0.2867
     84  CB        19.3140  -63.7910   11.8660 C.3   355  TRP355      0.0550
     85  CG        18.3610  -64.5460   12.7660 C.ar  355  TRP355      0.0003
     86  CD1       18.5070  -65.8130   13.2160 C.ar  355  TRP355      0.0946
     87  CD2       17.1150  -64.0630   13.3130 C.ar  355  TRP355      0.0152
     88  NE1       17.4420  -66.1690   14.0120 N.ar  355  TRP355     -0.2442
     89  CE2       16.5740  -65.1090   14.0890 C.ar  355  TRP355      0.0810
     90  CE3       16.4200  -62.8560   13.2180 C.ar  355  TRP355      0.0012
     91  CZ2       15.3830  -64.9730   14.7960 C.ar  355  TRP355      0.0191
     92  CZ3       15.2250  -62.7240   13.9020 C.ar  355  TRP355      0.0001
     93  CH2       14.7120  -63.7790   14.6800 C.ar  355  TRP355      0.0015
     94  N         11.9560  -61.8010   24.4470 N.3   426  GLU426     -0.1231
     95  CA        11.9620  -62.5600   23.1940 C.3   426  GLU426      0.1699
     96  C         11.5770  -64.0270   23.4410 C.2   426  GLU426      0.2592
     97  O         12.2890  -64.9590   23.0620 O.2   426  GLU426     -0.2718
     98  CB        13.3400  -62.4130   22.5340 C.3   426  GLU426      0.0402
     99  CG        13.5280  -63.0340   21.1570 C.3   426  GLU426      0.1161
    100  CD        12.5450  -62.5290   20.1100 C.2   426  GLU426      0.3649
    101  OE1       12.2100  -63.3650   19.2400 O.co2 426  GLU426     -0.2457
    102  OE2       12.1210  -61.3340   20.1430 O.co2 426  GLU426     -0.2457
    103  N         10.4340  -64.2150   24.1010 N.am  427  TRP427     -0.1962
    104  CA         9.8530  -65.5280   24.3140 C.3   427  TRP427      0.1771
    105  C         10.8590  -66.5210   24.8750 C.2   427  TRP427      0.2619
    106  O         11.3730  -66.2840   25.9620 O.2   427  TRP427     -0.2715
    107  CB         9.1480  -66.0090   23.0560 C.3   427  TRP427      0.0590
    108  CG         7.7740  -65.3910   22.9290 C.ar  427  TRP427      0.0006
    109  CD1        7.4590  -64.1280   22.4690 C.ar  427  TRP427      0.0946
    110  CD2        6.5380  -65.9940   23.3070 C.ar  427  TRP427      0.0152
    111  NE1        6.1000  -63.9400   22.5170 N.ar  427  TRP427     -0.2442
    112  CE2        5.5120  -65.0650   23.0310 C.ar  427  TRP427      0.0810
    113  CE3        6.1840  -67.2450   23.8480 C.ar  427  TRP427      0.0012
    114  CZ2        4.1730  -65.3530   23.2630 C.ar  427  TRP427      0.0191
    115  CZ3        4.8450  -67.5120   24.0790 C.ar  427  TRP427      0.0001
    116  CH2        3.8640  -66.5800   23.7830 C.ar  427  TRP427      0.0015
    117  N         11.1480  -67.6180   24.1760 N.am  428  ALA428     -0.1963
    118  CA        11.9890  -68.6630   24.7690 C.3   428  ALA428      0.1728
    119  C         13.4580  -68.2150   25.0050 C.2   428  ALA428      0.2616
    120  O         14.1620  -68.8260   25.8160 O.2   428  ALA428     -0.2715
    121  CB        11.9360  -69.9600   23.9040 C.3   428  ALA428      0.0334
    122  N         13.9130  -67.1990   24.2680 N.am  429  SER429     -0.1950
    123  CA        15.2290  -66.6040   24.4470 C.3   429  SER429      0.1924
    124  C         15.2890  -65.6100   25.6230 C.2   429  SER429      0.2314
    125  O         16.3770  -65.1410   25.9990 O.2   429  SER429     -0.2863
    126  CB        15.6890  -65.9100   23.1420 C.3   429  SER429      0.2116
    127  OG        15.9200  -66.8740   22.1270 O.3   429  SER429     -0.2180
@<TRIPOS>BOND
     1    82    83    2
     2    82    81    1
     3    81    84    1
     4    81    80    1
     5    84    85    1
     6    25    24    1
     7    25    26    1
     8    25    28    1
     9    33    34    1
    10    29    28    1
    11    29    30    1
    12    26    27    2
    13    85    86   ar
    14    85    87   ar
    15    32    30   ar
    16    30    31   ar
    17    86    88   ar
    18    90    87   ar
    19    90    92   ar
    20    87    89   ar
    21    39    37    1
    22    34    37    1
    23    34    35    1
    24    92    93   ar
    25    88    89   ar
    26    89    91   ar
    27    37    38    1
    28    40    41    1
    29    35    36    2
    30    93    91   ar
    31    47    45    1
    32    45    46    1
    33    45    44    1
    34    41    44    1
    35    41    42    1
    36    72    71    2
    37    71    70    1
    38    18    19   ar
    39    18    16   ar
    40    21    19   ar
    41    21    23   ar
    42    73    70    1
    43    73    74    1
    44    42    43    2
    45    19    17   ar
    46    70    69    1
    47    23    22   ar
    48    74    76   ar
    49    74    75   ar
    50    16    15   ar
    51    76    78   ar
    52    75    77   ar
    53    78    79   ar
    54    17    15   ar
    55    17    20   ar
    56    52    53    1
    57    52    49    1
    58    77    79   ar
    59    15    14    1
    60    22    20   ar
    61    68    66   ar
    62    68    67   ar
    63    66    64   ar
    64   101   100   ar
    65    67    65   ar
    66    64    63   ar
    67    65    63   ar
    68    63    62    1
    69    48    49    1
    70    49    50    1
    71    10    11    1
    72    62    59    1
    73    14    11    1
    74    11    12    1
    75   100   102   ar
    76   100    99    1
    77     8     7    2
    78    50    51    2
    79    50    54   am
    80    99    98    1
    81    59    58    1
    82    59    60    1
    83    61    60    2
    84    13    12    2
    85     9     7   am
    86    58    56   am
    87    54    55    1
    88     7     6    1
    89   127   126    1
    90   109   111   ar
    91   109   108   ar
    92   111   112   ar
    93    98    95    1
    94    56    55    1
    95    56    57    2
    96   108   107    1
    97   108   110   ar
    98   112   114   ar
    99   112   110   ar
   100   107   104    1
   101    97    96    2
   102   126   123    1
   103    95    96    1
   104    95    94    1
   105   114   116   ar
   106     6     5    1
   107   110   113   ar
   108    96   103   am
   109   116   115   ar
   110   113   115   ar
   111     5     2    1
   112   121   118    1
   113   103   104    1
   114   117   118    1
   115   117   105   am
   116   122   123    1
   117   122   119   am
   118   104   105    1
   119   123   124    1
   120   118   119    1
   121   105   106    2
   122   119   120    2
   123     2     1    1
   124     2     3    1
   125   124   125    2
   126     3     4    2
