@<TRIPOS>MOLECULE
tmp/4eaqA00.pdb
 130 123 0 0 0
SMALL
GASTEIGER

@<TRIPOS>ATOM
      1  N          7.7450   -2.0080   26.8460 N.3    16  GLU16      -0.1245
      2  CA         7.9000   -0.6510   26.2810 C.3    16  GLU16       0.1567
      3  C          7.8830   -0.8040   24.7820 C.2    16  GLU16       0.2260
      4  O          8.3210   -1.8210   24.2690 O.2    16  GLU16      -0.2867
      5  CB         9.2590   -0.0790   26.6960 C.3    16  GLU16       0.0388
      6  CG         9.4640    0.1090   28.1930 C.3    16  GLU16       0.1160
      7  CD         9.2330   -1.1350   29.0720 C.2    16  GLU16       0.3649
      8  OE1        9.7950   -2.2970   28.8630 O.co2  16  GLU16      -0.2457
      9  OE2        8.4860   -0.8940   30.0520 O.co2  16  GLU16      -0.2457
     10  N          0.9960    0.5710   24.1260 N.3    20  LYS20      -0.1231
     11  CA        -0.0090    0.4630   25.2080 C.3    20  LYS20       0.1693
     12  C         -0.6820    1.7660   25.5980 C.2    20  LYS20       0.2592
     13  O         -1.9220    1.8470   25.6510 O.2    20  LYS20      -0.2718
     14  CB         0.5820   -0.2480   26.4270 C.3    20  LYS20       0.0285
     15  CG        -0.3720   -0.3840   27.6150 C.3    20  LYS20       0.0035
     16  CD         0.2390   -1.2310   28.7290 C.3    20  LYS20       0.0206
     17  CE         1.6060   -0.7610   29.2500 C.3    20  LYS20       0.1093
     18  NZ         1.7100    0.6910   29.6350 N.3    20  LYS20      -0.1314
     19  N          0.1000    2.8100   25.7880 N.am   21  THR21      -0.1953
     20  CA        -0.4610    4.0980   26.1350 C.3    21  THR21       0.1897
     21  C         -1.5060    4.5720   25.1420 C.2    21  THR21       0.2313
     22  O         -2.6320    4.8950   25.5410 O.2    21  THR21      -0.2863
     23  CB         0.6310    5.1830   26.2530 C.3    21  THR21       0.1794
     24  OG1        1.3730    4.9450   27.4370 O.3    21  THR21      -0.2208
     25  CG2        0.0280    6.5800   26.3600 C.3    21  THR21       0.0378
     26  N         -4.6210    3.9610   36.0300 N.3    41  ARG41      -0.1231
     27  CA        -3.2650    3.4000   36.1380 C.3    41  ARG41       0.1694
     28  C         -2.7970    3.6220   37.5600 C.2    41  ARG41       0.2591
     29  O         -2.9350    4.7440   38.0500 O.2    41  ARG41      -0.2718
     30  CB        -2.3880    4.1760   35.1770 C.3    41  ARG41       0.0321
     31  CG        -0.8980    4.0360   35.2940 C.3    41  ARG41       0.0489
     32  CD        -0.2450    5.0320   34.3280 C.3    41  ARG41       0.2205
     33  NE         1.1940    4.8220   34.2460 N.pl3  41  ARG41      -0.0865
     34  CZ         2.0930    5.3210   35.1010 C.cat  41  ARG41       0.5346
     35  NH1        3.3880    5.0610   34.9080 N.pl3  41  ARG41       0.1354
     36  NH2        1.7180    6.0740   36.1480 N.pl3  41  ARG41       0.1354
     37  N         -2.0910    2.6710   38.1440 N.am   42  GLU42      -0.1979
     38  CA        -1.6120    2.7790   39.5290 C.3    42  GLU42       0.1602
     39  C         -0.5920    3.9000   39.6190 C.2    42  GLU42       0.2287
     40  O          0.2950    3.9850   38.7470 O.2    42  GLU42      -0.2864
     41  CB        -0.9060    1.5140   39.9450 C.3    42  GLU42       0.0415
     42  CG        -1.8570    0.3410   39.9350 C.3    42  GLU42       0.1163
     43  CD        -1.1460   -0.9800   39.9070 C.2    42  GLU42       0.3649
     44  OE1       -0.0110   -1.0530   39.4480 O.co2  42  GLU42      -0.2457
     45  OE2       -1.8020   -1.9330   40.2760 O.co2  42  GLU42      -0.2457
     46  N          4.5050    6.2050   45.6360 N.3    53  ARG53      -0.1245
     47  CA         5.1670    6.3590   44.3310 C.3    53  ARG53       0.1563
     48  C          6.2760    7.4100   44.3130 C.2    53  ARG53       0.2260
     49  O          7.2250    7.3440   43.5280 O.2    53  ARG53      -0.2867
     50  CB         4.1420    6.7790   43.2790 C.3    53  ARG53       0.0307
     51  CG         4.3920    6.1790   41.9220 C.3    53  ARG53       0.0489
     52  CD         4.0040    4.7140   42.0340 C.3    53  ARG53       0.2205
     53  NE         3.9900    4.0220   40.7550 N.pl3  53  ARG53      -0.0865
     54  CZ         3.3190    2.8920   40.5190 C.cat  53  ARG53       0.5346
     55  NH1        2.5330    2.3230   41.4730 N.pl3  53  ARG53       0.1354
     56  NH2        3.3910    2.3640   39.2990 N.pl3  53  ARG53       0.1354
     57  N          5.6090   -1.1210   45.1650 N.3    68  PHE68      -0.1241
     58  CA         4.6450   -1.2760   44.0780 C.3    68  PHE68       0.1605
     59  C          3.4210   -2.0580   44.5570 C.2    68  PHE68       0.2264
     60  O          2.2980   -1.7440   44.1750 O.2    68  PHE68      -0.2867
     61  CB         5.2130   -2.0660   42.8900 C.3    68  PHE68       0.0534
     62  CG         5.9960   -1.2350   41.9150 C.ar   68  PHE68      -0.0203
     63  CD1        7.3680   -1.1320   41.9950 C.ar   68  PHE68      -0.0042
     64  CD2        5.3460   -0.5490   40.8980 C.ar   68  PHE68      -0.0042
     65  CE1        8.0880   -0.3430   41.1070 C.ar   68  PHE68      -0.0003
     66  CE2        6.0650    0.2220   39.9920 C.ar   68  PHE68      -0.0003
     67  CZ         7.4410    0.3200   40.0970 C.ar   68  PHE68      -0.0000
     68  N         -0.3870   -0.7240   44.7000 N.3    72  ARG72      -0.1245
     69  CA        -1.4150   -1.4770   44.0450 C.3    72  ARG72       0.1563
     70  C         -2.6120   -1.7540   44.9130 C.2    72  ARG72       0.2260
     71  O         -3.7540   -1.6990   44.4220 O.2    72  ARG72      -0.2867
     72  CB        -0.8290   -2.7570   43.5180 C.3    72  ARG72       0.0307
     73  CG        -1.7820   -3.8070   43.0020 C.3    72  ARG72       0.0489
     74  CD        -1.0380   -4.8450   42.1810 C.3    72  ARG72       0.2205
     75  NE        -0.3470   -4.1620   41.0550 N.pl3  72  ARG72      -0.0865
     76  CZ         0.9280   -4.2760   40.7190 C.cat  72  ARG72       0.5346
     77  NH1        1.6740   -5.3000   41.1900 N.pl3  72  ARG72       0.1354
     78  NH2        1.3950   -3.5120   39.7290 N.pl3  72  ARG72       0.1354
     79  N         -4.1610    0.2740   33.1700 N.3    93  ASP93      -0.1225
     80  CA        -2.8730    0.2250   32.5360 C.3    93  ASP93       0.1805
     81  C         -1.8640   -0.3420   33.5270 C.2    93  ASP93       0.2597
     82  O         -1.4350    0.3330   34.3960 O.2    93  ASP93      -0.2718
     83  CB        -2.4830    1.6560   32.1250 C.3    93  ASP93       0.1424
     84  CG        -1.2020    1.7350   31.3560 C.2    93  ASP93       0.3668
     85  OD1       -0.5780    0.7280   31.1150 O.co2  93  ASP93      -0.2456
     86  OD2       -0.8130    2.8360   30.9770 O.co2  93  ASP93      -0.2456
     87  N         -1.5450   -1.6210   33.3720 N.am   94  ARG94      -0.1979
     88  CA        -0.6430   -2.3590   34.2300 C.3    94  ARG94       0.1597
     89  C         -1.3360   -2.8940   35.4810 C.2    94  ARG94       0.2287
     90  O         -2.2260   -2.3140   35.9830 O.2    94  ARG94      -0.2864
     91  CB         0.6720   -1.6410   34.4560 C.3    94  ARG94       0.0334
     92  CG         1.5420   -1.5430   33.2220 C.3    94  ARG94       0.0492
     93  CD         2.9770   -1.1530   33.5360 C.3    94  ARG94       0.2205
     94  NE         3.7290   -0.8520   32.3390 N.pl3  94  ARG94      -0.0865
     95  CZ         4.1720   -1.7520   31.4860 C.cat  94  ARG94       0.5346
     96  NH1        3.9750   -3.0330   31.6870 N.pl3  94  ARG94       0.1354
     97  NH2        4.8360   -1.3650   30.4350 N.pl3  94  ARG94       0.1354
     98  N          2.6530   -7.0500   35.3810 N.3    98  SER98      -0.1202
     99  CA         3.8270   -6.2050   35.1930 C.3    98  SER98       0.2020
    100  C          4.8650   -6.4510   36.2860 C.2    98  SER98       0.2619
    101  O          6.0730   -6.5420   36.0030 O.2    98  SER98      -0.2717
    102  CB         3.4870   -4.7120   35.1490 C.3    98  SER98       0.2103
    103  OG         2.8370   -4.3600   33.9440 O.3    98  SER98      -0.2182
    104  N          4.4200   -6.5590   37.5350 N.am   99  SER99      -0.1951
    105  CA         5.3200   -6.8680   38.6370 C.3    99  SER99       0.1924
    106  C          5.9530   -8.2520   38.4030 C.2    99  SER99       0.2314
    107  O          7.1400   -8.4070   38.6410 O.2    99  SER99      -0.2863
    108  CB         4.6100   -6.8270   40.0210 C.3    99  SER99       0.2116
    109  OG         4.3290   -5.4890   40.4080 O.3    99  SER99      -0.2180
    110  N          8.5330   -7.6830   35.2460 N.3   102  TYR102     -0.1227
    111  CA         9.6500   -6.8030   35.5340 C.3   102  TYR102      0.1736
    112  C         10.4190   -7.1110   36.7970 C.2   102  TYR102      0.2595
    113  O         11.6470   -7.2980   36.7460 O.2   102  TYR102     -0.2718
    114  CB         9.1710   -5.3210   35.5800 C.3   102  TYR102      0.0548
    115  CG         8.8130   -4.7050   34.2410 C.ar  102  TYR102     -0.0200
    116  CD1        7.5630   -4.8900   33.6750 C.ar  102  TYR102     -0.0009
    117  CD2        9.6940   -3.8340   33.5790 C.ar  102  TYR102     -0.0009
    118  CE1        7.2350   -4.3530   32.4570 C.ar  102  TYR102      0.0417
    119  CE2        9.3480   -3.2570   32.3710 C.ar  102  TYR102      0.0417
    120  CZ         8.1160   -3.5010   31.8210 C.ar  102  TYR102      0.1957
    121  OH         7.7330   -2.9380   30.6300 O.3   102  TYR102     -0.2866
    122  N          9.7170   -7.1970   37.9330 N.am  103  GLN103     -0.1979
    123  CA        10.3740   -7.4740   39.1840 C.3   103  GLN103      0.1601
    124  C         10.6940   -8.9280   39.3840 C.2   103  GLN103      0.2287
    125  O         11.7920   -9.2740   39.8060 O.2   103  GLN103     -0.2864
    126  CB         9.5460   -7.0270   40.3840 C.3   103  GLN103      0.0394
    127  CG         9.7400   -5.5710   40.7540 C.3   103  GLN103      0.0908
    128  CD         9.0040   -4.6270   39.9250 C.2   103  GLN103      0.2608
    129  OE1        7.8210   -4.8030   39.6780 O.2   103  GLN103     -0.2717
    130  NE2        9.6690   -3.5070   39.5800 N.am  103  GLN103     -0.0878
@<TRIPOS>BOND
     1    10    11    1
     2     4     3    2
     3     3     2    1
     4    21    22    2
     5    21    20    1
     6    11    12    1
     7    11    14    1
     8    12    13    2
     9    12    19   am
    10    19    20    1
    11    20    23    1
    12    23    25    1
    13    23    24    1
    14     2     5    1
    15     2     1    1
    16    14    15    1
    17     5     6    1
    18    15    16    1
    19     6     7    1
    20    16    17    1
    21     8     7   ar
    22     7     9   ar
    23    17    18    1
    24    97    95    1
    25   121   120    1
    26    86    84   ar
    27    85    84   ar
    28    84    83    1
    29    95    96    1
    30    95    94    2
    31   120   119   ar
    32   120   118   ar
    33    83    80    1
    34    94    93    1
    35   119   117   ar
    36   118   116   ar
    37    80    79    1
    38    80    81    1
    39    92    93    1
    40    92    91    1
    41    87    81   am
    42    87    88    1
    43    81    82    2
    44   117   115   ar
    45   116   115   ar
    46   103   102    1
    47    88    91    1
    48    88    89    1
    49   115   114    1
    50    33    32    1
    51    33    34    2
    52    32    31    1
    53    35    34    1
    54    34    36    1
    55   102    99    1
    56    30    31    1
    57    30    27    1
    58    99    98    1
    59    99   100    1
    60   110   111    1
    61    89    90    2
    62   111   114    1
    63   111   112    1
    64   101   100    2
    65    26    27    1
    66    27    28    1
    67   100   104   am
    68   113   112    2
    69   112   122   am
    70   104   105    1
    71    28    29    2
    72    28    37   am
    73   122   123    1
    74    37    38    1
    75   106   105    1
    76   106   107    2
    77   105   108    1
    78    40    39    2
    79   123   124    1
    80   123   126    1
    81    56    54    1
    82   124   125    2
    83    44    43   ar
    84    38    39    1
    85    38    41    1
    86   130   128   am
    87   129   128    2
    88    78    76    1
    89    43    42    1
    90    43    45   ar
    91   128   127    1
    92    42    41    1
    93    66    67   ar
    94    66    64   ar
    95   108   109    1
    96    67    65   ar
    97   126   127    1
    98    54    53    2
    99    54    55    1
   100    76    75    2
   101    76    77    1
   102    53    52    1
   103    64    62   ar
   104    75    74    1
   105    65    63   ar
   106    62    63   ar
   107    62    61    1
   108    51    52    1
   109    51    50    1
   110    74    73    1
   111    61    58    1
   112    73    72    1
   113    50    47    1
   114    72    69    1
   115    49    48    2
   116    69    68    1
   117    69    70    1
   118    58    59    1
   119    58    57    1
   120    60    59    2
   121    48    47    1
   122    47    46    1
   123    71    70    2
