@<TRIPOS>MOLECULE
tmp/4eawA00.pdb
 210 200 0 0 0
SMALL
GASTEIGER

@<TRIPOS>ATOM
      1  N        -17.2900    4.0190   20.7890 N.3   155  ARG155     -0.1245
      2  CA       -17.4190    2.7850   20.0460 C.3   155  ARG155      0.1563
      3  C        -18.1490    3.0730   18.7410 C.2   155  ARG155      0.2260
      4  O        -18.8980    4.0240   18.6320 O.2   155  ARG155     -0.2867
      5  CB       -18.1700    1.6960   20.8200 C.3   155  ARG155      0.0307
      6  CG       -17.3010    0.9870   21.8970 C.3   155  ARG155      0.0489
      7  CD       -17.8890   -0.3550   22.3420 C.3   155  ARG155      0.2205
      8  NE       -19.3250   -0.2570   22.6190 N.pl3 155  ARG155     -0.0865
      9  CZ       -20.0900   -1.2590   23.2060 C.cat 155  ARG155      0.5346
     10  NH1      -21.3730   -1.0500   23.4810 N.pl3 155  ARG155      0.1354
     11  NH2      -19.5730   -2.4620   23.4440 N.pl3 155  ARG155      0.1354
     12  N        -26.8690  -16.6370   27.8310 N.3   190  PHE190     -0.1241
     13  CA       -28.1070  -15.8780   27.6980 C.3   190  PHE190      0.1605
     14  C        -29.3920  -16.5930   28.1040 C.2   190  PHE190      0.2264
     15  O        -30.4320  -15.9430   28.2200 O.2   190  PHE190     -0.2867
     16  CB       -28.2110  -15.2770   26.2900 C.3   190  PHE190      0.0534
     17  CG       -27.1160  -14.3060   25.9660 C.ar  190  PHE190     -0.0203
     18  CD1      -27.0700  -13.0570   26.6030 C.ar  190  PHE190     -0.0042
     19  CD2      -26.1330  -14.6090   25.0220 C.ar  190  PHE190     -0.0042
     20  CE1      -26.0600  -12.1230   26.2950 C.ar  190  PHE190     -0.0003
     21  CE2      -25.1040  -13.6710   24.7070 C.ar  190  PHE190     -0.0003
     22  CZ       -25.0580  -12.4410   25.3380 C.ar  190  PHE190     -0.0000
     23  N        -30.4690  -14.0330   36.5340 N.3   194  PRO194     -0.2116
     24  CA       -29.3080  -13.8250   37.3840 C.3   194  PRO194      0.1372
     25  C        -29.1420  -14.9110   38.4660 C.2   194  PRO194      0.2244
     26  O        -28.0070  -15.3480   38.6680 O.2   194  PRO194     -0.2868
     27  CB       -29.5520  -12.4350   37.9690 C.3   194  PRO194      0.0268
     28  CG       -30.3360  -11.7600   36.9100 C.3   194  PRO194      0.0207
     29  CD       -31.2930  -12.8140   36.4530 C.3   194  PRO194      0.0892
     30  N        -27.8010  -17.9890   36.7320 N.3   197  ARG197     -0.1245
     31  CA       -26.3850  -17.7790   36.4180 C.3   197  ARG197      0.1563
     32  C        -25.4640  -17.9900   37.6180 C.2   197  ARG197      0.2260
     33  O        -24.4800  -18.6900   37.5180 O.2   197  ARG197     -0.2867
     34  CB       -26.1740  -16.3810   35.8680 C.3   197  ARG197      0.0307
     35  CG       -24.7450  -16.0760   35.3340 C.3   197  ARG197      0.0489
     36  CD       -24.7780  -14.6050   34.8870 C.3   197  ARG197      0.2205
     37  NE       -23.7670  -14.0910   33.9950 N.pl3 197  ARG197     -0.0865
     38  CZ       -22.5250  -13.7770   34.3340 C.cat 197  ARG197      0.5346
     39  NH1      -22.0370  -13.9550   35.5730 N.pl3 197  ARG197      0.1354
     40  NH2      -21.7540  -13.2750   33.3900 N.pl3 197  ARG197      0.1354
     41  N        -15.0230   -8.0860   17.6690 N.3   222  ASP222     -0.1239
     42  CA       -15.7080   -7.9380   16.3670 C.3   222  ASP222      0.1674
     43  C        -14.7250   -7.8770   15.1890 C.2   222  ASP222      0.2266
     44  O        -14.9210   -8.5250   14.1350 O.2   222  ASP222     -0.2867
     45  CB       -16.6260   -6.6930   16.4100 C.3   222  ASP222      0.1410
     46  CG       -17.9530   -6.9620   17.1710 C.2   222  ASP222      0.3668
     47  OD1      -18.1440   -8.0640   17.7320 O.co2 222  ASP222     -0.2456
     48  OD2      -18.8230   -6.0630   17.2060 O.co2 222  ASP222     -0.2456
     49  N        -25.1830  -10.8180   15.4610 N.3   284  THR284     -0.1203
     50  CA       -23.9530  -10.4110   16.1580 C.3   284  THR284      0.1994
     51  C        -23.7600  -11.2140   17.4430 C.2   284  THR284      0.2618
     52  O        -22.6970  -11.7930   17.6740 O.2   284  THR284     -0.2717
     53  CB       -23.9430   -8.9080   16.4270 C.3   284  THR284      0.1784
     54  OG1      -23.9360   -8.2320   15.1630 O.3   284  THR284     -0.2211
     55  CG2      -22.7140   -8.5070   17.2390 C.3   284  THR284      0.0376
     56  N        -24.7980  -11.2890   18.2580 N.am  285  SER285     -0.1951
     57  CA       -24.6680  -12.0180   19.5270 C.3   285  SER285      0.1924
     58  C        -24.4740  -13.5350   19.3210 C.2   285  SER285      0.2314
     59  O        -23.5610  -14.1350   19.8800 O.2   285  SER285     -0.2863
     60  CB       -25.8950  -11.7710   20.3880 C.3   285  SER285      0.2116
     61  OG       -25.8120  -12.4340   21.6350 O.3   285  SER285     -0.2180
     62  N        -21.1160  -14.1790   17.5220 N.3   288  ASN288     -0.1240
     63  CA       -20.0160  -14.0030   18.4550 C.3   288  ASN288      0.1653
     64  C        -19.9510  -15.1140   19.4720 C.2   288  ASN288      0.2266
     65  O        -18.8480  -15.6120   19.7830 O.2   288  ASN288     -0.2867
     66  CB       -20.0370  -12.6390   19.1770 C.3   288  ASN288      0.1155
     67  CG       -19.5670  -11.5260   18.3320 C.2   288  ASN288      0.2627
     68  OD1      -19.0390  -11.7570   17.2080 O.2   288  ASN288     -0.2716
     69  ND2      -19.6830  -10.2750   18.8670 N.am  288  ASN288     -0.0877
     70  N        -20.8910  -15.5000   26.8070 N.3   313  TYR313     -0.1227
     71  CA       -21.8940  -14.4660   26.4520 C.3   313  TYR313      0.1736
     72  C        -21.2580  -13.6730   25.3550 C.2   313  TYR313      0.2596
     73  O        -20.3910  -12.8530   25.6350 O.2   313  TYR313     -0.2718
     74  CB       -22.1420  -13.4680   27.6280 C.3   313  TYR313      0.0548
     75  CG       -22.9170  -13.9910   28.7540 C.ar  313  TYR313     -0.0200
     76  CD1      -22.3150  -14.7790   29.7370 C.ar  313  TYR313     -0.0009
     77  CD2      -24.2690  -13.6980   28.8640 C.ar  313  TYR313     -0.0009
     78  CE1      -23.0650  -15.2660   30.8140 C.ar  313  TYR313      0.0417
     79  CE2      -25.0210  -14.1770   29.9220 C.ar  313  TYR313      0.0417
     80  CZ       -24.4230  -14.9620   30.8980 C.ar  313  TYR313      0.1957
     81  OH       -25.2150  -15.4450   31.9090 O.3   313  TYR313     -0.2866
     82  N        -21.6110  -13.9510   24.1040 N.am  314  GLY314     -0.1942
     83  CA       -20.9250  -13.3290   22.9840 C.3   314  GLY314      0.2014
     84  C        -19.4310  -13.4550   23.0650 C.2   314  GLY314      0.2639
     85  O        -18.9060  -14.5250   23.1590 O.2   314  GLY314     -0.2714
     86  N        -18.7580  -12.3170   23.0520 N.am  315  ASP315     -0.1957
     87  CA       -17.3060  -12.2450   23.1960 C.3   315  ASP315      0.1840
     88  C        -16.8020  -12.4790   24.6220 C.2   315  ASP315      0.2622
     89  O        -15.6160  -12.5950   24.8390 O.2   315  ASP315     -0.2715
     90  CB       -16.7760  -10.8490   22.7140 C.3   315  ASP315      0.1450
     91  CG       -17.5660   -9.5960   23.2780 C.2   315  ASP315      0.3671
     92  OD1      -18.4950   -9.6710   24.1270 O.co2 315  ASP315     -0.2456
     93  OD2      -17.2640   -8.4890   22.7970 O.co2 315  ASP315     -0.2456
     94  N        -17.6920  -12.5570   25.6000 N.am  316  ASP316     -0.1971
     95  CA       -17.2540  -12.6730   26.9930 C.3   316  ASP316      0.1709
     96  C        -17.1600  -14.1390   27.4220 C.2   316  ASP316      0.2293
     97  O        -18.1280  -14.8480   27.3620 O.2   316  ASP316     -0.2864
     98  CB       -18.2250  -11.8560   27.8570 C.3   316  ASP316      0.1436
     99  CG       -17.7060  -11.6530   29.2590 C.2   316  ASP316      0.3671
    100  OD1      -17.3190  -10.5120   29.5670 O.co2 316  ASP316     -0.2456
    101  OD2      -17.6730  -12.6390   30.0340 O.co2 316  ASP316     -0.2456
    102  N        -18.8250  -10.7660   32.2660 N.3   363  CYS363     -0.1235
    103  CA       -19.6910   -9.6090   31.9350 C.3   363  CYS363      0.1677
    104  C        -19.5000   -8.4710   32.9750 C.2   363  CYS363      0.2270
    105  O        -20.4660   -8.0000   33.5400 O.2   363  CYS363     -0.2867
    106  CB       -21.1670  -10.0320   31.8460 C.3   363  CYS363      0.0956
    107  SG       -21.5490  -11.3920   30.6100 S.3   363  CYS363     -0.0801
    108  N        -18.8370   -8.6610   35.9490 N.3   365  SER365     -0.1217
    109  CA       -19.4630   -8.9990   37.1990 C.3   365  SER365      0.1889
    110  C        -18.7200  -10.1010   37.9270 C.2   365  SER365      0.2288
    111  O        -18.0560  -10.9600   37.3160 O.2   365  SER365     -0.2866
    112  CB       -20.8980   -9.4260   36.9380 C.3   365  SER365      0.2089
    113  OG       -21.5370   -8.4460   36.1440 O.3   365  SER365     -0.2183
    114  N        -24.5680  -11.8280   42.0930 N.3   381  LEU381     -0.1245
    115  CA       -23.6860  -11.1080   41.1930 C.3   381  LEU381      0.1561
    116  C        -23.6900   -9.5820   41.4080 C.2   381  LEU381      0.2260
    117  O        -24.7320   -8.9650   41.6390 O.2   381  LEU381     -0.2867
    118  CB       -24.0750  -11.4550   39.7420 C.3   381  LEU381      0.0270
    119  CG       -23.8760  -12.9380   39.3700 C.3   381  LEU381      0.0019
    120  CD1      -24.6570  -13.2230   38.1080 C.3   381  LEU381      0.0001
    121  CD2      -22.4100  -13.3160   39.1510 C.3   381  LEU381      0.0001
    122  N        -30.3290    2.7730   31.2750 N.3   404  SER404     -0.1217
    123  CA       -29.4110    1.8050   31.9100 C.3   404  SER404      0.1889
    124  C        -29.7330    1.5480   33.3780 C.2   404  SER404      0.2288
    125  O        -29.5230    0.4290   33.8870 O.2   404  SER404     -0.2866
    126  CB       -27.9430    2.2270   31.7630 C.3   404  SER404      0.2089
    127  OG       -27.6400    3.3490   32.5700 O.3   404  SER404     -0.2183
    128  N        -32.3510   -1.3210   33.8730 N.3   407  GLY407     -0.1210
    129  CA       -31.6690   -2.5500   33.6720 C.3   407  GLY407      0.1956
    130  C        -30.7690   -2.9590   34.8510 C.2   407  GLY407      0.2611
    131  O        -30.7060   -4.1430   35.1910 O.2   407  GLY407     -0.2717
    132  N        -30.0510   -1.9930   35.4210 N.am  408  ASN408     -0.1974
    133  CA       -29.1640   -2.2420   36.5730 C.3   408  ASN408      0.1688
    134  C        -29.9600   -2.5780   37.8140 C.2   408  ASN408      0.2292
    135  O        -29.6060   -3.4850   38.5250 O.2   408  ASN408     -0.2864
    136  CB       -28.2110   -1.0760   36.8140 C.3   408  ASN408      0.1181
    137  CG       -27.0800   -1.0130   35.7830 C.2   408  ASN408      0.2629
    138  OD1      -26.4890   -2.0530   35.4100 O.2   408  ASN408     -0.2716
    139  ND2      -26.7550    0.2070   35.3330 N.am  408  ASN408     -0.0877
    140  N        -31.3520   -6.3470   37.1550 N.3   411  MET411     -0.1230
    141  CA       -30.3380   -7.3940   37.0640 C.3   411  MET411      0.1702
    142  C        -29.3550   -7.4380   38.2400 C.2   411  MET411      0.2592
    143  O        -28.7410   -8.4880   38.5070 O.2   411  MET411     -0.2718
    144  CB       -29.6090   -7.2420   35.7330 C.3   411  MET411      0.0401
    145  CG       -30.4990   -7.4640   34.4790 C.3   411  MET411      0.0596
    146  SD       -31.2800   -9.0980   34.4140 S.3   411  MET411     -0.1393
    147  CE       -30.0030  -10.1200   33.6550 C.3   411  MET411      0.0692
    148  N        -29.1520   -6.3070   38.8980 N.am  412  TYR412     -0.1976
    149  CA       -28.3110   -6.2070   40.1000 C.3   412  TYR412      0.1639
    150  C        -29.0950   -5.8860   41.3810 C.2   412  TYR412      0.2290
    151  O        -28.5300   -5.4230   42.3650 O.2   412  TYR412     -0.2864
    152  CB       -27.1990   -5.1510   39.8870 C.3   412  TYR412      0.0560
    153  CG       -26.1190   -5.5390   38.8840 C.ar  412  TYR412     -0.0198
    154  CD1      -25.2350   -6.5650   39.1520 C.ar  412  TYR412     -0.0009
    155  CD2      -25.9830   -4.8510   37.6940 C.ar  412  TYR412     -0.0009
    156  CE1      -24.2580   -6.9040   38.2750 C.ar  412  TYR412      0.0417
    157  CE2      -25.0260   -5.1780   36.8040 C.ar  412  TYR412      0.0417
    158  CZ       -24.1600   -6.1970   37.0760 C.ar  412  TYR412      0.1957
    159  OH       -23.1970   -6.4840   36.1410 O.3   412  TYR412     -0.2866
    160  N        -32.8270   -2.3550   28.4160 N.3   443  GLN443     -0.1231
    161  CA       -32.2510   -3.3850   27.5750 C.3   443  GLN443      0.1698
    162  C        -31.7570   -4.4800   28.4960 C.2   443  GLN443      0.2592
    163  O        -30.9250   -4.2080   29.3580 O.2   443  GLN443     -0.2718
    164  CB       -31.1060   -2.7780   26.7750 C.3   443  GLN443      0.0381
    165  CG       -30.9530   -3.3420   25.4080 C.3   443  GLN443      0.0905
    166  CD       -30.0390   -2.4810   24.5670 C.2   443  GLN443      0.2608
    167  OE1      -28.8510   -2.3820   24.8520 O.2   443  GLN443     -0.2717
    168  NE2      -30.5970   -1.8350   23.5460 N.am  443  GLN443     -0.0878
    169  N        -32.2680   -5.6940   28.3040 N.am  444  ILE444     -0.1966
    170  CA       -31.8470   -6.8660   29.0490 C.3   444  ILE444      0.1727
    171  C        -31.3350   -7.9010   28.0210 C.2   444  ILE444      0.2616
    172  O        -32.0750   -8.3280   27.1490 O.2   444  ILE444     -0.2715
    173  CB       -33.0220   -7.4940   29.8570 C.3   444  ILE444      0.0290
    174  CG1      -33.6850   -6.4830   30.8220 C.3   444  ILE444      0.0022
    175  CG2      -32.5710   -8.7860   30.5360 C.3   444  ILE444      0.0023
    176  CD1      -32.8330   -6.0720   31.9340 C.3   444  ILE444      0.0001
    177  N        -30.0780   -8.2890   28.1320 N.am  445  TYR445     -0.1960
    178  CA       -29.4170   -9.1850   27.1630 C.3   445  TYR445      0.1771
    179  C        -29.6540   -8.7070   25.7210 C.2   445  TYR445      0.2620
    180  O        -30.0000   -9.4790   24.8270 O.2   445  TYR445     -0.2715
    181  CB       -29.9100  -10.6330   27.3800 C.3   445  TYR445      0.0574
    182  CG       -29.4050  -11.3540   28.6490 C.ar  445  TYR445     -0.0198
    183  CD1      -28.4020  -10.8160   29.4940 C.ar  445  TYR445     -0.0009
    184  CD2      -29.9030  -12.6290   28.9720 C.ar  445  TYR445     -0.0009
    185  CE1      -27.9330  -11.5420   30.6370 C.ar  445  TYR445      0.0417
    186  CE2      -29.4430  -13.3330   30.1020 C.ar  445  TYR445      0.0417
    187  CZ       -28.4680  -12.7870   30.9270 C.ar  445  TYR445      0.1957
    188  OH       -28.0340  -13.5370   32.0290 O.3   445  TYR445     -0.2866
    189  N        -29.5020   -7.4060   25.5290 N.am  446  GLY446     -0.1954
    190  CA       -29.6010   -6.7940   24.2360 C.3   446  GLY446      0.1869
    191  C        -30.9570   -6.4450   23.6800 C.2   446  GLY446      0.2309
    192  O        -31.0150   -5.6290   22.7600 O.2   446  GLY446     -0.2863
    193  N        -29.3600  -10.6350   22.0020 N.3   552  TYR552     -0.1227
    194  CA       -29.6880   -9.8940   20.7900 C.3   552  TYR552      0.1736
    195  C        -28.9960   -8.5120   20.6760 C.2   552  TYR552      0.2596
    196  O        -29.5130   -7.5940   20.0410 O.2   552  TYR552     -0.2718
    197  CB       -31.1810   -9.6550   20.7710 C.3   552  TYR552      0.0548
    198  CG       -32.0270  -10.8900   20.8630 C.ar  552  TYR552     -0.0200
    199  CD1      -32.2280  -11.6910   19.7530 C.ar  552  TYR552     -0.0009
    200  CD2      -32.6070  -11.2710   22.0630 C.ar  552  TYR552     -0.0009
    201  CE1      -33.0100  -12.8190   19.8240 C.ar  552  TYR552      0.0417
    202  CE2      -33.4300  -12.3890   22.1460 C.ar  552  TYR552      0.0417
    203  CZ       -33.6350  -13.1480   21.0030 C.ar  552  TYR552      0.1957
    204  OH       -34.4150  -14.2580   21.0630 O.3   552  TYR552     -0.2866
    205  N        -27.8480   -8.3590   21.3000 N.am  553  SER553     -0.1952
    206  CA       -27.1080   -7.1080   21.2300 C.3   553  SER553      0.1924
    207  C        -26.8470   -6.7220   19.7790 C.2   553  SER553      0.2314
    208  O        -26.3260   -7.5440   18.9820 O.2   553  SER553     -0.2863
    209  CB       -25.7900   -7.2180   21.9700 C.3   553  SER553      0.2116
    210  OG       -24.9580   -6.1160   21.6570 O.3   553  SER553     -0.2180
@<TRIPOS>BOND
     1    44    43    2
     2    54    53    1
     3    43    42    1
     4    49    50    1
     5    50    53    1
     6    50    51    1
     7    42    45    1
     8    42    41    1
     9    45    46    1
    10    53    55    1
    11    46    48   ar
    12    46    47   ar
    13    68    67    2
    14    51    52    2
    15    51    56   am
    16    62    63    1
    17    56    57    1
    18    67    69   am
    19    67    66    1
    20    63    66    1
    21    63    64    1
    22     4     3    2
    23     3     2    1
    24   208   207    2
    25    58    57    1
    26    58    59    2
    27    64    65    2
    28    57    60    1
    29   199   201   ar
    30   199   198   ar
    31   207   206    1
    32   201   203   ar
    33   196   195    2
    34     2     1    1
    35     2     5    1
    36    60    61    1
    37   195   194    1
    38   195   205   am
    39   197   194    1
    40   197   198    1
    41   194   193    1
    42     5     6    1
    43   198   200   ar
    44   203   204    1
    45   203   202   ar
    46   206   205    1
    47   206   209    1
    48   210   209    1
    49     6     7    1
    50   200   202   ar
    51     7     8    1
    52     8     9    2
    53    90    87    1
    54    90    91    1
    55   192   191    2
    56    93    91   ar
    57    83    84    1
    58    83    82    1
    59    86    84   am
    60    86    87    1
    61    84    85    2
    62    87    88    1
    63     9    11    1
    64     9    10    1
    65    91    92   ar
    66   168   166   am
    67   191   190    1
    68    82    72   am
    69   190   189    1
    70   166   167    2
    71   166   165    1
    72    88    89    2
    73    88    94   am
    74    21    19   ar
    75    21    22   ar
    76   180   179    2
    77    19    17   ar
    78    22    20   ar
    79    72    73    2
    80    72    71    1
    81   165   164    1
    82   189   179   am
    83    94    95    1
    84   179   178    1
    85    17    16    1
    86    17    18   ar
    87    16    13    1
    88    20    18   ar
    89    71    70    1
    90    71    74    1
    91   164   161    1
    92    95    96    1
    93    95    98    1
    94   172   171    2
    95   178   181    1
    96   178   177    1
    97    97    96    2
    98   181   182    1
    99   161   160    1
   100   161   162    1
   101    74    75    1
   102    13    12    1
   103    13    14    1
   104    98    99    1
   105   171   177   am
   106   171   170    1
   107    14    15    2
   108   169   162   am
   109   169   170    1
   110   162   163    2
   111   182   184   ar
   112   182   183   ar
   113    75    77   ar
   114    75    76   ar
   115    77    79   ar
   116   184   186   ar
   117   170   173    1
   118    99   100   ar
   119    99   101   ar
   120   183   185   ar
   121    76    78   ar
   122   173   175    1
   123   173   174    1
   124    79    80   ar
   125   186   187   ar
   126   107   106    1
   127   185   187   ar
   128    78    80   ar
   129   174   176    1
   130    80    81    1
   131   187   188    1
   132   122   123    1
   133   126   123    1
   134   126   127    1
   135   106   103    1
   136   123   124    1
   137   103   102    1
   138   103   104    1
   139   104   105    2
   140   124   125    2
   141    40    38    1
   142   147   146    1
   143   129   128    1
   144   129   130    1
   145    37    38    2
   146    37    36    1
   147    38    39    1
   148   146   145    1
   149   145   144    1
   150   130   131    2
   151   130   132   am
   152    36    35    1
   153   139   137   am
   154    35    34    1
   155   138   137    2
   156   132   133    1
   157   144   141    1
   158   137   136    1
   159    34    31    1
   160   108   109    1
   161   159   158    1
   162   113   112    1
   163    31    30    1
   164    31    32    1
   165    29    23    1
   166    29    28    1
   167    23    24    1
   168   133   136    1
   169   133   134    1
   170   157   158   ar
   171   157   155   ar
   172    28    27    1
   173   112   109    1
   174   141   140    1
   175   141   142    1
   176   158   156   ar
   177   109   110    1
   178   111   110    2
   179    24    27    1
   180    24    25    1
   181    33    32    2
   182   155   153   ar
   183   134   135    2
   184   120   119    1
   185   142   143    2
   186   142   148   am
   187   156   154   ar
   188    25    26    2
   189   153   154   ar
   190   153   152    1
   191   148   149    1
   192   121   119    1
   193   119   118    1
   194   118   115    1
   195   152   149    1
   196   149   150    1
   197   115   116    1
   198   115   114    1
   199   150   151    2
   200   116   117    2
