@<TRIPOS>MOLECULE
tmp/4eawA02.pdb
 128 121 0 0 0
SMALL
GASTEIGER

@<TRIPOS>ATOM
      1  N        -10.8350   -3.5270    8.4470 N.3     4  TYR4       -0.1241
      2  CA       -11.4360   -2.3710    7.7810 C.3     4  TYR4        0.1605
      3  C        -10.4200   -1.7260    6.8600 C.2     4  TYR4        0.2264
      4  O         -9.2330   -1.6980    7.1690 O.2     4  TYR4       -0.2867
      5  CB       -11.7910   -1.2880    8.8060 C.3     4  TYR4        0.0534
      6  CG       -12.9140   -1.6450    9.7010 C.ar    4  TYR4       -0.0201
      7  CD1      -14.2230   -1.3490    9.3410 C.ar    4  TYR4       -0.0009
      8  CD2      -12.6900   -2.3100   10.9180 C.ar    4  TYR4       -0.0009
      9  CE1      -15.2850   -1.7310   10.1250 C.ar    4  TYR4        0.0417
     10  CE2      -13.7440   -2.6580   11.7290 C.ar    4  TYR4        0.0417
     11  CZ       -15.0340   -2.3510   11.3390 C.ar    4  TYR4        0.1957
     12  OH       -16.0760   -2.6660   12.1330 O.3     4  TYR4       -0.2866
     13  N        -10.7830    5.3940   17.7260 N.3    48  ARG48      -0.1245
     14  CA       -11.3650    4.0510   17.7150 C.3    48  ARG48       0.1563
     15  C        -11.0960    3.3520   16.3880 C.2    48  ARG48       0.2260
     16  O        -10.7820    2.1770   16.4050 O.2    48  ARG48      -0.2867
     17  CB       -12.8620    4.0700   18.0210 C.3    48  ARG48       0.0307
     18  CG       -13.5110    2.6460   18.1740 C.3    48  ARG48       0.0489
     19  CD       -12.9620    1.7850   19.3280 C.3    48  ARG48       0.2205
     20  NE       -13.6250    0.4730   19.3900 N.pl3  48  ARG48      -0.0865
     21  CZ       -13.2620   -0.5400   20.1880 C.cat  48  ARG48       0.5346
     22  NH1      -13.9150   -1.6880   20.1660 N.pl3  48  ARG48       0.1354
     23  NH2      -12.2240   -0.4270   20.9840 N.pl3  48  ARG48       0.1354
     24  N         -9.5150   -0.4010   15.9420 N.3    52  VAL52      -0.1245
     25  CA       -10.2560   -1.5570   15.4110 C.3    52  VAL52       0.1561
     26  C         -9.7510   -2.0380   14.0380 C.2    52  VAL52       0.2260
     27  O        -10.3020   -2.9760   13.4850 O.2    52  VAL52      -0.2867
     28  CB       -11.7800   -1.2840   15.3910 C.3    52  VAL52       0.0252
     29  CG1      -12.2630   -0.8630   16.7550 C.3    52  VAL52       0.0019
     30  CG2      -12.1480   -0.2470   14.3150 C.3    52  VAL52       0.0019
     31  N        -22.1910    3.5930    9.2360 N.3   138  ILE138     -0.1245
     32  CA       -21.2850    3.5760   10.3890 C.3   138  ILE138      0.1561
     33  C        -21.5120    4.8560   11.2190 C.2   138  ILE138      0.2260
     34  O        -21.5860    5.9530   10.6630 O.2   138  ILE138     -0.2867
     35  CB       -19.8040    3.4150    9.9950 C.3   138  ILE138      0.0252
     36  CG1      -18.9500    3.2700   11.2620 C.3   138  ILE138      0.0019
     37  CG2      -19.3360    4.6020    9.1070 C.3   138  ILE138      0.0019
     38  CD1      -17.6460    2.5700   11.0610 C.3   138  ILE138      0.0001
     39  N        -17.2900    4.0190   20.7890 N.3   155  ARG155     -0.1231
     40  CA       -17.4190    2.7850   20.0460 C.3   155  ARG155      0.1694
     41  C        -18.1490    3.0730   18.7410 C.2   155  ARG155      0.2591
     42  O        -18.8980    4.0240   18.6320 O.2   155  ARG155     -0.2718
     43  CB       -18.1700    1.6960   20.8200 C.3   155  ARG155      0.0321
     44  CG       -17.3010    0.9870   21.8970 C.3   155  ARG155      0.0489
     45  CD       -17.8890   -0.3550   22.3420 C.3   155  ARG155      0.2205
     46  NE       -19.3250   -0.2570   22.6190 N.pl3 155  ARG155     -0.0865
     47  CZ       -20.0900   -1.2590   23.2060 C.cat 155  ARG155      0.5346
     48  NH1      -21.3730   -1.0500   23.4810 N.pl3 155  ARG155      0.1354
     49  NH2      -19.5730   -2.4620   23.4440 N.pl3 155  ARG155      0.1354
     50  N        -17.9200    2.2270   17.7610 N.am  156  LEU156     -0.1980
     51  CA       -18.4980    2.4070   16.4390 C.3   156  LEU156      0.1596
     52  C        -19.5740    1.3740   16.2650 C.2   156  LEU156      0.2287
     53  O        -19.4300    0.2610   16.7710 O.2   156  LEU156     -0.2864
     54  CB       -17.4340    2.2370   15.3660 C.3   156  LEU156      0.0297
     55  CG       -16.2480    3.2120   15.5070 C.3   156  LEU156      0.0022
     56  CD1      -15.1510    2.9220   14.4410 C.3   156  LEU156      0.0001
     57  CD2      -16.6750    4.6430   15.4380 C.3   156  LEU156      0.0001
     58  N        -22.2280   -0.4210   13.2520 N.3   158  VAL158     -0.1245
     59  CA       -22.3910   -0.6340   11.8220 C.3   158  VAL158      0.1561
     60  C        -23.7240   -1.4000   11.6590 C.2   158  VAL158      0.2260
     61  O        -23.8830   -2.4780   12.2060 O.2   158  VAL158     -0.2867
     62  CB       -21.1990   -1.4560   11.2440 C.3   158  VAL158      0.0252
     63  CG1      -21.4450   -1.8900    9.8290 C.3   158  VAL158      0.0019
     64  CG2      -19.8650   -0.6320   11.3480 C.3   158  VAL158      0.0019
     65  N        -10.7860   -6.2670   20.9330 N.3   220  CYS220     -0.1221
     66  CA       -11.5760   -5.8430   19.7770 C.3   220  CYS220      0.1808
     67  C        -12.2230   -7.0580   19.0680 C.2   220  CYS220      0.2601
     68  O        -11.9710   -7.3080   17.8820 O.2   220  CYS220     -0.2717
     69  CB       -10.6910   -5.0310   18.7810 C.3   220  CYS220      0.0970
     70  SG       -10.0610   -3.4180   19.3900 S.3   220  CYS220     -0.0800
     71  N        -13.0390   -7.8210   19.7960 N.am  221  PHE221     -0.1962
     72  CA       -13.5210   -9.0960   19.2860 C.3   221  PHE221      0.1771
     73  C        -14.1240   -9.0330   17.8890 C.2   221  PHE221      0.2620
     74  O        -13.7760   -9.8420   17.0300 O.2   221  PHE221     -0.2715
     75  CB       -14.4910   -9.7470   20.2640 C.3   221  PHE221      0.0574
     76  CG       -14.8380  -11.1270   19.8940 C.ar  221  PHE221     -0.0200
     77  CD1      -15.8940  -11.3730   19.0360 C.ar  221  PHE221     -0.0042
     78  CD2      -14.1280  -12.2090   20.4020 C.ar  221  PHE221     -0.0042
     79  CE1      -16.2500  -12.6520   18.6810 C.ar  221  PHE221     -0.0003
     80  CE2      -14.4780  -13.5210   20.0620 C.ar  221  PHE221     -0.0003
     81  CZ       -15.5470  -13.7500   19.1940 C.ar  221  PHE221     -0.0000
     82  N        -15.0230   -8.0860   17.6690 N.am  222  ASP222     -0.1957
     83  CA       -15.7080   -7.9380   16.3670 C.3   222  ASP222      0.1840
     84  C        -14.7250   -7.8770   15.1890 C.2   222  ASP222      0.2622
     85  O        -14.9210   -8.5250   14.1350 O.2   222  ASP222     -0.2715
     86  CB       -16.6260   -6.6930   16.4100 C.3   222  ASP222      0.1450
     87  CG       -17.9530   -6.9620   17.1710 C.2   222  ASP222      0.3671
     88  OD1      -18.1440   -8.0640   17.7320 O.co2 222  ASP222     -0.2456
     89  OD2      -18.8230   -6.0630   17.2060 O.co2 222  ASP222     -0.2456
     90  N        -13.6310   -7.1530   15.4050 N.am  223  SER223     -0.1950
     91  CA       -12.6040   -6.9880   14.3900 C.3   223  SER223      0.1924
     92  C        -11.7380   -8.2400   14.1910 C.2   223  SER223      0.2314
     93  O        -11.1000   -8.3540   13.1530 O.2   223  SER223     -0.2863
     94  CB       -11.6870   -5.8030   14.7300 C.3   223  SER223      0.2116
     95  OG       -12.4280   -4.6390   14.5930 O.3   223  SER223     -0.2180
     96  N        -15.7350   -2.9170    5.4140 N.3   274  ARG274     -0.1245
     97  CA       -15.6230   -3.8720    6.5180 C.3   274  ARG274      0.1563
     98  C        -15.4200   -5.3090    6.0110 C.2   274  ARG274      0.2260
     99  O        -16.1210   -5.7420    5.0780 O.2   274  ARG274     -0.2867
    100  CB       -16.9140   -3.7970    7.3450 C.3   274  ARG274      0.0307
    101  CG       -17.1580   -4.8960    8.3920 C.3   274  ARG274      0.0489
    102  CD       -18.4670   -4.6730    9.1680 C.3   274  ARG274      0.2205
    103  NE       -19.5850   -4.6950    8.2250 N.pl3 274  ARG274     -0.0865
    104  CZ       -20.2300   -5.7850    7.8100 C.cat 274  ARG274      0.5346
    105  NH1      -19.9630   -7.0020    8.2930 N.pl3 274  ARG274      0.1354
    106  NH2      -21.1770   -5.6430    6.8930 N.pl3 274  ARG274      0.1354
    107  N        -16.9370   -8.6440   11.7380 N.3   277  ARG277     -0.1231
    108  CA       -18.2980   -8.6440   12.2770 C.3   277  ARG277      0.1694
    109  C        -18.8540   -7.2120   12.3670 C.2   277  ARG277      0.2592
    110  O        -18.1690   -6.3340   12.8470 O.2   277  ARG277     -0.2718
    111  CB       -18.2460   -9.2070   13.6920 C.3   277  ARG277      0.0321
    112  CG       -19.5120   -9.0730   14.4790 C.3   277  ARG277      0.0489
    113  CD       -20.5190  -10.1620   14.0920 C.3   277  ARG277      0.2205
    114  NE       -19.9730  -11.4250   14.5660 N.pl3 277  ARG277     -0.0865
    115  CZ       -20.1820  -12.6020   14.0190 C.cat 277  ARG277      0.5346
    116  NH1      -21.0230  -12.7290   13.0040 N.pl3 277  ARG277      0.1354
    117  NH2      -19.5800  -13.6560   14.5420 N.pl3 277  ARG277      0.1354
    118  N        -20.0900   -7.0190   11.9330 N.am  278  ALA278     -0.1966
    119  CA       -20.8350   -5.8140   12.1480 C.3   278  ALA278      0.1728
    120  C        -21.4610   -5.8930   13.5170 C.2   278  ALA278      0.2616
    121  O        -22.0920   -6.9000   13.8310 O.2   278  ALA278     -0.2715
    122  CB       -21.9510   -5.7390   11.1170 C.3   278  ALA278      0.0334
    123  N        -21.4250   -4.8210   14.2740 N.am  279  SER279     -0.1950
    124  CA       -22.0340   -4.8150   15.6260 C.3   279  SER279      0.1924
    125  C        -23.5450   -4.7500   15.5990 C.2   279  SER279      0.2314
    126  O        -24.1930   -5.1820   16.5450 O.2   279  SER279     -0.2863
    127  CB       -21.6070   -3.5980   16.4400 C.3   279  SER279      0.2116
    128  OG       -22.0980   -2.4010   15.8520 O.3   279  SER279     -0.2180
@<TRIPOS>BOND
     1    99    98    2
     2    96    97    1
     3    98    97    1
     4    97   100    1
     5     3     4    2
     6     3     2    1
     7   106   104    1
     8   100   101    1
     9     2     1    1
    10     2     5    1
    11   104   103    2
    12   104   105    1
    13   103   102    1
    14   101   102    1
    15     5     6    1
    16    37    35    1
    17    31    32    1
    18     7     6   ar
    19     7     9   ar
    20     6     8   ar
    21    63    62    1
    22    35    32    1
    23    35    36    1
    24     9    11   ar
    25    32    33    1
    26    34    33    2
    27     8    10   ar
    28    38    36    1
    29   122   119    1
    30    62    64    1
    31    62    59    1
    32    11    10   ar
    33    11    12    1
    34    60    59    1
    35    60    61    2
    36   107   108    1
    37    59    58    1
    38   118   119    1
    39   118   109   am
    40   119   120    1
    41   108   109    1
    42   108   111    1
    43   109   110    2
    44   116   115    1
    45    93    92    2
    46    27    26    2
    47   120   121    2
    48   120   123   am
    49   111   112    1
    50   115   117    1
    51   115   114    2
    52    26    25    1
    53   113   112    1
    54   113   114    1
    55    85    84    2
    56    92    91    1
    57   123   124    1
    58    30    28    1
    59    91    94    1
    60    91    90    1
    61    56    55    1
    62    95    94    1
    63    84    90   am
    64    84    83    1
    65    54    55    1
    66    54    51    1
    67    28    25    1
    68    28    29    1
    69    25    24    1
    70    57    55    1
    71   125   124    1
    72   125   126    2
    73   124   127    1
    74   128   127    1
    75    52    51    1
    76    52    53    2
    77    83    86    1
    78    83    82    1
    79    15    16    2
    80    15    14    1
    81    86    87    1
    82    51    50    1
    83    74    73    2
    84    87    89   ar
    85    87    88   ar
    86    82    73   am
    87    14    13    1
    88    14    17    1
    89    50    41   am
    90    68    67    2
    91    73    72    1
    92    17    18    1
    93    18    19    1
    94    42    41    2
    95    79    77   ar
    96    79    81   ar
    97    41    40    1
    98    69    70    1
    99    69    66    1
   100    77    76   ar
   101    67    66    1
   102    67    71   am
   103    81    80   ar
   104    72    71    1
   105    72    75    1
   106    19    20    1
   107    20    21    2
   108    66    65    1
   109    76    75    1
   110    76    78   ar
   111    40    39    1
   112    40    43    1
   113    80    78   ar
   114    22    21    1
   115    21    23    1
   116    43    44    1
   117    44    45    1
   118    45    46    1
   119    46    47    2
   120    47    49    1
   121    47    48    1
