@<TRIPOS>MOLECULE
tmp/4eayA00.pdb
 173 164 0 0 0
SMALL
GASTEIGER

@<TRIPOS>ATOM
      1  N         38.6400  -10.3860   22.2510 N.3     8  ARG8       -0.1245
      2  CA        39.4470  -10.2790   23.4550 C.3     8  ARG8        0.1563
      3  C         39.0750  -11.3380   24.4940 C.2     8  ARG8        0.2260
      4  O         37.9210  -11.4460   24.9050 O.2     8  ARG8       -0.2867
      5  CB        39.3870   -8.8820   24.0580 C.3     8  ARG8        0.0307
      6  CG        40.5250   -8.6610   25.0100 C.3     8  ARG8        0.0489
      7  CD        40.4320   -7.3550   25.7470 C.3     8  ARG8        0.2205
      8  NE        41.7240   -7.0460   26.3460 N.pl3   8  ARG8       -0.0865
      9  CZ        42.0370   -5.8790   26.8920 C.cat   8  ARG8        0.5346
     10  NH1       41.1440   -4.9030   26.9180 N.pl3   8  ARG8        0.1354
     11  NH2       43.2430   -5.6860   27.4060 N.pl3   8  ARG8        0.1354
     12  N         46.9280   -7.2090   23.5370 N.3    65  GLU65      -0.1231
     13  CA        46.2670   -6.0310   24.0990 C.3    65  GLU65       0.1699
     14  C         46.0890   -6.2370   25.6050 C.2    65  GLU65       0.2592
     15  O         45.2330   -7.0430   26.0190 O.2    65  GLU65      -0.2718
     16  CB        44.9060   -5.7950   23.4290 C.3    65  GLU65       0.0402
     17  CG        44.2180   -4.5150   23.8390 C.3    65  GLU65       0.1161
     18  CD        42.8450   -4.3260   23.1880 C.2    65  GLU65       0.3649
     19  OE1       42.4730   -5.1060   22.2800 O.co2  65  GLU65      -0.2457
     20  OE2       42.1230   -3.3830   23.5730 O.co2  65  GLU65      -0.2457
     21  N         46.8980   -5.5570   26.4220 N.am   66  SER66      -0.1952
     22  CA        48.0040   -4.6880   25.9890 C.3    66  SER66       0.1924
     23  C         49.3250   -5.1030   26.6440 C.2    66  SER66       0.2314
     24  O         49.3390   -5.9170   27.5650 O.2    66  SER66      -0.2863
     25  CB        47.7510   -3.2500   26.4470 C.3    66  SER66       0.2116
     26  OG        46.5820   -2.7080   25.8810 O.3    66  SER66      -0.2180
     27  N         48.9600   -3.7050   20.6680 N.3   103  CYS103     -0.1235
     28  CA        48.1110   -2.5960   21.0680 C.3   103  CYS103      0.1677
     29  C         48.5550   -2.1030   22.4500 C.2   103  CYS103      0.2270
     30  O         48.9590   -2.9050   23.2950 O.2   103  CYS103     -0.2867
     31  CB        46.6660   -3.0730   21.1110 C.3   103  CYS103      0.0956
     32  SG        45.4950   -1.8160   21.6590 S.3   103  CYS103     -0.0801
     33  N         48.4110    1.7740   25.2250 N.3   105  ASN105     -0.1240
     34  CA        47.8850    3.1230   25.4150 C.3   105  ASN105      0.1653
     35  C         48.8180    4.0150   26.2400 C.2   105  ASN105      0.2266
     36  O         49.7810    3.5300   26.8290 O.2   105  ASN105     -0.2867
     37  CB        46.4710    3.0720   26.0110 C.3   105  ASN105      0.1155
     38  CG        46.4610    2.7060   27.4920 C.2   105  ASN105      0.2627
     39  OD1       46.7970    3.5250   28.3580 O.2   105  ASN105     -0.2716
     40  ND2       46.0490    1.4760   27.7890 N.am  105  ASN105     -0.0877
     41  N         47.2400    6.5730   28.2870 N.3   107  MET107     -0.1245
     42  CA        46.3620    7.1970   29.2620 C.3   107  MET107      0.1570
     43  C         47.1250    7.2040   30.5860 C.2   107  MET107      0.2261
     44  O         47.5830    6.1490   31.0260 O.2   107  MET107     -0.2867
     45  CB        45.0410    6.4120   29.4000 C.3   107  MET107      0.0387
     46  CG        44.0300    6.7250   28.3350 C.3   107  MET107      0.0595
     47  SD        42.5490    5.6970   28.3420 S.3   107  MET107     -0.1393
     48  CE        43.0730    4.1800   27.4970 C.3   107  MET107      0.0692
     49  N         43.0080    4.3470   33.1550 N.3   111  ASP111     -0.1225
     50  CA        42.7910    3.7700   31.8530 C.3   111  ASP111      0.1805
     51  C         41.3700    4.1590   31.3990 C.2   111  ASP111      0.2597
     52  O         40.8930    5.2550   31.7330 O.2   111  ASP111     -0.2718
     53  CB        42.9750    2.2490   31.9510 C.3   111  ASP111      0.1424
     54  CG        43.3950    1.6260   30.6340 C.2   111  ASP111      0.3668
     55  OD1       42.5920    1.6550   29.6740 O.co2 111  ASP111     -0.2456
     56  OD2       44.5290    1.1090   30.5570 O.co2 111  ASP111     -0.2456
     57  N         40.6890    3.2950   30.6440 N.am  112  TRP112     -0.1976
     58  CA        39.3810    3.6640   30.1140 C.3   112  TRP112      0.1640
     59  C         38.3400    3.7540   31.2370 C.2   112  TRP112      0.2290
     60  O         38.3330    2.9290   32.1620 O.2   112  TRP112     -0.2864
     61  CB        38.9440    2.7360   28.9770 C.3   112  TRP112      0.0576
     62  CG        38.6810    1.3190   29.3860 C.ar  112  TRP112      0.0006
     63  CD1       39.6040    0.3720   29.6770 C.ar  112  TRP112      0.0946
     64  CD2       37.4070    0.6820   29.4980 C.ar  112  TRP112      0.0152
     65  NE1       38.9940   -0.8190   29.9900 N.ar  112  TRP112     -0.2442
     66  CE2       37.6410   -0.6590   29.8770 C.ar  112  TRP112      0.0810
     67  CE3       36.0890    1.1100   29.3160 C.ar  112  TRP112      0.0012
     68  CZ2       36.6010   -1.5800   30.0810 C.ar  112  TRP112      0.0191
     69  CZ3       35.0640    0.2050   29.5150 C.ar  112  TRP112      0.0001
     70  CH2       35.3290   -1.1310   29.9000 C.ar  112  TRP112      0.0015
     71  N         37.9780   -3.9730   33.1620 N.3   184  PRO184     -0.2102
     72  CA        38.6790   -5.0530   32.4510 C.3   184  PRO184      0.1504
     73  C         39.6780   -4.5200   31.4180 C.2   184  PRO184      0.2576
     74  O         39.3510   -3.6110   30.6310 O.2   184  PRO184     -0.2718
     75  CB        37.5410   -5.8210   31.7720 C.3   184  PRO184      0.0282
     76  CG        36.3630   -5.5710   32.6450 C.3   184  PRO184      0.0208
     77  CD        36.5130   -4.1680   33.1530 C.3   184  PRO184      0.0893
     78  N         40.8940   -5.0610   31.4570 N.am  185  GLY185     -0.1957
     79  CA        41.9620   -4.6350   30.5660 C.3   185  GLY185      0.1869
     80  C         42.9310   -3.6390   31.1830 C.2   185  GLY185      0.2309
     81  O         44.0700   -3.5340   30.7320 O.2   185  GLY185     -0.2863
     82  N         46.1820    2.6120   21.1180 N.3   235  HIS235     -0.1241
     83  CA        44.7660    2.8020   21.4230 C.3   235  HIS235      0.1621
     84  C         44.5530    4.2280   21.9430 C.2   235  HIS235      0.2264
     85  O         45.3350    4.7240   22.7590 O.2   235  HIS235     -0.2867
     86  CB        44.2850    1.7820   22.4620 C.3   235  HIS235      0.0745
     87  CG        42.7930    1.6980   22.5960 C.ar  235  HIS235      0.0817
     88  ND1       42.0560    2.5980   23.3330 N.ar  235  HIS235     -0.2268
     89  CD2       41.9030    0.8060   22.1000 C.ar  235  HIS235      0.1154
     90  CE1       40.7750    2.2680   23.2800 C.ar  235  HIS235      0.1986
     91  NE2       40.6560    1.1830   22.5400 N.ar  235  HIS235     -0.2212
     92  N         40.1250    7.1030   26.3240 N.3   238  ASP238     -0.1239
     93  CA        38.7070    6.7950   26.4960 C.3   238  ASP238      0.1674
     94  C         38.2530    7.1990   27.9080 C.2   238  ASP238      0.2266
     95  O         38.6070    6.5270   28.8830 O.2   238  ASP238     -0.2867
     96  CB        38.4610    5.2910   26.2710 C.3   238  ASP238      0.1410
     97  CG        36.9670    4.9250   26.2600 C.2   238  ASP238      0.3668
     98  OD1       36.1010    5.8430   26.2260 O.co2 238  ASP238     -0.2456
     99  OD2       36.6490    3.7070   26.2560 O.co2 238  ASP238     -0.2456
    100  N         40.0160    2.7370   17.3510 N.3   273  CYS273     -0.1235
    101  CA        38.8840    2.4590   18.2250 C.3   273  CYS273      0.1677
    102  C         37.7840    3.4880   18.0060 C.2   273  CYS273      0.2270
    103  O         37.8970    4.6430   18.4540 O.2   273  CYS273     -0.2867
    104  CB        39.2740    2.4300   19.7050 C.3   273  CYS273      0.0956
    105  SG        37.8190    2.1170   20.7570 S.3   273  CYS273     -0.0801
    106  N         35.9420    4.8990   21.2000 N.3   276  SER276     -0.1217
    107  CA        36.6690    5.9210   21.9400 C.3   276  SER276      0.1889
    108  C         36.7920    7.2350   21.1640 C.2   276  SER276      0.2288
    109  O         36.3920    8.2590   21.6870 O.2   276  SER276     -0.2866
    110  CB        38.0470    5.4120   22.3900 C.3   276  SER276      0.2089
    111  OG        37.9140    4.1620   23.0300 O.3   276  SER276     -0.2183
    112  N         38.7980   -1.4800   16.7130 N.3   300  HIS300     -0.1241
    113  CA        37.7460   -1.7910   17.6710 C.3   300  HIS300      0.1621
    114  C         36.5010   -1.1770   17.0840 C.2   300  HIS300      0.2264
    115  O         36.4110    0.0450   16.9930 O.2   300  HIS300     -0.2867
    116  CB        38.0450   -1.1560   19.0320 C.3   300  HIS300      0.0745
    117  CG        39.1840   -1.7920   19.7670 C.ar  300  HIS300      0.0817
    118  ND1       39.5530   -1.4080   21.0370 N.ar  300  HIS300     -0.2268
    119  CD2       40.0200   -2.8030   19.4240 C.ar  300  HIS300      0.1154
    120  CE1       40.5700   -2.1490   21.4410 C.ar  300  HIS300      0.1986
    121  NE2       40.8780   -2.9990   20.4770 N.ar  300  HIS300     -0.2212
    122  N         33.0120   -0.5810   17.7810 N.3   302  ARG302     -0.1245
    123  CA        31.8600   -0.4330   18.6720 C.3   302  ARG302      0.1563
    124  C         31.3640    1.0120   18.5900 C.2   302  ARG302      0.2260
    125  O         32.0090    1.8680   17.9570 O.2   302  ARG302     -0.2867
    126  CB        32.2520   -0.8010   20.1090 C.3   302  ARG302      0.0307
    127  CG        33.2200    0.1640   20.7990 C.3   302  ARG302      0.0489
    128  CD        33.3490   -0.1250   22.3240 C.3   302  ARG302      0.2205
    129  NE        34.4510    0.6600   22.8660 N.pl3 302  ARG302     -0.0865
    130  CZ        34.3410    1.8510   23.4440 C.cat 302  ARG302      0.5346
    131  NH1       33.1540    2.3990   23.6460 N.pl3 302  ARG302      0.1354
    132  NH2       35.4380    2.4880   23.8470 N.pl3 302  ARG302      0.1354
    133  N         38.0090   -6.3940   16.3720 N.3   351  ARG351     -0.1245
    134  CA        37.2290   -7.0060   17.4400 C.3   351  ARG351      0.1563
    135  C         36.0050   -6.1320   17.7420 C.2   351  ARG351      0.2260
    136  O         36.0540   -4.9140   17.5410 O.2   351  ARG351     -0.2867
    137  CB        38.0890   -7.3460   18.6870 C.3   351  ARG351      0.0307
    138  CG        38.7220   -6.1950   19.4970 C.3   351  ARG351      0.0489
    139  CD        39.3410   -6.7650   20.7850 C.3   351  ARG351      0.2205
    140  NE        39.7750   -5.7580   21.7700 N.pl3 351  ARG351     -0.0865
    141  CZ        39.0460   -5.3740   22.8270 C.cat 351  ARG351      0.5346
    142  NH1       37.8400   -5.8980   23.0350 N.pl3 351  ARG351      0.1354
    143  NH2       39.5130   -4.4540   23.6740 N.pl3 351  ARG351      0.1354
    144  N         34.8620   -5.2820   20.4890 N.3   353  ASP353     -0.1225
    145  CA        35.2550   -4.4070   21.5960 C.3   353  ASP353      0.1805
    146  C         34.4230   -4.5190   22.8880 C.2   353  ASP353      0.2597
    147  O         34.9200   -5.1000   23.8660 O.2   353  ASP353     -0.2718
    148  CB        35.4530   -2.9430   21.1740 C.3   353  ASP353      0.1424
    149  CG        36.3050   -2.1630   22.1750 C.2   353  ASP353      0.3668
    150  OD1       36.7490   -2.7810   23.1420 O.co2 353  ASP353     -0.2456
    151  OD2       36.5410   -0.9450   22.0130 O.co2 353  ASP353     -0.2456
    152  N         33.2150   -3.9480   22.9330 N.am  354  HIS354     -0.1975
    153  CA        32.3640   -4.0560   24.1340 C.3   354  HIS354      0.1656
    154  C         30.9890   -4.5190   23.6990 C.2   354  HIS354      0.2291
    155  O         30.6000   -4.3100   22.5520 O.2   354  HIS354     -0.2864
    156  CB        32.1610   -2.7340   24.8850 C.3   354  HIS354      0.0771
    157  CG        33.4000   -2.1320   25.4590 C.ar  354  HIS354      0.0820
    158  ND1       33.4560   -0.8070   25.8430 N.ar  354  HIS354     -0.2267
    159  CD2       34.6320   -2.6430   25.6860 C.ar  354  HIS354      0.1154
    160  CE1       34.6730   -0.5330   26.2890 C.ar  354  HIS354      0.1986
    161  NE2       35.4050   -1.6280   26.2020 N.ar  354  HIS354     -0.2212
    162  N         32.3920   -7.0800   29.0010 N.3   370  TYR370     -0.1241
    163  CA        33.0460   -8.0650   28.2140 C.3   370  TYR370      0.1605
    164  C         32.2880   -9.3660   28.3660 C.2   370  TYR370      0.2264
    165  O         32.8760  -10.4480   28.3140 O.2   370  TYR370     -0.2867
    166  CB        34.5060   -8.1860   28.6570 C.3   370  TYR370      0.0534
    167  CG        35.4190   -7.1750   27.9810 C.ar  370  TYR370     -0.0201
    168  CD1       36.0490   -7.4860   26.7920 C.ar  370  TYR370     -0.0009
    169  CD2       35.6170   -5.8980   28.5240 C.ar  370  TYR370     -0.0009
    170  CE1       36.8790   -6.5700   26.1620 C.ar  370  TYR370      0.0417
    171  CE2       36.4350   -4.9780   27.9070 C.ar  370  TYR370      0.0417
    172  CZ        37.0730   -5.3280   26.7170 C.ar  370  TYR370      0.1957
    173  OH        37.9010   -4.4410   26.0660 O.3   370  TYR370     -0.2866
@<TRIPOS>BOND
     1   133   134    1
     2   112   113    1
     3   115   114    2
     4   114   113    1
     5   100   101    1
     6   134   135    1
     7   134   137    1
     8   136   135    2
     9   113   116    1
    10   122   123    1
    11   125   124    2
    12   102   101    1
    13   102   103    2
    14   101   104    1
    15   124   123    1
    16   123   126    1
    17   137   138    1
    18   116   117    1
    19   119   117   ar
    20   119   121   ar
    21   138   139    1
    22   104   105    1
    23   117   118   ar
    24   126   127    1
    25   121   120   ar
    26   144   145    1
    27    27    28    1
    28   139   140    1
    29   127   128    1
    30   118   120   ar
    31    28    31    1
    32    28    29    1
    33    31    32    1
    34    82    83    1
    35   108   109    2
    36   108   107    1
    37   148   145    1
    38   148   149    1
    39   106   107    1
    40    83    84    1
    41    83    86    1
    42   145   146    1
    43   140   141    2
    44   107   110    1
    45    84    85    2
    46   151   149   ar
    47    89    91   ar
    48    89    87   ar
    49   149   150   ar
    50     1     2    1
    51    19    18   ar
    52   128   129    1
    53   110   111    1
    54    29    30    2
    55    86    87    1
    56    91    90   ar
    57   155   154    2
    58    87    88   ar
    59   141   142    1
    60   141   143    1
    61   129   130    2
    62   146   152   am
    63   146   147    2
    64   152   153    1
    65    18    20   ar
    66    18    17    1
    67    90    88   ar
    68    16    17    1
    69    16    13    1
    70   130   131    1
    71   130   132    1
    72     2     5    1
    73     2     3    1
    74    12    13    1
    75   154   153    1
    76     5     6    1
    77    13    14    1
    78   153   156    1
    79     3     4    2
    80   156   157    1
    81     6     7    1
    82    33    34    1
    83    34    37    1
    84    34    35    1
    85   157   159   ar
    86   157   158   ar
    87    14    15    2
    88    14    21   am
    89   159   161   ar
    90     7     8    1
    91   158   160   ar
    92    26    25    1
    93    22    21    1
    94    22    25    1
    95    22    23    1
    96    37    38    1
    97   173   172    1
    98   170   172   ar
    99   170   168   ar
   100   161   160   ar
   101    98    97   ar
   102    35    36    2
   103    99    97   ar
   104    97    96    1
   105    96    93    1
   106    92    93    1
   107     8     9    2
   108    93    94    1
   109    23    24    2
   110   172   171   ar
   111   168   167   ar
   112     9    10    1
   113     9    11    1
   114    38    40   am
   115    38    39    2
   116    48    47    1
   117   171   169   ar
   118    94    95    2
   119   167   169   ar
   120   167   166    1
   121   163   164    1
   122   163   166    1
   123   163   162    1
   124    41    42    1
   125   165   164    2
   126    46    47    1
   127    46    45    1
   128    61    62    1
   129    61    58    1
   130    42    45    1
   131    42    43    1
   132    67    64   ar
   133    67    69   ar
   134    62    64   ar
   135    62    63   ar
   136    64    66   ar
   137    69    70   ar
   138    55    54   ar
   139    63    65   ar
   140    66    65   ar
   141    66    68   ar
   142    70    68   ar
   143    58    57    1
   144    58    59    1
   145    56    54   ar
   146    79    80    1
   147    79    78    1
   148    43    44    2
   149    74    73    2
   150    54    53    1
   151    57    51   am
   152    81    80    2
   153    59    60    2
   154    51    52    2
   155    51    50    1
   156    73    78   am
   157    73    72    1
   158    75    72    1
   159    75    76    1
   160    50    53    1
   161    50    49    1
   162    72    71    1
   163    76    77    1
   164    77    71    1
