@<TRIPOS>MOLECULE
tmp/4eb4B00.pdb
 167 162 0 0 0
SMALL
GASTEIGER

@<TRIPOS>ATOM
      1  N         35.5380  -12.8130   23.3770 N.3    37  ASP37      -0.1225
      2  CA        34.7820  -11.8550   22.5840 C.3    37  ASP37       0.1805
      3  C         33.7110  -12.4360   21.6880 C.2    37  ASP37       0.2598
      4  O         33.6730  -13.6480   21.4440 O.2    37  ASP37      -0.2718
      5  CB        35.7020  -10.9340   21.7790 C.3    37  ASP37       0.1424
      6  CG        36.1280  -11.5690   20.4590 C.2    37  ASP37       0.3668
      7  OD1       35.5930  -11.1810   19.3860 O.co2  37  ASP37      -0.2456
      8  OD2       36.9830  -12.5100   20.5660 O.co2  37  ASP37      -0.2456
      9  N         32.8520  -11.5590   21.1610 N.am   38  ARG38      -0.1966
     10  CA        31.7500  -11.8510   20.2380 C.3    38  ARG38       0.1729
     11  C         32.1170  -12.8150   19.1090 C.2    38  ARG38       0.2616
     12  O         31.2990  -13.7070   18.7400 O.2    38  ARG38      -0.2715
     13  CB        31.1740  -10.5370   19.6300 C.3    38  ARG38       0.0348
     14  CG        30.1160  -10.6730   18.5790 C.3    38  ARG38       0.0492
     15  CD        29.7200   -9.3430   17.9950 C.3    38  ARG38       0.2205
     16  NE        30.8680   -8.7180   17.3760 N.pl3  38  ARG38      -0.0865
     17  CZ        31.2710   -8.9620   16.1290 C.cat  38  ARG38       0.5346
     18  NH1       32.3370   -8.3200   15.6670 N.pl3  38  ARG38       0.1354
     19  NH2       30.6100   -9.8610   15.3450 N.pl3  38  ARG38       0.1354
     20  N         33.3340  -12.6670   18.5600 N.am   39  THR39      -0.1951
     21  CA        33.7050  -13.4360   17.4010 C.3    39  THR39       0.1897
     22  C         34.2080  -14.8130   17.7870 C.2    39  THR39       0.2313
     23  O         34.3140  -15.6400   16.8830 O.2    39  THR39      -0.2863
     24  CB        34.8130  -12.7660   16.5640 C.3    39  THR39       0.1794
     25  OG1       36.0300  -12.7520   17.3280 O.3    39  THR39      -0.2208
     26  CG2       34.3970  -11.3350   16.1550 C.3    39  THR39       0.0378
     27  N         36.3530    5.1940    1.7650 N.3    75  GLU75      -0.1245
     28  CA        35.3780    5.0160    2.8170 C.3    75  GLU75       0.1567
     29  C         34.8290    6.3220    3.3500 C.2    75  GLU75       0.2260
     30  O         33.6430    6.4710    3.4930 O.2    75  GLU75      -0.2867
     31  CB        35.9120    4.1140    3.9520 C.3    75  GLU75       0.0388
     32  CG        34.8490    3.8170    4.9970 C.3    75  GLU75       0.1160
     33  CD        35.3740    3.4430    6.4230 C.2    75  GLU75       0.3649
     34  OE1       36.3900    4.0300    6.8380 O.co2  75  GLU75      -0.2457
     35  OE2       34.8040    2.4960    7.0600 O.co2  75  GLU75      -0.2457
     36  N         33.7690   -3.4530    4.1400 N.3    97  TRP97      -0.1241
     37  CA        32.4480   -3.6550    4.7100 C.3    97  TRP97       0.1605
     38  C         31.7030   -4.8030    4.0870 C.2    97  TRP97       0.2264
     39  O         30.5830   -5.0900    4.5030 O.2    97  TRP97      -0.2867
     40  CB        31.5580   -2.3880    4.6310 C.3    97  TRP97       0.0550
     41  CG        32.0610   -1.3140    5.6020 C.ar   97  TRP97       0.0003
     42  CD1       32.6780   -0.0990    5.3430 C.ar   97  TRP97       0.0946
     43  CD2       31.9860   -1.4190    7.0310 C.ar   97  TRP97       0.0152
     44  NE1       32.9800    0.5180    6.5420 N.ar   97  TRP97      -0.2442
     45  CE2       32.6150   -0.2960    7.5780 C.ar   97  TRP97       0.0810
     46  CE3       31.5020   -2.3890    7.8760 C.ar   97  TRP97       0.0012
     47  CZ2       32.7030   -0.0760    8.9750 C.ar   97  TRP97       0.0191
     48  CZ3       31.6240   -2.1960    9.3180 C.ar   97  TRP97       0.0001
     49  CH2       32.2170   -1.0770    9.8170 C.ar   97  TRP97       0.0015
     50  N         26.9600    4.8070    9.8920 N.3   123  TYR123     -0.1241
     51  CA        27.5140    6.1470    9.8960 C.3   123  TYR123      0.1605
     52  C         26.9230    7.0880    8.8800 C.2   123  TYR123      0.2264
     53  O         26.4980    8.2040    9.2100 O.2   123  TYR123     -0.2867
     54  CB        29.0310    6.1050    9.7050 C.3   123  TYR123      0.0534
     55  CG        29.7960    5.2550   10.6880 C.ar  123  TYR123     -0.0201
     56  CD1       30.2650    3.9710   10.3650 C.ar  123  TYR123     -0.0009
     57  CD2       30.0880    5.7590   11.9450 C.ar  123  TYR123     -0.0009
     58  CE1       31.0070    3.2300   11.2920 C.ar  123  TYR123      0.0417
     59  CE2       30.8200    5.0910   12.8300 C.ar  123  TYR123      0.0417
     60  CZ        31.2760    3.8170   12.5280 C.ar  123  TYR123      0.1957
     61  OH        31.9950    3.1520   13.4520 O.3   123  TYR123     -0.2866
     62  N         26.5470   -3.6650   12.1610 N.3   180  LEU180     -0.1231
     63  CA        27.5240   -3.6190   13.1940 C.3   180  LEU180      0.1678
     64  C         27.3080   -2.2840   13.9190 C.2   180  LEU180      0.2434
     65  O         27.3890   -1.2450   13.2640 O.2   180  LEU180     -0.2733
     66  CB        28.8980   -3.6430   12.6370 C.3   180  LEU180      0.0284
     67  CG        30.0910   -3.6320   13.6140 C.3   180  LEU180      0.0019
     68  CD1       30.0790   -4.9700   14.3660 C.3   180  LEU180      0.0001
     69  CD2       31.4270   -3.4870   12.8850 C.3   180  LEU180      0.0001
     70  N         27.0850   -2.3220   15.2190 N.am  181  PRO181     -0.2729
     71  CA        26.9180   -1.0120   15.8780 C.3   181  PRO181      0.1401
     72  C         28.2190   -0.2540   15.7130 C.2   181  PRO181      0.2269
     73  O         29.3020   -0.8080   15.6750 O.2   181  PRO181     -0.2865
     74  CB        26.6040   -1.3950   17.3420 C.3   181  PRO181      0.0296
     75  CG        26.0800   -2.7710   17.2590 C.3   181  PRO181      0.0237
     76  CD        26.8210   -3.4400   16.1360 C.3   181  PRO181      0.0939
     77  N         31.6760    1.3570   15.8230 N.3   183  CYS183     -0.1221
     78  CA        32.8900    1.3120   16.6520 C.3   183  CYS183      0.1808
     79  C         33.2650    2.7000   17.0640 C.2   183  CYS183      0.2601
     80  O         33.8100    2.8890   18.1100 O.2   183  CYS183     -0.2717
     81  CB        34.1070    0.6040   16.0270 C.3   183  CYS183      0.0970
     82  SG        33.7530   -1.1710   15.7640 S.3   183  CYS183     -0.0800
     83  N         32.9830    3.6690   16.1790 N.am  184  HIS184     -0.1975
     84  CA        33.2030    5.1250   16.4470 C.3   184  HIS184      0.1656
     85  C         31.9220    5.7460   16.8440 C.2   184  HIS184      0.2291
     86  O         31.0750    6.1330   16.0050 O.2   184  HIS184     -0.2864
     87  CB        33.7020    5.7480   15.1860 C.3   184  HIS184      0.0771
     88  CG        34.8500    5.0040   14.6450 C.ar  184  HIS184      0.0820
     89  ND1       34.9570    4.6660   13.3100 N.ar  184  HIS184     -0.2267
     90  CD2       35.8630    4.3620   15.2890 C.ar  184  HIS184      0.1154
     91  CE1       36.0670    3.9580   13.1420 C.ar  184  HIS184      0.1986
     92  NE2       36.6300    3.7570   14.3190 N.ar  184  HIS184     -0.2212
     93  N         36.1540    5.8580   20.4430 N.3   202  GLN202     -0.1231
     94  CA        36.0660    4.5840   19.7730 C.3   202  GLN202      0.1698
     95  C         35.7900    3.5330   20.8630 C.2   202  GLN202      0.2592
     96  O         36.6560    3.1990   21.6490 O.2   202  GLN202     -0.2718
     97  CB        37.3730    4.2580   19.0630 C.3   202  GLN202      0.0381
     98  CG        37.3860    2.8880   18.4180 C.3   202  GLN202      0.0905
     99  CD        38.3280    2.7050   17.2700 C.2   202  GLN202      0.2608
    100  OE1       39.1330    3.5410   16.9800 O.2   202  GLN202     -0.2717
    101  NE2       38.2470    1.5220   16.6270 N.am  202  GLN202     -0.0878
    102  N         34.5630    3.0130   20.8700 N.am  203  ARG203     -0.1966
    103  CA        34.1740    2.0500   21.9110 C.3   203  ARG203      0.1729
    104  C         34.9260    0.7340   21.9140 C.2   203  ARG203      0.2616
    105  O         34.9550    0.0230   22.9360 O.2   203  ARG203     -0.2715
    106  CB        32.6750    1.7080   21.8210 C.3   203  ARG203      0.0348
    107  CG        32.3010    0.9700   20.5790 C.3   203  ARG203      0.0492
    108  CD        30.8300    0.4050   20.6150 C.3   203  ARG203      0.2205
    109  NE        30.5610   -0.3410   19.3700 N.pl3 203  ARG203     -0.0865
    110  CZ        31.0560   -1.5400   19.0940 C.cat 203  ARG203      0.5346
    111  NH1       31.6300   -2.2700   20.0490 N.pl3 203  ARG203      0.1354
    112  NH2       30.8590   -2.0640   17.8870 N.pl3 203  ARG203      0.1354
    113  N         35.4900    0.3920   20.7810 N.am  204  SER204     -0.1950
    114  CA        36.0560   -0.9740   20.5520 C.3   204  SER204      0.1924
    115  C         37.0830   -0.8310   19.4460 C.2   204  SER204      0.2314
    116  O         36.7590   -0.3420   18.3960 O.2   204  SER204     -0.2863
    117  CB        34.9240   -1.9080   20.1610 C.3   204  SER204      0.2116
    118  OG        35.3560   -3.2600   20.0220 O.3   204  SER204     -0.2180
    119  N         40.1610   -2.7480   17.3630 N.3   206  ASP206     -0.1239
    120  CA        40.9770   -3.8860   16.9550 C.3   206  ASP206      0.1674
    121  C         42.3150   -3.2980   16.6270 C.2   206  ASP206      0.2266
    122  O         42.4620   -2.7090   15.5730 O.2   206  ASP206     -0.2867
    123  CB        40.3020   -4.4930   15.7220 C.3   206  ASP206      0.1410
    124  CG        41.0530   -5.6590   15.1450 C.2   206  ASP206      0.3668
    125  OD1       42.2520   -5.7140   15.3310 O.co2 206  ASP206     -0.2456
    126  OD2       40.4660   -6.4470   14.3560 O.co2 206  ASP206     -0.2456
    127  N         41.7160   -2.4900   12.4320 N.3   210  GLY210     -0.1210
    128  CA        40.8970   -1.3160   12.2110 C.3   210  GLY210      0.1956
    129  C         41.5950   -0.0580   12.7130 C.2   210  GLY210      0.2611
    130  O         41.4820    0.9790   12.0610 O.2   210  GLY210     -0.2717
    131  N         42.2340   -0.1110   13.8940 N.am  211  VAL211     -0.1979
    132  CA        42.6900    1.1370   14.5460 C.3   211  VAL211      0.1595
    133  C         43.6470    2.0050   13.6650 C.2   211  VAL211      0.2287
    134  O         43.4560    3.1980   13.5450 O.2   211  VAL211     -0.2864
    135  CB        43.2580    0.8670   15.9640 C.3   211  VAL211      0.0276
    136  CG1       44.1400    2.0080   16.4880 C.3   211  VAL211      0.0022
    137  CG2       42.1120    0.6060   16.9450 C.3   211  VAL211      0.0022
    138  N         41.4770    3.6420   11.1320 N.3   214  ASN214     -0.1240
    139  CA        40.5850    4.5560   11.8320 C.3   214  ASN214      0.1653
    140  C         41.2980    5.8880   12.1830 C.2   214  ASN214      0.2266
    141  O         40.6750    6.9420   12.1080 O.2   214  ASN214     -0.2867
    142  CB        40.0080    3.9390   13.1200 C.3   214  ASN214      0.1155
    143  CG        39.1290    2.6600   12.8830 C.2   214  ASN214      0.2627
    144  OD1       39.0920    1.8000   13.7580 O.2   214  ASN214     -0.2716
    145  ND2       38.4110    2.5650   11.7280 N.am  214  ASN214     -0.0877
    146  N         41.9250   -3.6830   22.1300 N.3   244  HIS244     -0.1241
    147  CA        42.2200   -5.1220   22.1490 C.3   244  HIS244      0.1621
    148  C         43.0810   -5.6080   21.0070 C.2   244  HIS244      0.2264
    149  O         43.0790   -5.0540   19.9020 O.2   244  HIS244     -0.2867
    150  CB        40.9250   -5.9630   22.2280 C.3   244  HIS244      0.0745
    151  CG        39.8920   -5.6320   21.2000 C.ar  244  HIS244      0.0817
    152  ND1       38.9110   -4.6800   21.3720 N.ar  244  HIS244     -0.2268
    153  CD2       39.7030   -6.1270   19.9480 C.ar  244  HIS244      0.1154
    154  CE1       38.1680   -4.6040   20.2890 C.ar  244  HIS244      0.1986
    155  NE2       38.6390   -5.4490   19.3960 N.ar  244  HIS244     -0.2212
    156  N         43.5530   -9.1280   19.0310 N.3   246  TYR246     -0.1241
    157  CA        43.0770  -10.5020   18.7660 C.3   246  TYR246      0.1605
    158  C         44.2610  -11.4660   18.8360 C.2   246  TYR246      0.2264
    159  O         45.4060  -11.1570   18.4280 O.2   246  TYR246     -0.2867
    160  CB        42.4060  -10.5960   17.3980 C.3   246  TYR246      0.0534
    161  CG        40.9950   -9.9940   17.4100 C.ar  246  TYR246     -0.0201
    162  CD1       39.9810  -10.6650   18.0360 C.ar  246  TYR246     -0.0009
    163  CD2       40.7210   -8.7560   16.8480 C.ar  246  TYR246     -0.0009
    164  CE1       38.6970  -10.1650   18.1260 C.ar  246  TYR246      0.0417
    165  CE2       39.4640   -8.2190   16.9220 C.ar  246  TYR246      0.0417
    166  CZ        38.4150   -8.9420   17.5220 C.ar  246  TYR246      0.1957
    167  OH        37.1410   -8.4870   17.6630 O.3   246  TYR246     -0.2866
@<TRIPOS>BOND
     1    27    28    1
     2    28    29    1
     3    28    31    1
     4    29    30    2
     5    31    32    1
     6    38    39    2
     7    38    37    1
     8    36    37    1
     9    40    37    1
    10    40    41    1
    11    32    33    1
    12    42    41   ar
    13    42    44   ar
    14    41    43   ar
    15    33    34   ar
    16    33    35   ar
    17    44    45   ar
    18    43    45   ar
    19    43    46   ar
    20    45    47   ar
    21    46    48   ar
    22    52    53    2
    23    52    51    1
    24    47    49   ar
    25    48    49   ar
    26    54    51    1
    27    54    55    1
    28    50    51    1
    29    56    55   ar
    30    56    58   ar
    31    55    57   ar
    32   138   139    1
    33    58    60   ar
    34   145   143   am
    35   139   140    1
    36   139   142    1
    37    57    59   ar
    38   130   129    2
    39   141   140    2
    40    62    63    1
    41   128   127    1
    42   128   129    1
    43    60    59   ar
    44    60    61    1
    45    66    63    1
    46    66    67    1
    47   129   131   am
    48   143   142    1
    49   143   144    2
    50    69    67    1
    51    91    89   ar
    52    91    92   ar
    53    63    64    1
    54    65    64    2
    55    89    88   ar
    56   134   133    2
    57    67    68    1
    58   133   132    1
    59   131   132    1
    60    64    70   am
    61    92    90   ar
    62   126   124   ar
    63   132   135    1
    64    88    87    1
    65    88    90   ar
    66   124   125   ar
    67   124   123    1
    68    87    84    1
    69    70    71    1
    70    70    76    1
    71    19    17    1
    72   122   121    2
    73    18    17    1
    74    73    72    2
    75    72    71    1
    76   123   120    1
    77    82    81    1
    78    77    78    1
    79    71    74    1
    80   135   136    1
    81   135   137    1
    82    86    85    2
    83    81    78    1
    84    17    16    2
    85    76    75    1
    86    26    24    1
    87    83    84    1
    88    83    79   am
    89    84    85    1
    90    24    25    1
    91    24    21    1
    92   121   120    1
    93   101    99   am
    94    78    79    1
    95   163   165   ar
    96   163   161   ar
    97    23    22    2
    98   165   166   ar
    99   120   119    1
   100   100    99    2
   101    79    80    2
   102    75    74    1
   103    99    98    1
   104    16    15    1
   105   160   161    1
   106   160   157    1
   107    21    22    1
   108    21    20    1
   109   161   162   ar
   110   166   167    1
   111   166   164   ar
   112   112   110    1
   113    15    14    1
   114   162   164   ar
   115   116   115    2
   116    98    97    1
   117   159   158    2
   118    20    11   am
   119    14    13    1
   120    12    11    2
   121   157   158    1
   122   157   156    1
   123    97    94    1
   124   110   109    2
   125   110   111    1
   126    11    10    1
   127   109   108    1
   128     7     6   ar
   129   155   153   ar
   130   155   154   ar
   131   115   114    1
   132    13    10    1
   133    94    93    1
   134    94    95    1
   135   149   148    2
   136   153   151   ar
   137   118   117    1
   138   117   114    1
   139    10     9    1
   140   154   152   ar
   141     6     8   ar
   142     6     5    1
   143   114   113    1
   144   107   108    1
   145   107   106    1
   146   113   104   am
   147    95   102   am
   148    95    96    2
   149   102   103    1
   150   148   147    1
   151     9     3   am
   152   151   152   ar
   153   151   150    1
   154     4     3    2
   155     3     2    1
   156     5     2    1
   157   106   103    1
   158   103   104    1
   159   104   105    2
   160   146   147    1
   161   147   150    1
   162     2     1    1
