@<TRIPOS>MOLECULE
tmp/4eb4B01.pdb
 107 103 0 0 0
SMALL
GASTEIGER

@<TRIPOS>ATOM
      1  N         32.8520  -11.5590   21.1610 N.3    38  ARG38      -0.1231
      2  CA        31.7500  -11.8510   20.2380 C.3    38  ARG38       0.1694
      3  C         32.1170  -12.8150   19.1090 C.2    38  ARG38       0.2592
      4  O         31.2990  -13.7070   18.7400 O.2    38  ARG38      -0.2718
      5  CB        31.1740  -10.5370   19.6300 C.3    38  ARG38       0.0321
      6  CG        30.1160  -10.6730   18.5790 C.3    38  ARG38       0.0489
      7  CD        29.7200   -9.3430   17.9950 C.3    38  ARG38       0.2205
      8  NE        30.8680   -8.7180   17.3760 N.pl3  38  ARG38      -0.0865
      9  CZ        31.2710   -8.9620   16.1290 C.cat  38  ARG38       0.5346
     10  NH1       32.3370   -8.3200   15.6670 N.pl3  38  ARG38       0.1354
     11  NH2       30.6100   -9.8610   15.3450 N.pl3  38  ARG38       0.1354
     12  N         33.3340  -12.6670   18.5600 N.am   39  THR39      -0.1953
     13  CA        33.7050  -13.4360   17.4010 C.3    39  THR39       0.1897
     14  C         34.2080  -14.8130   17.7870 C.2    39  THR39       0.2313
     15  O         34.3140  -15.6400   16.8830 O.2    39  THR39      -0.2863
     16  CB        34.8130  -12.7660   16.5640 C.3    39  THR39       0.1794
     17  OG1       36.0300  -12.7520   17.3280 O.3    39  THR39      -0.2208
     18  CG2       34.3970  -11.3350   16.1550 C.3    39  THR39       0.0378
     19  N         36.3530    5.1940    1.7650 N.3    75  GLU75      -0.1245
     20  CA        35.3780    5.0160    2.8170 C.3    75  GLU75       0.1567
     21  C         34.8290    6.3220    3.3500 C.2    75  GLU75       0.2260
     22  O         33.6430    6.4710    3.4930 O.2    75  GLU75      -0.2867
     23  CB        35.9120    4.1140    3.9520 C.3    75  GLU75       0.0388
     24  CG        34.8490    3.8170    4.9970 C.3    75  GLU75       0.1160
     25  CD        35.3740    3.4430    6.4230 C.2    75  GLU75       0.3649
     26  OE1       36.3900    4.0300    6.8380 O.co2  75  GLU75      -0.2457
     27  OE2       34.8040    2.4960    7.0600 O.co2  75  GLU75      -0.2457
     28  N         36.1760   -3.4670    2.5580 N.3    96  ILE96      -0.1231
     29  CA        36.2550   -3.4990    4.0170 C.3    96  ILE96       0.1692
     30  C         34.9140   -3.7850    4.7130 C.2    96  ILE96       0.2592
     31  O         34.9400   -4.3120    5.8030 O.2    96  ILE96      -0.2718
     32  CB        36.9110   -2.2060    4.5790 C.3    96  ILE96       0.0266
     33  CG1       36.0470   -1.0020    4.3240 C.3    96  ILE96       0.0019
     34  CG2       38.3010   -2.0190    4.0180 C.3    96  ILE96       0.0020
     35  CD1       36.6670    0.2710    4.8570 C.3    96  ILE96       0.0001
     36  N         33.7690   -3.4530    4.1400 N.am   97  TRP97      -0.1976
     37  CA        32.4480   -3.6550    4.7100 C.3    97  TRP97       0.1640
     38  C         31.7030   -4.8030    4.0870 C.2    97  TRP97       0.2290
     39  O         30.5830   -5.0900    4.5030 O.2    97  TRP97      -0.2864
     40  CB        31.5580   -2.3880    4.6310 C.3    97  TRP97       0.0576
     41  CG        32.0610   -1.3140    5.6020 C.ar   97  TRP97       0.0006
     42  CD1       32.6780   -0.0990    5.3430 C.ar   97  TRP97       0.0946
     43  CD2       31.9860   -1.4190    7.0310 C.ar   97  TRP97       0.0152
     44  NE1       32.9800    0.5180    6.5420 N.ar   97  TRP97      -0.2442
     45  CE2       32.6150   -0.2960    7.5780 C.ar   97  TRP97       0.0810
     46  CE3       31.5020   -2.3890    7.8760 C.ar   97  TRP97       0.0012
     47  CZ2       32.7030   -0.0760    8.9750 C.ar   97  TRP97       0.0191
     48  CZ3       31.6240   -2.1960    9.3180 C.ar   97  TRP97       0.0001
     49  CH2       32.2170   -1.0770    9.8170 C.ar   97  TRP97       0.0015
     50  N         32.9830    3.6690   16.1790 N.3   184  HIS184     -0.1241
     51  CA        33.2030    5.1250   16.4470 C.3   184  HIS184      0.1621
     52  C         31.9220    5.7460   16.8440 C.2   184  HIS184      0.2264
     53  O         31.0750    6.1330   16.0050 O.2   184  HIS184     -0.2867
     54  CB        33.7020    5.7480   15.1860 C.3   184  HIS184      0.0745
     55  CG        34.8500    5.0040   14.6450 C.ar  184  HIS184      0.0817
     56  ND1       34.9570    4.6660   13.3100 N.ar  184  HIS184     -0.2268
     57  CD2       35.8630    4.3620   15.2890 C.ar  184  HIS184      0.1154
     58  CE1       36.0670    3.9580   13.1420 C.ar  184  HIS184      0.1986
     59  NE2       36.6300    3.7570   14.3190 N.ar  184  HIS184     -0.2212
     60  N         40.1610   -2.7480   17.3630 N.3   206  ASP206     -0.1239
     61  CA        40.9770   -3.8860   16.9550 C.3   206  ASP206      0.1674
     62  C         42.3150   -3.2980   16.6270 C.2   206  ASP206      0.2266
     63  O         42.4620   -2.7090   15.5730 O.2   206  ASP206     -0.2867
     64  CB        40.3020   -4.4930   15.7220 C.3   206  ASP206      0.1410
     65  CG        41.0530   -5.6590   15.1450 C.2   206  ASP206      0.3668
     66  OD1       42.2520   -5.7140   15.3310 O.co2 206  ASP206     -0.2456
     67  OD2       40.4660   -6.4470   14.3560 O.co2 206  ASP206     -0.2456
     68  N         41.7160   -2.4900   12.4320 N.3   210  GLY210     -0.1225
     69  CA        40.8970   -1.3160   12.2110 C.3   210  GLY210      0.1811
     70  C         41.5950   -0.0580   12.7130 C.2   210  GLY210      0.2280
     71  O         41.4820    0.9790   12.0610 O.2   210  GLY210     -0.2866
     72  N         43.7610    2.2820   10.4650 N.3   213  PHE213     -0.1227
     73  CA        42.9250    2.8070    9.3960 C.3   213  PHE213      0.1736
     74  C         42.0110    3.9000    9.9400 C.2   213  PHE213      0.2595
     75  O         41.8420    4.9650    9.3270 O.2   213  PHE213     -0.2718
     76  CB        42.1510    1.6090    8.8690 C.3   213  PHE213      0.0547
     77  CG        41.2830    1.8380    7.6650 C.ar  213  PHE213     -0.0202
     78  CD1       40.0700    2.4540    7.7180 C.ar  213  PHE213     -0.0042
     79  CD2       41.7330    1.3440    6.4270 C.ar  213  PHE213     -0.0042
     80  CE1       39.2920    2.5850    6.6180 C.ar  213  PHE213     -0.0003
     81  CE2       40.9630    1.5110    5.3270 C.ar  213  PHE213     -0.0003
     82  CZ        39.7220    2.1050    5.4360 C.ar  213  PHE213     -0.0000
     83  N         41.4770    3.6420   11.1320 N.am  214  ASN214     -0.1974
     84  CA        40.5850    4.5560   11.8320 C.3   214  ASN214      0.1688
     85  C         41.2980    5.8880   12.1830 C.2   214  ASN214      0.2292
     86  O         40.6750    6.9420   12.1080 O.2   214  ASN214     -0.2864
     87  CB        40.0080    3.9390   13.1200 C.3   214  ASN214      0.1181
     88  CG        39.1290    2.6600   12.8830 C.2   214  ASN214      0.2629
     89  OD1       39.0920    1.8000   13.7580 O.2   214  ASN214     -0.2716
     90  ND2       38.4110    2.5650   11.7280 N.am  214  ASN214     -0.0877
     91  N         43.5530   -9.1280   19.0310 N.3   246  TYR246     -0.1241
     92  CA        43.0770  -10.5020   18.7660 C.3   246  TYR246      0.1605
     93  C         44.2610  -11.4660   18.8360 C.2   246  TYR246      0.2264
     94  O         45.4060  -11.1570   18.4280 O.2   246  TYR246     -0.2867
     95  CB        42.4060  -10.5960   17.3980 C.3   246  TYR246      0.0534
     96  CG        40.9950   -9.9940   17.4100 C.ar  246  TYR246     -0.0201
     97  CD1       39.9810  -10.6650   18.0360 C.ar  246  TYR246     -0.0009
     98  CD2       40.7210   -8.7560   16.8480 C.ar  246  TYR246     -0.0009
     99  CE1       38.6970  -10.1650   18.1260 C.ar  246  TYR246      0.0417
    100  CE2       39.4640   -8.2190   16.9220 C.ar  246  TYR246      0.0417
    101  CZ        38.4150   -8.9420   17.5220 C.ar  246  TYR246      0.1957
    102  OH        37.1410   -8.4870   17.6630 O.3   246  TYR246     -0.2866
    103  N         38.4990  -10.8520   12.0970 N.3   300  ALA300     -0.1245
    104  CA        37.6990  -11.8100   12.8530 C.3   300  ALA300      0.1562
    105  C         36.2820  -11.5510   12.4440 C.2   300  ALA300      0.2260
    106  O         35.8830  -10.4020   12.4060 O.2   300  ALA300     -0.2867
    107  CB        37.8940  -11.5470   14.3780 C.3   300  ALA300      0.0290
@<TRIPOS>BOND
     1    19    20    1
     2    28    29    1
     3    20    21    1
     4    20    23    1
     5    21    22    2
     6    23    24    1
     7    29    32    1
     8    29    30    1
     9    34    32    1
    10    38    39    2
    11    38    37    1
    12    36    37    1
    13    36    30   am
    14    33    32    1
    15    33    35    1
    16    40    37    1
    17    40    41    1
    18    30    31    2
    19    24    25    1
    20    81    82   ar
    21    81    79   ar
    22    42    41   ar
    23    42    44   ar
    24    82    80   ar
    25    41    43   ar
    26    25    26   ar
    27    25    27   ar
    28    79    77   ar
    29    44    45   ar
    30    80    78   ar
    31    43    45   ar
    32    43    46   ar
    33    45    47   ar
    34    77    78   ar
    35    77    76    1
    36    46    48   ar
    37    76    73    1
    38    47    49   ar
    39    48    49   ar
    40    75    74    2
    41    73    74    1
    42    73    72    1
    43    74    83   am
    44    83    84    1
    45    90    88   am
    46    84    85    1
    47    84    87    1
    48    71    70    2
    49   103   104    1
    50    86    85    2
    51    69    68    1
    52    69    70    1
    53   106   105    2
    54   105   104    1
    55   104   107    1
    56    88    87    1
    57    88    89    2
    58    58    56   ar
    59    58    59   ar
    60    56    55   ar
    61    59    57   ar
    62    67    65   ar
    63    55    54    1
    64    55    57   ar
    65    65    66   ar
    66    65    64    1
    67    54    51    1
    68    11     9    1
    69    63    62    2
    70    10     9    1
    71    64    61    1
    72    53    52    2
    73     9     8    2
    74    18    16    1
    75    50    51    1
    76    51    52    1
    77    16    17    1
    78    16    13    1
    79    62    61    1
    80    98   100   ar
    81    98    96   ar
    82    15    14    2
    83   100   101   ar
    84    61    60    1
    85     8     7    1
    86    95    96    1
    87    95    92    1
    88    13    14    1
    89    13    12    1
    90    96    97   ar
    91   101   102    1
    92   101    99   ar
    93     7     6    1
    94    97    99   ar
    95    94    93    2
    96    12     3   am
    97     6     5    1
    98     4     3    2
    99    92    93    1
   100    92    91    1
   101     3     2    1
   102     5     2    1
   103     2     1    1
