@<TRIPOS>MOLECULE
tmp/4eb5A00.pdb
 109 98 0 0 0
SMALL
GASTEIGER

@<TRIPOS>ATOM
      1  N         -4.2260    0.9900   -0.4740 N.3     6  THR6       -0.1203
      2  CA        -3.6370    2.3420   -0.6030 C.3     6  THR6        0.1994
      3  C         -2.9520    2.6320   -1.9360 C.2     6  THR6        0.2618
      4  O         -2.9060    3.7880   -2.3430 O.2     6  THR6       -0.2717
      5  CB        -2.5610    2.6840    0.4630 C.3     6  THR6        0.1784
      6  OG1       -2.3560    1.5680    1.3250 O.3     6  THR6       -0.2211
      7  CG2       -2.9690    3.8620    1.2530 C.3     6  THR6        0.0376
      8  N         -2.4000    1.6210   -2.5890 N.am    7  SER7       -0.1951
      9  CA        -1.5870    1.8620   -3.7640 C.3     7  SER7        0.1924
     10  C         -2.3320    1.7330   -5.0730 C.2     7  SER7        0.2314
     11  O         -1.8970    2.2600   -6.0720 O.2     7  SER7       -0.2863
     12  CB        -0.3860    0.9230   -3.7920 C.3     7  SER7        0.2116
     13  OG         0.3670    0.9980   -2.6000 O.3     7  SER7       -0.2180
     14  N         -5.3920   13.0040  -12.0880 N.3    67  GLY67      -0.1210
     15  CA        -5.3100   12.3140  -10.8180 C.3    67  GLY67       0.1956
     16  C         -5.0510   13.2880   -9.6870 C.2    67  GLY67       0.2612
     17  O         -5.0290   14.5250   -9.9040 O.2    67  GLY67      -0.2717
     18  N         -4.8700   12.7270   -8.4840 N.am   68  ALA68      -0.1965
     19  CA        -4.6300   13.4990   -7.2550 C.3    68  ALA68       0.1728
     20  C         -3.2990   14.2380   -7.2900 C.2    68  ALA68       0.2616
     21  O         -3.1480   15.2910   -6.6870 O.2    68  ALA68      -0.2715
     22  CB        -4.7050   12.6140   -6.0010 C.3    68  ALA68       0.0334
     23  N         -2.3400   13.6650   -7.9950 N.am   69  THR69      -0.1951
     24  CA        -1.0370   14.2610   -8.0740 C.3    69  THR69       0.1897
     25  C         -1.0910   15.6170   -8.7870 C.2    69  THR69       0.2313
     26  O         -0.6430   16.6260   -8.2340 O.2    69  THR69      -0.2863
     27  CB        -0.0180   13.2620   -8.6340 C.3    69  THR69       0.1794
     28  OG1        0.1700   12.2310   -7.6540 O.3    69  THR69      -0.2208
     29  CG2        1.3010   13.9220   -8.8870 C.3    69  THR69       0.0378
     30  N         -3.1620   18.2260   -6.7650 N.3    72  ASN72      -0.1240
     31  CA        -2.3010   18.7480   -5.7010 C.3    72  ASN72       0.1653
     32  C         -1.2980   19.7730   -6.2570 C.2    72  ASN72       0.2266
     33  O         -1.0450   20.7970   -5.6320 O.2    72  ASN72      -0.2867
     34  CB        -1.5790   17.6100   -4.9640 C.3    72  ASN72       0.1155
     35  CG        -2.4200   17.0090   -3.8560 C.2    72  ASN72       0.2627
     36  OD1       -3.4490   17.5750   -3.4660 O.2    72  ASN72      -0.2716
     37  ND2       -1.9940   15.8580   -3.3320 N.am   72  ASN72      -0.0877
     38  N          1.4500   14.2500    1.3930 N.3    97  HIS97      -0.1241
     39  CA         1.9370   13.5010    0.2610 C.3    97  HIS97       0.1621
     40  C          3.0760   14.2070   -0.4830 C.2    97  HIS97       0.2264
     41  O          3.1250   15.4590   -0.5430 O.2    97  HIS97      -0.2867
     42  CB         0.8070   13.2260   -0.7260 C.3    97  HIS97       0.0745
     43  CG         1.1380   12.1120   -1.6420 C.ar   97  HIS97       0.0817
     44  ND1        1.5390   12.3210   -2.9420 N.ar   97  HIS97      -0.2268
     45  CD2        1.2590   10.7810   -1.4110 C.ar   97  HIS97       0.1154
     46  CE1        1.8350   11.1510   -3.4870 C.ar   97  HIS97       0.1986
     47  NE2        1.6900   10.2050   -2.5750 N.ar   97  HIS97      -0.2212
     48  N          3.2360   14.7550   -3.4930 N.3    99  SER99      -0.1217
     49  CA         2.5980   15.6110   -4.5330 C.3    99  SER99       0.1889
     50  C          2.1060   16.9700   -4.0230 C.2    99  SER99       0.2288
     51  O          1.6000   17.8020   -4.7800 O.2    99  SER99      -0.2866
     52  CB         1.4650   14.8570   -5.2260 C.3    99  SER99       0.2089
     53  OG         0.5590   14.3450   -4.2710 O.3    99  SER99      -0.2183
     54  N         -3.5920   17.7690    4.8290 N.3   144  GLN144     -0.1245
     55  CA        -4.3740   16.6090    4.4100 C.3   144  GLN144      0.1566
     56  C         -5.5620   16.3070    5.3200 C.2   144  GLN144      0.2260
     57  O         -5.5520   16.6400    6.4970 O.2   144  GLN144     -0.2867
     58  CB        -3.4710   15.3740    4.3470 C.3   144  GLN144      0.0367
     59  CG        -2.5730   15.2270    5.5620 C.3   144  GLN144      0.0905
     60  CD        -1.7270   13.9910    5.4810 C.2   144  GLN144      0.2608
     61  OE1       -1.4930   13.3050    6.4960 O.2   144  GLN144     -0.2717
     62  NE2       -1.2920   13.6570    4.2610 N.am  144  GLN144     -0.0878
     63  N         -6.4680   13.2190    6.0350 N.3   146  ALA146     -0.1245
     64  CA        -6.0100   12.0470    6.7760 C.3   146  ALA146      0.1562
     65  C         -4.7920   11.4920    6.0610 C.2   146  ALA146      0.2260
     66  O         -4.6060   11.6770    4.8320 O.2   146  ALA146     -0.2867
     67  CB        -7.1090   10.9970    6.8250 C.3   146  ALA146      0.0290
     68  N         -2.6080    8.6020    4.4470 N.3   148  ASN148     -0.1240
     69  CA        -2.7520    7.2170    3.9040 C.3   148  ASN148      0.1653
     70  C         -1.7570    6.2200    4.4470 C.2   148  ASN148      0.2266
     71  O         -1.9260    5.0330    4.2520 O.2   148  ASN148     -0.2867
     72  CB        -2.7610    7.1290    2.3580 C.3   148  ASN148      0.1155
     73  CG        -4.1160    6.6430    1.7930 C.2   148  ASN148      0.2627
     74  OD1       -4.9400    6.0660    2.5130 O.2   148  ASN148     -0.2716
     75  ND2       -4.3360    6.8760    0.5110 N.am  148  ASN148     -0.0877
     76  N         -6.0400   17.9730    1.0710 N.3   172  ASP172     -0.1239
     77  CA        -5.8530   16.7450    0.2860 C.3   172  ASP172      0.1674
     78  C         -6.7000   15.6710    0.8810 C.2   172  ASP172      0.2266
     79  O         -6.3880   15.2380    1.9930 O.2   172  ASP172     -0.2867
     80  CB        -4.4070   16.2810    0.2910 C.3   172  ASP172      0.1410
     81  CG        -4.1650   15.1400   -0.6610 C.2   172  ASP172      0.3668
     82  OD1       -5.1110   14.6300   -1.3170 O.co2 172  ASP172     -0.2456
     83  OD2       -2.9950   14.7490   -0.7940 O.co2 172  ASP172     -0.2456
     84  N         -7.6030   12.6360   -0.8000 N.3   174  THR174     -0.1203
     85  CA        -7.3530   11.3300   -1.4100 C.3   174  THR174      0.1994
     86  C         -7.5950   10.1730   -0.4420 C.2   174  THR174      0.2617
     87  O         -8.0700    9.1070   -0.8570 O.2   174  THR174     -0.2717
     88  CB        -5.8680   11.2380   -1.9120 C.3   174  THR174      0.1784
     89  OG1       -5.6820   12.1600   -2.9800 O.3   174  THR174     -0.2211
     90  CG2       -5.4940    9.8590   -2.4060 C.3   174  THR174      0.0376
     91  N         -7.2720   10.3560    0.8390 N.am  175  ALA175     -0.1979
     92  CA        -7.3110    9.2110    1.7360 C.3   175  ALA175      0.1597
     93  C         -8.6970    8.9990    2.3340 C.2   175  ALA175      0.2287
     94  O         -9.1120    7.8570    2.5690 O.2   175  ALA175     -0.2864
     95  CB        -6.2350    9.3090    2.8460 C.3   175  ALA175      0.0319
     96  N         -9.6570   11.8430   -5.5470 N.3   195  SER195     -0.1217
     97  CA        -9.0410   10.8820   -6.4070 C.3   195  SER195      0.1889
     98  C        -10.0260    9.7700   -6.8000 C.2   195  SER195      0.2288
     99  O        -10.6450    9.1410   -5.9320 O.2   195  SER195     -0.2866
    100  CB        -7.8300   10.3180   -5.6800 C.3   195  SER195      0.2089
    101  OG        -7.4170    9.1070   -6.2700 O.3   195  SER195     -0.2183
    102  N         -9.2850    5.8940   -5.7490 N.3   198  ASP198     -0.1239
    103  CA        -9.4910    5.6820   -4.3020 C.3   198  ASP198      0.1674
    104  C        -10.9370    5.3880   -3.9240 C.2   198  ASP198      0.2266
    105  O        -11.1860    4.7100   -2.9230 O.2   198  ASP198     -0.2867
    106  CB        -8.8960    6.8160   -3.4860 C.3   198  ASP198      0.1410
    107  CG        -7.3470    6.7180   -3.3970 C.2   198  ASP198      0.3668
    108  OD1       -6.8030    6.7450   -2.2550 O.co2 198  ASP198     -0.2456
    109  OD2       -6.6820    6.5680   -4.4610 O.co2 198  ASP198     -0.2456
@<TRIPOS>BOND
     1    14    15    1
     2    15    16    1
     3    17    16    2
     4    16    18   am
     5    29    27    1
     6    25    26    2
     7    25    24    1
     8    27    24    1
     9    27    28    1
    10    18    19    1
    11    24    23    1
    12    23    20   am
    13    20    19    1
    14    20    21    2
    15    19    22    1
    16    98    97    1
    17    98    99    2
    18    30    31    1
    19    97   100    1
    20    97    96    1
    21   101   100    1
    22    32    31    1
    23    32    33    2
    24    11    10    2
    25   102   103    1
    26    31    34    1
    27    52    49    1
    28    52    53    1
    29    10     9    1
    30    34    35    1
    31    51    50    2
    32    49    50    1
    33    49    48    1
    34   109   107   ar
    35   103   104    1
    36   103   106    1
    37   104   105    2
    38    35    36    2
    39    35    37   am
    40    12     9    1
    41    12    13    1
    42     9     8    1
    43    46    44   ar
    44    46    47   ar
    45   106   107    1
    46   107   108   ar
    47    89    88    1
    48    44    43   ar
    49     8     3   am
    50    47    45   ar
    51    90    88    1
    52     4     3    2
    53     3     2    1
    54    88    85    1
    55    43    45   ar
    56    43    42    1
    57    85    84    1
    58    85    86    1
    59    82    81   ar
    60    87    86    2
    61    83    81   ar
    62    42    39    1
    63    81    80    1
    64     2     1    1
    65     2     5    1
    66    41    40    2
    67    40    39    1
    68    86    91   am
    69    39    38    1
    70    77    80    1
    71    77    78    1
    72    77    76    1
    73     5     7    1
    74     5     6    1
    75    75    73   am
    76    91    92    1
    77    78    79    2
    78    92    93    1
    79    92    95    1
    80    73    72    1
    81    73    74    2
    82    93    94    2
    83    72    69    1
    84    69    68    1
    85    69    70    1
    86    71    70    2
    87    62    60   am
    88    58    55    1
    89    58    59    1
    90    55    54    1
    91    55    56    1
    92    66    65    2
    93    56    57    2
    94    60    59    1
    95    60    61    2
    96    63    64    1
    97    65    64    1
    98    64    67    1
