@<TRIPOS>MOLECULE
tmp/4eb9B00.pdb
 163 161 0 0 0
SMALL
GASTEIGER

@<TRIPOS>ATOM
      1  N         35.5850    7.0940   24.9260 N.3    41  ARG41      -0.1245
      2  CA        34.7340    5.9480   24.6530 C.3    41  ARG41       0.1563
      3  C         34.3590    5.2900   25.9720 C.2    41  ARG41       0.2260
      4  O         35.2240    4.8860   26.7490 O.2    41  ARG41      -0.2867
      5  CB        35.4520    4.9480   23.7470 C.3    41  ARG41       0.0307
      6  CG        35.9020    3.6800   24.4560 C.3    41  ARG41       0.0489
      7  CD        37.2920    3.8430   25.0480 C.3    41  ARG41       0.2205
      8  NE        38.2780    4.2120   24.0370 N.pl3  41  ARG41      -0.0865
      9  CZ        39.5670    3.8920   24.0990 C.cat  41  ARG41       0.5346
     10  NH1       40.0300    3.1940   25.1270 N.pl3  41  ARG41       0.1354
     11  NH2       40.3930    4.2690   23.1320 N.pl3  41  ARG41       0.1354
     12  N         35.9630    5.0980   29.9970 N.3    44  ASP44      -0.1225
     13  CA        37.3360    4.6290   30.0220 C.3    44  ASP44       0.1805
     14  C         38.2940    5.7700   30.2980 C.2    44  ASP44       0.2598
     15  O         38.3440    6.7600   29.5680 O.2    44  ASP44      -0.2718
     16  CB        37.6940    3.9520   28.6970 C.3    44  ASP44       0.1424
     17  CG        37.0640    2.5810   28.5530 C.2    44  ASP44       0.3668
     18  OD1       36.2450    2.2080   29.4200 O.co2  44  ASP44      -0.2456
     19  OD2       37.3870    1.8760   27.5740 O.co2  44  ASP44      -0.2456
     20  N         39.0960    5.6150   31.3490 N.am   45  VAL45      -0.1966
     21  CA        40.1060    6.6100   31.7030 C.3    45  VAL45       0.1727
     22  C         41.5010    5.9900   31.8040 C.2    45  VAL45       0.2616
     23  O         41.6460    4.7670   31.8000 O.2    45  VAL45      -0.2715
     24  CB        39.7680    7.3080   33.0330 C.3    45  VAL45       0.0290
     25  CG1       38.3730    7.9120   32.9760 C.3    45  VAL45       0.0023
     26  CG2       39.8850    6.3280   34.1910 C.3    45  VAL45       0.0023
     27  N         42.5230    6.8380   31.8950 N.am   46  LYS46      -0.1977
     28  CA        43.9080    6.3720   32.0030 C.3    46  LYS46       0.1596
     29  C         44.8060    7.3260   32.8060 C.2    46  LYS46       0.2287
     30  O         44.5940    8.5390   32.8030 O.2    46  LYS46      -0.2864
     31  CB        44.5040    6.1410   30.6120 C.3    46  LYS46       0.0298
     32  CG        44.0010    4.8830   29.9220 C.3    46  LYS46       0.0038
     33  CD        44.0260    5.0350   28.4100 C.3    46  LYS46       0.0206
     34  CE        45.2700    4.3990   27.8120 C.3    46  LYS46       0.1093
     35  NZ        45.0460    2.9720   27.4510 N.3    46  LYS46      -0.1314
     36  N         44.5770    1.8920   32.6950 N.3    53  GLY53      -0.1210
     37  CA        43.1950    2.2190   32.3620 C.3    53  GLY53       0.1956
     38  C         42.1890    1.6740   33.3530 C.2    53  GLY53       0.2612
     39  O         42.3320    0.5540   33.8350 O.2    53  GLY53      -0.2717
     40  N         41.1700    2.4670   33.6630 N.am   54  LEU54      -0.1965
     41  CA        40.0800    2.0130   34.5280 C.3    54  LEU54       0.1728
     42  C         38.7400    2.2500   33.8530 C.2    54  LEU54       0.2616
     43  O         38.6200    3.1340   33.0070 O.2    54  LEU54      -0.2715
     44  CB        40.1500    2.7030   35.8970 C.3    54  LEU54       0.0311
     45  CG        41.2490    2.1650   36.8380 C.3    54  LEU54       0.0022
     46  CD1       41.5710    3.1300   37.9590 C.3    54  LEU54       0.0001
     47  CD2       40.8910    0.7970   37.4100 C.3    54  LEU54       0.0001
     48  N         37.7390    1.4450   34.2020 N.am   55  ARG55      -0.1963
     49  CA        36.3830    1.6130   33.6490 C.3    55  ARG55       0.1729
     50  C         35.3350    1.0760   34.6190 C.2    55  ARG55       0.2616
     51  O         35.6880    0.5230   35.6660 O.2    55  ARG55      -0.2715
     52  CB        36.2370    1.0030   32.2280 C.3    55  ARG55       0.0348
     53  CG        36.2770   -0.5490   32.1110 C.3    55  ARG55       0.0492
     54  CD        35.7730   -1.0500   30.7340 C.3    55  ARG55       0.2205
     55  NE        36.5910   -0.5230   29.6380 N.pl3  55  ARG55      -0.0865
     56  CZ        37.5700   -1.1860   29.0150 C.cat  55  ARG55       0.5346
     57  NH1       37.8630   -2.4340   29.3510 N.pl3  55  ARG55       0.1354
     58  NH2       38.2620   -0.5940   28.0480 N.pl3  55  ARG55       0.1354
     59  N         34.0600    1.2590   34.2730 N.am   56  CYS56      -0.1954
     60  CA        32.9140    0.8190   35.0920 C.3    56  CYS56       0.1843
     61  C         32.8300    1.4860   36.4690 C.2    56  CYS56       0.2625
     62  O         32.6040    0.8230   37.4830 O.2    56  CYS56      -0.2714
     63  CB        32.8710   -0.7100   35.2180 C.3    56  CYS56       0.0997
     64  SG        32.5180   -1.5610   33.6650 S.3    56  CYS56      -0.0797
     65  N         32.9990    2.8040   36.4870 N.am   57  TRP57      -0.1960
     66  CA        32.9030    3.5920   37.7180 C.3    57  TRP57       0.1771
     67  C         31.5210    3.4850   38.3500 C.2    57  TRP57       0.2619
     68  O         30.5040    3.5920   37.6650 O.2    57  TRP57      -0.2715
     69  CB        33.2570    5.0570   37.4530 C.3    57  TRP57       0.0590
     70  CG        34.6740    5.2430   37.0000 C.ar   57  TRP57       0.0006
     71  CD1       35.1120    5.3450   35.7180 C.ar   57  TRP57       0.0946
     72  CD2       35.8390    5.3330   37.8320 C.ar   57  TRP57       0.0152
     73  NE1       36.4790    5.4930   35.6900 N.ar   57  TRP57      -0.2442
     74  CE2       36.9500    5.4940   36.9770 C.ar   57  TRP57       0.0810
     75  CE3       36.0520    5.2930   39.2160 C.ar   57  TRP57       0.0012
     76  CZ2       38.2590    5.6140   37.4620 C.ar   57  TRP57       0.0191
     77  CZ3       37.3480    5.4200   39.6970 C.ar   57  TRP57       0.0001
     78  CH2       38.4360    5.5830   38.8200 C.ar   57  TRP57       0.0015
     79  N         31.5000    3.2660   39.6610 N.am   58  GLU58      -0.1977
     80  CA        30.2570    3.0980   40.4060 C.3    58  GLU58       0.1602
     81  C         30.2050    4.0580   41.6020 C.2    58  GLU58       0.2287
     82  O         31.2340    4.6010   42.0140 O.2    58  GLU58      -0.2864
     83  CB        30.1160    1.6370   40.8590 C.3    58  GLU58       0.0415
     84  CG        29.9390    0.6350   39.7100 C.3    58  GLU58       0.1163
     85  CD        30.0180   -0.8270   40.1510 C.2    58  GLU58       0.3649
     86  OE1       29.4580   -1.1760   41.2160 O.co2  58  GLU58      -0.2457
     87  OE2       30.6360   -1.6340   39.4160 O.co2  58  GLU58      -0.2457
     88  N         33.0720    4.9740   44.3870 N.3    61  ASP61      -0.1239
     89  CA        34.4340    4.6540   43.9280 C.3    61  ASP61       0.1674
     90  C         35.4120    5.8200   44.1090 C.2    61  ASP61       0.2266
     91  O         35.1380    6.9440   43.6980 O.2    61  ASP61      -0.2867
     92  CB        34.4400    4.1690   42.4700 C.3    61  ASP61       0.1410
     93  CG        34.0040    2.7170   42.3300 C.2    61  ASP61       0.3668
     94  OD1       34.1420    1.9400   43.2950 O.co2  61  ASP61      -0.2456
     95  OD2       33.5220    2.3440   41.2440 O.co2  61  ASP61      -0.2456
     96  N         41.5160    3.2650   43.7280 N.3    66  GLU66      -0.1245
     97  CA        41.5440    2.4190   42.5400 C.3    66  GLU66       0.1567
     98  C         42.8970    2.4960   41.8250 C.2    66  GLU66       0.2260
     99  O         43.4050    1.4760   41.3750 O.2    66  GLU66      -0.2867
    100  CB        40.3860    2.7380   41.5860 C.3    66  GLU66       0.0388
    101  CG        39.0010    2.4770   42.1610 C.3    66  GLU66       0.1160
    102  CD        38.7490    1.0140   42.5010 C.2    66  GLU66       0.3649
    103  OE1       39.2160    0.1200   41.7520 O.co2  66  GLU66      -0.2457
    104  OE2       38.0620    0.7600   43.5160 O.co2  66  GLU66      -0.2457
    105  N         45.1380    0.3350   43.6420 N.3    69  LYS69      -0.1231
    106  CA        44.7080   -1.0560   43.6600 C.3    69  LYS69       0.1693
    107  C         45.2900   -1.8130   42.4780 C.2    69  LYS69       0.2592
    108  O         45.7780   -2.9290   42.6290 O.2    69  LYS69      -0.2718
    109  CB        43.1810   -1.1130   43.6260 C.3    69  LYS69       0.0285
    110  CG        42.5800   -2.4430   43.9670 C.3    69  LYS69       0.0035
    111  CD        41.0630   -2.3800   43.8700 C.3    69  LYS69       0.0206
    112  CE        40.4610   -3.7650   43.7880 C.3    69  LYS69       0.1093
    113  NZ        39.0030   -3.7170   44.0600 N.3    69  LYS69      -0.1314
    114  N         45.2570   -1.1810   41.3080 N.am   70  TRP70      -0.1962
    115  CA        45.5720   -1.8450   40.0540 C.3    70  TRP70       0.1771
    116  C         46.9180   -1.4350   39.4830 C.2    70  TRP70       0.2619
    117  O         47.5600   -2.2190   38.7530 O.2    70  TRP70      -0.2715
    118  CB        44.4630   -1.5740   39.0380 C.3    70  TRP70       0.0590
    119  CG        43.1760   -2.1580   39.4620 C.ar   70  TRP70       0.0006
    120  CD1       42.0990   -1.4910   39.9580 C.ar   70  TRP70       0.0946
    121  CD2       42.8310   -3.5440   39.4720 C.ar   70  TRP70       0.0152
    122  NE1       41.0910   -2.3720   40.2600 N.ar   70  TRP70      -0.2442
    123  CE2       41.5120   -3.6410   39.9670 C.ar   70  TRP70       0.0810
    124  CE3       43.5010   -4.7160   39.0950 C.ar   70  TRP70       0.0012
    125  CZ2       40.8520   -4.8600   40.0980 C.ar   70  TRP70       0.0191
    126  CZ3       42.8430   -5.9280   39.2280 C.ar   70  TRP70       0.0001
    127  CH2       41.5310   -5.9890   39.7220 C.ar   70  TRP70       0.0015
    128  N         47.3480   -0.2120   39.8020 N.am   71  PHE71      -0.1974
    129  CA        48.6340    0.2780   39.3050 C.3    71  PHE71       0.1639
    130  C         49.5130    0.8780   40.4010 C.2    71  PHE71       0.2290
    131  O         49.8740    2.0490   40.3150 O.2    71  PHE71      -0.2864
    132  CB        48.4200    1.2630   38.1450 C.3    71  PHE71       0.0560
    133  CG        47.2950    0.8680   37.2100 C.ar   71  PHE71      -0.0200
    134  CD1       47.3920   -0.2760   36.4150 C.ar   71  PHE71      -0.0042
    135  CD2       46.1350    1.6390   37.1300 C.ar   71  PHE71      -0.0042
    136  CE1       46.3470   -0.6500   35.5690 C.ar   71  PHE71      -0.0003
    137  CE2       45.0950    1.2770   36.2780 C.ar   71  PHE71      -0.0003
    138  CZ        45.2010    0.1300   35.4970 C.ar   71  PHE71      -0.0000
    139  N         41.9420  -13.2520   41.7950 N.3    99  GLN99      -0.1231
    140  CA        40.5350  -12.8860   41.5850 C.3    99  GLN99       0.1698
    141  C         40.2370  -12.7090   40.0930 C.2    99  GLN99       0.2592
    142  O         39.2140  -13.1660   39.5940 O.2    99  GLN99      -0.2718
    143  CB        40.1980  -11.5920   42.3480 C.3    99  GLN99       0.0381
    144  CG        38.7760  -11.0610   42.1350 C.3    99  GLN99       0.0905
    145  CD        38.6920   -9.5370   42.1610 C.2    99  GLN99       0.2608
    146  OE1       39.5070   -8.8450   41.5520 O.2    99  GLN99      -0.2717
    147  NE2       37.6910   -9.0150   42.8570 N.am   99  GLN99      -0.0878
    148  N         41.1350  -12.0170   39.3910 N.am  100  LEU100     -0.1966
    149  CA        40.9870  -11.7640   37.9530 C.3   100  LEU100      0.1728
    150  C         40.7730  -13.0460   37.1310 C.2   100  LEU100      0.2616
    151  O         39.8840  -13.1020   36.2770 O.2   100  LEU100     -0.2715
    152  CB        42.2110  -11.0180   37.4010 C.3   100  LEU100      0.0311
    153  CG        42.2760   -9.5030   37.1660 C.3   100  LEU100      0.0022
    154  CD1       43.3990   -9.2170   36.1890 C.3   100  LEU100      0.0001
    155  CD2       40.9830   -8.9140   36.6200 C.3   100  LEU100      0.0001
    156  N         41.5840  -14.0700   37.3950 N.am  101  LEU101     -0.1977
    157  CA        41.6400  -15.2510   36.5310 C.3   101  LEU101      0.1596
    158  C         40.4380  -16.1930   36.6700 C.2   101  LEU101      0.2287
    159  O         40.0940  -16.6440   37.7600 O.2   101  LEU101     -0.2864
    160  CB        42.9720  -16.0030   36.7140 C.3   101  LEU101      0.0297
    161  CG        44.2760  -15.2450   36.4140 C.3   101  LEU101      0.0022
    162  CD1       45.5050  -16.1280   36.6400 C.3   101  LEU101      0.0001
    163  CD2       44.2820  -14.6670   35.0030 C.3   101  LEU101      0.0001
@<TRIPOS>BOND
     1    11     9    1
     2     5     6    1
     3     5     2    1
     4     8     9    2
     5     8     7    1
     6     9    10    1
     7     6     7    1
     8     2     1    1
     9     2     3    1
    10     3     4    2
    11    35    34    1
    12    19    17   ar
    13    34    33    1
    14    58    56    1
    15    33    32    1
    16    17    16    1
    17    17    18   ar
    18    16    13    1
    19    56    57    1
    20    56    55    2
    21    15    14    2
    22    55    54    1
    23    32    31    1
    24    12    13    1
    25    13    14    1
    26    14    20   am
    27    31    28    1
    28    54    53    1
    29    20    21    1
    30    21    22    1
    31    21    24    1
    32    23    22    2
    33    22    27   am
    34    27    28    1
    35    28    29    1
    36    53    52    1
    37    52    49    1
    38    37    36    1
    39    37    38    1
    40    30    29    2
    41    25    24    1
    42    43    42    2
    43    24    26    1
    44    38    40   am
    45    38    39    2
    46    49    48    1
    47    49    50    1
    48    40    41    1
    49    64    63    1
    50    42    48   am
    51    42    41    1
    52    59    50   am
    53    59    60    1
    54    41    44    1
    55    50    51    2
    56   163   161    1
    57    60    63    1
    58    60    61    1
    59   138   136   ar
    60   138   137   ar
    61   136   134   ar
    62    73    71   ar
    63    73    74   ar
    64    71    70   ar
    65    44    45    1
    66   154   153    1
    67   151   150    2
    68   137   135   ar
    69   161   162    1
    70   161   160    1
    71   134   133   ar
    72    61    65   am
    73    61    62    2
    74    65    66    1
    75   157   158    1
    76   157   160    1
    77   157   156    1
    78   155   153    1
    79   158   159    2
    80    45    47    1
    81    45    46    1
    82    74    76   ar
    83    74    72   ar
    84    70    69    1
    85    70    72   ar
    86   135   133   ar
    87   150   156   am
    88   150   149    1
    89   153   152    1
    90   133   132    1
    91   152   149    1
    92    69    66    1
    93    76    78   ar
    94    68    67    2
    95    66    67    1
    96    72    75   ar
    97   149   148    1
    98   132   129    1
    99    67    79   am
   100   117   116    2
   101    78    77   ar
   102   118   119    1
   103   118   115    1
   104   124   126   ar
   105   124   121   ar
   106    75    77   ar
   107   126   127   ar
   108   129   128    1
   109   129   130    1
   110   148   141   am
   111    87    85   ar
   112   119   121   ar
   113   119   120   ar
   114   121   123   ar
   115   116   128   am
   116   116   115    1
   117   142   141    2
   118    79    80    1
   119    84    85    1
   120    84    83    1
   121   127   125   ar
   122   120   122   ar
   123   123   125   ar
   124   123   122   ar
   125   115   114    1
   126   141   140    1
   127    85    86   ar
   128   131   130    2
   129    80    83    1
   130    80    81    1
   131    95    93   ar
   132   114   107   am
   133    99    98    2
   134   146   145    2
   135   140   139    1
   136   140   143    1
   137   100   101    1
   138   100    97    1
   139    81    82    2
   140   103   102   ar
   141    98    97    1
   142   144   145    1
   143   144   143    1
   144   101   102    1
   145   145   147   am
   146    93    92    1
   147    93    94   ar
   148    92    89    1
   149   107   108    2
   150   107   106    1
   151   102   104   ar
   152    97    96    1
   153   109   106    1
   154   109   110    1
   155   105   106    1
   156    91    90    2
   157   112   111    1
   158   112   113    1
   159   111   110    1
   160    89    90    1
   161    89    88    1
