@<TRIPOS>MOLECULE
tmp/4ebcA00.pdb
 161 156 0 0 0
SMALL
GASTEIGER

@<TRIPOS>ATOM
      1  N         87.2930  -18.6890  215.1490 N.3     9  ASP9       -0.1225
      2  CA        88.5310  -19.0760  215.8170 C.3     9  ASP9        0.1805
      3  C         89.0330  -17.8850  216.6580 C.2     9  ASP9        0.2598
      4  O         89.3650  -16.8480  216.0910 O.2     9  ASP9       -0.2718
      5  CB        89.5240  -19.4790  214.7210 C.3     9  ASP9        0.1424
      6  CG        90.8770  -19.8630  215.2500 C.2     9  ASP9        0.3668
      7  OD1       91.4870  -19.0430  215.9560 O.co2   9  ASP9       -0.2456
      8  OD2       91.3490  -20.9710  214.9270 O.co2   9  ASP9       -0.2456
      9  N         89.0930  -18.0030  217.9880 N.am   10  LEU10      -0.1966
     10  CA        89.3640  -16.8210  218.8240 C.3    10  LEU10       0.1728
     11  C         90.8270  -16.4270  218.8170 C.2    10  LEU10       0.2616
     12  O         91.6730  -17.2580  218.7000 O.2    10  LEU10      -0.2715
     13  CB        88.8840  -17.0480  220.2480 C.3    10  LEU10       0.0311
     14  CG        87.4310  -17.5410  220.3380 C.3    10  LEU10       0.0022
     15  CD1       87.0970  -18.0390  221.7310 C.3    10  LEU10       0.0001
     16  CD2       86.4330  -16.4750  219.9330 C.3    10  LEU10       0.0001
     17  N         91.1240  -15.1440  218.9190 N.am   11  ASP11      -0.1957
     18  CA        92.5130  -14.7010  218.9720 C.3    11  ASP11       0.1840
     19  C         93.1780  -15.1220  220.3000 C.2    11  ASP11       0.2622
     20  O         92.5190  -15.0810  221.3540 O.2    11  ASP11      -0.2715
     21  CB        92.5790  -13.1750  218.8190 C.3    11  ASP11       0.1450
     22  CG        91.9560  -12.6740  217.5110 C.2    11  ASP11       0.3671
     23  OD1       92.1240  -13.3410  216.4500 O.co2  11  ASP11      -0.2456
     24  OD2       91.3230  -11.5880  217.5410 O.co2  11  ASP11      -0.2456
     25  N         94.4600  -15.5110  220.2310 N.am   12  CYS12      -0.1954
     26  CA        95.2860  -15.8800  221.3970 C.3    12  CYS12       0.1843
     27  C         94.4530  -16.2380  222.6200 C.2    12  CYS12       0.2625
     28  O         94.4700  -15.5260  223.6330 O.2    12  CYS12      -0.2714
     29  CB        96.3140  -14.7810  221.7410 C.3    12  CYS12       0.0997
     30  SG        95.6620  -13.1200  222.1800 S.3    12  CYS12      -0.0797
     31  N         93.6870  -17.3190  222.4940 N.am   13  PHE13      -0.1960
     32  CA        92.6190  -17.6390  223.4550 C.3    13  PHE13       0.1771
     33  C         92.9420  -17.4890  224.9430 C.2    13  PHE13       0.2619
     34  O         92.3870  -16.6110  225.5950 O.2    13  PHE13      -0.2715
     35  CB        92.0160  -19.0200  223.2070 C.3    13  PHE13       0.0574
     36  CG        90.7650  -19.2530  223.9730 C.ar   13  PHE13      -0.0200
     37  CD1       89.7850  -18.2860  224.0010 C.ar   13  PHE13      -0.0042
     38  CD2       90.5630  -20.4160  224.6690 C.ar   13  PHE13      -0.0042
     39  CE1       88.6330  -18.4700  224.7070 C.ar   13  PHE13      -0.0003
     40  CE2       89.4000  -20.6040  225.3730 C.ar   13  PHE13      -0.0003
     41  CZ        88.4390  -19.6280  225.3920 C.ar   13  PHE13      -0.0000
     42  N         93.8140  -18.3440  225.4780 N.am   14  TYR14      -0.1974
     43  CA        94.1130  -18.3120  226.9130 C.3    14  TYR14       0.1639
     44  C         94.6210  -16.9370  227.3300 C.2    14  TYR14       0.2290
     45  O         94.1270  -16.3620  228.2960 O.2    14  TYR14      -0.2864
     46  CB        95.1330  -19.3760  227.3180 C.3    14  TYR14       0.0560
     47  CG        94.6790  -20.8310  227.2770 C.ar   14  TYR14      -0.0198
     48  CD1       93.3390  -21.1910  227.0940 C.ar   14  TYR14      -0.0009
     49  CD2       95.6150  -21.8520  227.4190 C.ar   14  TYR14      -0.0009
     50  CE1       92.9580  -22.5380  227.0560 C.ar   14  TYR14       0.0417
     51  CE2       95.2510  -23.1780  227.3860 C.ar   14  TYR14       0.0417
     52  CZ        93.9330  -23.5230  227.2030 C.ar   14  TYR14       0.1957
     53  OH        93.6340  -24.8680  227.1790 O.3    14  TYR14      -0.2866
     54  N        102.1460  -23.2950  231.4380 N.3    34  GLN34      -0.1245
     55  CA       101.7320  -24.6110  231.8900 C.3    34  GLN34       0.1566
     56  C        102.9810  -25.4270  232.0840 C.2    34  GLN34       0.2260
     57  O        103.7000  -25.6910  231.1230 O.2    34  GLN34      -0.2867
     58  CB       100.8360  -25.2970  230.8590 C.3    34  GLN34       0.0367
     59  CG        99.3670  -24.8950  230.9150 C.3    34  GLN34       0.0905
     60  CD        98.5340  -25.6220  229.8740 C.2    34  GLN34       0.2608
     61  OE1       99.0580  -26.3590  229.0380 O.2    34  GLN34      -0.2717
     62  NE2       97.2290  -25.4280  229.9300 N.am   34  GLN34      -0.0878
     63  N        105.9810  -24.9170  229.9270 N.3    37  LEU37      -0.1245
     64  CA       105.5850  -24.5020  228.5940 C.3    37  LEU37       0.1561
     65  C        104.9680  -23.1160  228.5990 C.2    37  LEU37       0.2260
     66  O        104.4530  -22.6490  229.6240 O.2    37  LEU37      -0.2867
     67  CB       104.6140  -25.5100  227.9670 C.3    37  LEU37       0.0270
     68  CG       105.2150  -26.6750  227.1820 C.3    37  LEU37       0.0019
     69  CD1      104.1630  -27.2560  226.2530 C.3    37  LEU37       0.0001
     70  CD2      106.4330  -26.2340  226.3990 C.3    37  LEU37       0.0001
     71  N        102.1240  -22.1290  226.3340 N.3    39  VAL39      -0.1231
     72  CA       101.1790  -22.6790  225.3520 C.3    39  VAL39       0.1692
     73  C        100.6530  -21.6440  224.3640 C.2    39  VAL39       0.2592
     74  O        100.4150  -21.9450  223.1990 O.2    39  VAL39      -0.2718
     75  CB        99.9670  -23.3640  226.0380 C.3    39  VAL39       0.0266
     76  CG1      100.3210  -24.7750  226.4500 C.3    39  VAL39       0.0020
     77  CG2       99.4760  -22.5360  227.2390 C.3    39  VAL39       0.0020
     78  N        100.4550  -20.4300  224.8510 N.am   40  THR40      -0.1953
     79  CA       100.0330  -19.3280  224.0130 C.3    40  THR40       0.1897
     80  C        100.5220  -18.0140  224.6340 C.2    40  THR40       0.2313
     81  O        101.0290  -17.9910  225.7630 O.2    40  THR40      -0.2863
     82  CB        98.4940  -19.3140  223.8340 C.3    40  THR40       0.1794
     83  OG1       98.1300  -18.3690  222.8260 O.3    40  THR40      -0.2208
     84  CG2       97.7950  -18.9430  225.1310 C.3    40  THR40       0.0378
     85  N         99.5540  -11.0310  221.3980 N.3    43  TYR43      -0.1241
     86  CA       100.3360  -10.7270  220.2060 C.3    43  TYR43       0.1605
     87  C        101.4940   -9.7910  220.5000 C.2    43  TYR43       0.2264
     88  O        102.4600   -9.7250  219.7330 O.2    43  TYR43      -0.2867
     89  CB        99.4540  -10.1990  219.0840 C.3    43  TYR43       0.0534
     90  CG        98.7500  -11.3030  218.3300 C.ar   43  TYR43      -0.0201
     91  CD1       97.6250  -11.9310  218.8670 C.ar   43  TYR43      -0.0009
     92  CD2       99.2160  -11.7290  217.0920 C.ar   43  TYR43      -0.0009
     93  CE1       96.9740  -12.9490  218.1790 C.ar   43  TYR43       0.0417
     94  CE2       98.5730  -12.7370  216.3920 C.ar   43  TYR43       0.0417
     95  CZ        97.4500  -13.3510  216.9330 C.ar   43  TYR43       0.1957
     96  OH        96.8080  -14.3640  216.2250 O.3    43  TYR43      -0.2866
     97  N        104.2310  -11.8600  220.8420 N.3    46  ARG46      -0.1245
     98  CA       104.3960  -12.7130  219.6790 C.3    46  ARG46       0.1563
     99  C        105.3280  -12.0490  218.6850 C.2    46  ARG46       0.2260
    100  O        106.0740  -12.7260  217.9670 O.2    46  ARG46      -0.2867
    101  CB       103.0440  -13.0280  219.0460 C.3    46  ARG46       0.0307
    102  CG       103.0040  -14.3880  218.4010 C.3    46  ARG46       0.0489
    103  CD       101.5970  -14.7420  218.0180 C.3    46  ARG46       0.2205
    104  NE       100.8320  -15.2310  219.1600 N.pl3  46  ARG46      -0.0865
    105  CZ        99.7480  -15.9900  219.0420 C.cat  46  ARG46       0.5346
    106  NH1       99.3200  -16.3310  217.8320 N.pl3  46  ARG46       0.1354
    107  NH2       99.1030  -16.4130  220.1220 N.pl3  46  ARG46       0.1354
    108  N        103.8940  -20.0090  220.1490 N.3    52  LYS52      -0.1231
    109  CA       103.0280  -21.0230  220.7640 C.3    52  LYS52       0.1693
    110  C        103.7940  -22.3240  221.0360 C.2    52  LYS52       0.2591
    111  O        104.5640  -22.7810  220.1880 O.2    52  LYS52      -0.2718
    112  CB       101.7860  -21.2970  219.8960 C.3    52  LYS52       0.0285
    113  CG       100.7860  -20.1330  219.8270 C.3    52  LYS52       0.0035
    114  CD        99.5550  -20.4550  218.9630 C.3    52  LYS52       0.0206
    115  CE        99.9390  -20.8340  217.5250 C.3    52  LYS52       0.1093
    116  NZ        98.8280  -20.6820  216.5280 N.3    52  LYS52      -0.1314
    117  N        103.5890  -22.8930  222.2280 N.am   53  LEU53      -0.1980
    118  CA       104.2820  -24.1090  222.6640 C.3    53  LEU53       0.1596
    119  C        105.7950  -23.9410  222.6570 C.2    53  LEU53       0.2287
    120  O        106.5100  -24.7280  222.0470 O.2    53  LEU53      -0.2864
    121  CB       103.8850  -25.3100  221.7990 C.3    53  LEU53       0.0297
    122  CG       102.4480  -25.8030  221.9470 C.3    53  LEU53       0.0022
    123  CD1      102.1140  -26.8020  220.8560 C.3    53  LEU53       0.0001
    124  CD2      102.2600  -26.4140  223.3260 C.3    53  LEU53       0.0001
    125  N         88.6540  -25.8180  222.4620 N.3   100  PHE100     -0.1227
    126  CA        88.0290  -24.7810  223.2700 C.3   100  PHE100      0.1736
    127  C         87.6890  -23.5050  222.4940 C.2   100  PHE100      0.2595
    128  O         86.8090  -22.7530  222.9030 O.2   100  PHE100     -0.2718
    129  CB        88.9210  -24.4140  224.4610 C.3   100  PHE100      0.0547
    130  CG        88.8840  -25.4010  225.5970 C.ar  100  PHE100     -0.0202
    131  CD1       88.4160  -26.7000  225.4140 C.ar  100  PHE100     -0.0042
    132  CD2       89.3220  -25.0210  226.8580 C.ar  100  PHE100     -0.0042
    133  CE1       88.3970  -27.6080  226.4740 C.ar  100  PHE100     -0.0003
    134  CE2       89.3050  -25.9210  227.9260 C.ar  100  PHE100     -0.0003
    135  CZ        88.8420  -27.2170  227.7300 C.ar  100  PHE100     -0.0000
    136  N         88.3740  -23.2540  221.3810 N.am  101  ASP101     -0.1960
    137  CA        88.2770  -21.9450  220.7300 C.3   101  ASP101      0.1840
    138  C         87.7500  -21.9520  219.3090 C.2   101  ASP101      0.2621
    139  O         87.6280  -20.8910  218.6910 O.2   101  ASP101     -0.2715
    140  CB        89.6430  -21.2840  220.6780 C.3   101  ASP101      0.1450
    141  CG        90.6020  -22.0500  219.8210 C.2   101  ASP101      0.3671
    142  OD1       90.3350  -23.2530  219.5390 O.co2 101  ASP101     -0.2456
    143  OD2       91.6180  -21.4610  219.4480 O.co2 101  ASP101     -0.2456
    144  N         87.4710  -23.1260  218.7660 N.am  102  GLU102     -0.1977
    145  CA        86.9590  -23.1490  217.3990 C.3   102  GLU102      0.1602
    146  C         85.5000  -23.5970  217.2980 C.2   102  GLU102      0.2287
    147  O         85.0250  -24.4680  218.0200 O.2   102  GLU102     -0.2864
    148  CB        87.8940  -23.9250  216.4730 C.3   102  GLU102      0.0415
    149  CG        89.2280  -23.2140  216.2630 C.3   102  GLU102      0.1163
    150  CD        90.2860  -24.0760  215.5570 C.2   102  GLU102      0.3649
    151  OE1       89.9030  -25.0430  214.8450 O.co2 102  GLU102     -0.2457
    152  OE2       91.5010  -23.7780  215.7240 O.co2 102  GLU102     -0.2457
    153  N         95.0200  -12.5230  210.5300 N.3   189  LYS189     -0.1245
    154  CA        95.0040  -12.5540  211.9990 C.3   189  LYS189      0.1561
    155  C         95.7100  -11.3140  212.5350 C.2   189  LYS189      0.2260
    156  O         96.6330  -10.8090  211.9130 O.2   189  LYS189     -0.2867
    157  CB        95.7130  -13.8030  212.5470 C.3   189  LYS189      0.0271
    158  CG        95.0550  -15.1190  212.2030 C.3   189  LYS189      0.0035
    159  CD        95.5990  -16.2510  213.0590 C.3   189  LYS189      0.0206
    160  CE        97.1070  -16.3360  212.9660 C.3   189  LYS189      0.1093
    161  NZ        97.5950  -17.4820  213.7680 N.3   189  LYS189     -0.1314
@<TRIPOS>BOND
     1   153   154    1
     2   156   155    2
     3   154   155    1
     4   154   157    1
     5   158   157    1
     6   158   159    1
     7   160   159    1
     8   160   161    1
     9     5     6    1
    10     5     2    1
    11   151   150   ar
    12     8     6   ar
    13     1     2    1
    14     6     7   ar
    15   150   152   ar
    16   150   149    1
    17     2     3    1
    18     4     3    2
    19    96    95    1
    20   149   148    1
    21    94    95   ar
    22    94    92   ar
    23    23    22   ar
    24   148   145    1
    25   116   115    1
    26     3     9   am
    27    95    93   ar
    28    92    90   ar
    29   146   145    1
    30   146   147    2
    31   145   144    1
    32    22    24   ar
    33    22    21    1
    34   115   114    1
    35   106   105    1
    36   100    99    2
    37     9    10    1
    38   103   102    1
    39   103   104    1
    40    93    91   ar
    41    90    91   ar
    42    90    89    1
    43   102   101    1
    44    99    98    1
    45   139   138    2
    46    12    11    2
    47   144   138   am
    48    11    10    1
    49    11    17   am
    50    21    18    1
    51    10    13    1
    52    17    18    1
    53   114   113    1
    54    18    19    1
    55   105   104    2
    56   105   107    1
    57   101    98    1
    58    89    86    1
    59   138   137    1
    60   143   141   ar
    61   142   141   ar
    62    98    97    1
    63    88    87    2
    64   141   140    1
    65   113   112    1
    66   112   109    1
    67    16    14    1
    68   108   109    1
    69   111   110    2
    70    86    87    1
    71    86    85    1
    72    25    19   am
    73    25    26    1
    74    13    14    1
    75    19    20    2
    76    14    15    1
    77   140   137    1
    78   137   136    1
    79   109   110    1
    80   123   122    1
    81   110   117   am
    82   136   127   am
    83    26    29    1
    84    26    27    1
    85    29    30    1
    86   121   122    1
    87   121   118    1
    88   122   124    1
    89   120   119    2
    90   117   118    1
    91   125   126    1
    92   127   128    2
    93   127   126    1
    94    31    27   am
    95    31    32    1
    96    27    28    2
    97   119   118    1
    98    83    82    1
    99    74    73    2
   100    35    32    1
   101    35    36    1
   102   126   129    1
   103    32    33    1
   104    82    79    1
   105    82    84    1
   106    36    37   ar
   107    36    38   ar
   108    37    39   ar
   109    79    80    1
   110    79    78    1
   111    73    78   am
   112    73    72    1
   113   129   130    1
   114    80    81    2
   115    38    40   ar
   116    39    41   ar
   117    33    42   am
   118    33    34    2
   119    72    75    1
   120    72    71    1
   121    40    41   ar
   122   131   130   ar
   123   131   133   ar
   124    42    43    1
   125   130   132   ar
   126    75    76    1
   127    75    77    1
   128    69    68    1
   129    70    68    1
   130   133   135   ar
   131   132   134   ar
   132    43    46    1
   133    43    44    1
   134    50    48   ar
   135    50    52   ar
   136    48    47   ar
   137    53    52    1
   138    68    67    1
   139    52    51   ar
   140    47    46    1
   141    47    49   ar
   142    44    45    2
   143    51    49   ar
   144   135   134   ar
   145    67    64    1
   146    64    65    1
   147    64    63    1
   148    65    66    2
   149    61    60    2
   150    60    62   am
   151    60    59    1
   152    58    59    1
   153    58    55    1
   154    57    56    2
   155    54    55    1
   156    55    56    1
