@<TRIPOS>MOLECULE
tmp/4eblB00.pdb
 90 79 0 0 0
SMALL
GASTEIGER

@<TRIPOS>ATOM
      1  N          9.3970   12.4190   33.2610 N.3    41  CYS41      -0.1221
      2  CA        10.4190   12.1120   32.2880 C.3    41  CYS41       0.1808
      3  C          9.5980   11.7180   31.0690 C.2    41  CYS41       0.2601
      4  O          8.4350   12.3260   30.9480 O.2    41  CYS41      -0.2717
      5  CB        11.3080   11.0590   32.8150 C.3    41  CYS41       0.0970
      6  SG        12.5140   11.5970   34.0470 S.3    41  CYS41      -0.0800
      7  N          9.8470   10.7660   30.1650 N.am   42  SER42      -0.1952
      8  CA         9.4310   10.3340   28.8190 C.3    42  SER42       0.1924
      9  C          8.3150    9.3040   28.9430 C.2    42  SER42       0.2314
     10  O          7.5460    9.0770   28.0130 O.2    42  SER42      -0.2863
     11  CB        10.5940    9.7510   28.0240 C.3    42  SER42       0.2116
     12  OG        11.4940   10.7880   27.6410 O.3    42  SER42      -0.2180
     13  N          4.6910    9.6970   27.3510 N.3    45  LYS45      -0.1245
     14  CA         4.4830    9.4580   25.9270 C.3    45  LYS45       0.1561
     15  C          3.5000    8.3180   25.6620 C.2    45  LYS45       0.2260
     16  O          2.9190    8.2300   24.5830 O.2    45  LYS45      -0.2867
     17  CB         5.8160    9.1950   25.2250 C.3    45  LYS45       0.0271
     18  CG         6.6510   10.4470   25.0230 C.3    45  LYS45       0.0035
     19  CD         8.1340   10.1290   24.9530 C.3    45  LYS45       0.0206
     20  CE         8.9700   11.3770   25.1770 C.3    45  LYS45       0.1093
     21  NZ        10.2020   11.3810   24.3440 N.3    45  LYS45      -0.1314
     22  N         15.9120   17.8880   20.8200 N.3    74  SER74      -0.1202
     23  CA        15.9880   16.9110   21.8880 C.3    74  SER74       0.2020
     24  C         16.2920   15.5860   21.1890 C.2    74  SER74       0.2618
     25  O         16.1290   15.4970   19.9740 O.2    74  SER74      -0.2717
     26  CB        14.6440   16.8440   22.6160 C.3    74  SER74       0.2103
     27  OG        13.6270   16.4000   21.7310 O.3    74  SER74      -0.2182
     28  N         16.7480   14.5730   21.9290 N.am   75  ILE75      -0.1979
     29  CA        17.0480   13.2830   21.3120 C.3    75  ILE75       0.1595
     30  C         15.8460   12.6360   20.6010 C.2    75  ILE75       0.2287
     31  O         14.7970   12.3830   21.2050 O.2    75  ILE75      -0.2864
     32  CB        17.6820   12.3350   22.3140 C.3    75  ILE75       0.0276
     33  CG1       19.0630   12.9100   22.7060 C.3    75  ILE75       0.0022
     34  CG2       17.8240   10.9070   21.6850 C.3    75  ILE75       0.0022
     35  CD1       19.6820   12.2740   24.0230 C.3    75  ILE75       0.0001
     36  N         11.3050    6.4630   22.3180 N.3   100  SER100     -0.1217
     37  CA        11.1680    7.6240   23.2050 C.3   100  SER100      0.1889
     38  C         11.5640    8.9160   22.4740 C.2   100  SER100      0.2288
     39  O         12.1920    9.8040   23.0380 O.2   100  SER100     -0.2866
     40  CB        12.0450    7.3990   24.4480 C.3   100  SER100      0.2089
     41  OG        11.5490    8.0530   25.5870 O.3   100  SER100     -0.2183
     42  N         11.9410   12.4210   21.1750 N.3   102  GLY102     -0.1225
     43  CA        11.5150   13.6700   21.7880 C.3   102  GLY102      0.1811
     44  C         10.7670   14.5790   20.7990 C.2   102  GLY102      0.2280
     45  O          9.7360   15.1980   21.1240 O.2   102  GLY102     -0.2866
     46  N          9.9420   18.9530   25.2220 N.3   140  ALA140     -0.1245
     47  CA        11.3660   18.6410   25.2020 C.3   140  ALA140      0.1562
     48  C         12.1290   19.7350   24.4620 C.2   140  ALA140      0.2260
     49  O         11.6550   20.2520   23.4520 O.2   140  ALA140     -0.2867
     50  CB        11.6060   17.2860   24.5540 C.3   140  ALA140      0.0290
     51  N         13.3570   18.5050   30.8370 N.3   144  ASN144     -0.1240
     52  CA        14.5210   17.9440   31.5150 C.3   144  ASN144      0.1653
     53  C         15.1520   18.9220   32.5040 C.2   144  ASN144      0.2266
     54  O         15.9620   18.5290   33.3430 O.2   144  ASN144     -0.2867
     55  CB        15.5630   17.4860   30.4930 C.3   144  ASN144      0.1155
     56  CG        15.1880   16.2570   29.7620 C.2   144  ASN144      0.2627
     57  OD1       15.0670   15.2140   30.4170 O.2   144  ASN144     -0.2716
     58  ND2       14.9840   16.3130   28.5000 N.am  144  ASN144     -0.0877
     59  N         13.7830    0.4960   24.2550 N.3   190  THR190     -0.1218
     60  CA        14.6330    1.2170   25.2200 C.3   190  THR190      0.1862
     61  C         14.5890    0.5750   26.5950 C.2   190  THR190      0.2287
     62  O         15.2070    1.0670   27.5300 O.2   190  THR190     -0.2866
     63  CB        14.1620    2.6620   25.4120 C.3   190  THR190      0.1770
     64  OG1       12.8410    2.6150   25.9700 O.3   190  THR190     -0.2211
     65  CG2       14.1300    3.4680   24.0320 C.3   190  THR190      0.0375
     66  N         15.5170   -2.7660   32.2670 N.3   194  ARG194     -0.1245
     67  CA        14.7280   -2.3030   33.3920 C.3   194  ARG194      0.1563
     68  C         13.7230   -3.3950   33.8030 C.2   194  ARG194      0.2260
     69  O         14.1600   -4.5160   34.1160 O.2   194  ARG194     -0.2867
     70  CB        14.1130   -0.9470   33.0280 C.3   194  ARG194      0.0307
     71  CG        15.2650    0.1340   32.9010 C.3   194  ARG194      0.0489
     72  CD        14.7780    1.5070   32.4370 C.3   194  ARG194      0.2205
     73  NE        15.9080    2.3660   32.1130 N.pl3 194  ARG194     -0.0865
     74  CZ        15.8830    3.6940   32.1320 C.cat 194  ARG194      0.5346
     75  NH1       16.9770    4.3820   31.8140 N.pl3 194  ARG194      0.1354
     76  NH2       14.7750    4.3370   32.4640 N.pl3 194  ARG194      0.1354
     77  N          9.7760    3.5690   28.9630 N.3   209  THR209     -0.1218
     78  CA        10.7300    4.0490   29.9270 C.3   209  THR209      0.1862
     79  C         10.7200    5.5630   30.0440 C.2   209  THR209      0.2287
     80  O         10.1170    6.2870   29.2300 O.2   209  THR209     -0.2866
     81  CB        12.1460    3.6980   29.4790 C.3   209  THR209      0.1770
     82  OG1       12.3550    4.1810   28.1270 O.3   209  THR209     -0.2211
     83  CG2       12.3560    2.1940   29.5980 C.3   209  THR209      0.0375
     84  N         13.9570    8.5710   31.3280 N.3   211  THR211     -0.1218
     85  CA        15.2740    8.8460   31.8670 C.3   211  THR211      0.1862
     86  C         15.5130   10.3600   31.9000 C.2   211  THR211      0.2287
     87  O         15.1800   11.0780   30.9460 O.2   211  THR211     -0.2866
     88  CB        16.3420    8.1860   30.9820 C.3   211  THR211      0.1770
     89  OG1       15.9960    6.8100   30.7870 O.3   211  THR211     -0.2211
     90  CG2       17.7470    8.3040   31.6220 C.3   211  THR211      0.0375
@<TRIPOS>BOND
     1    25    24    2
     2    30    31    2
     3    30    29    1
     4    44    45    2
     5    44    43    1
     6    22    23    1
     7    42    43    1
     8    24    23    1
     9    24    28   am
    10    29    28    1
    11    29    32    1
    12    34    32    1
    13    27    26    1
    14    23    26    1
    15    32    33    1
    16    36    37    1
    17    38    39    2
    18    38    37    1
    19    33    35    1
    20    37    40    1
    21    49    48    2
    22    65    63    1
    23    59    60    1
    24    21    20    1
    25    40    41    1
    26    48    47    1
    27    50    47    1
    28    16    15    2
    29    19    18    1
    30    19    20    1
    31    18    17    1
    32    47    46    1
    33    60    63    1
    34    60    61    1
    35    17    14    1
    36    63    64    1
    37    15    14    1
    38    14    13    1
    39    61    62    2
    40    12    11    1
    41    10     9    2
    42    11     8    1
    43    82    81    1
    44    58    56   am
    45     8     9    1
    46     8     7    1
    47    77    78    1
    48    80    79    2
    49    81    83    1
    50    81    78    1
    51    56    57    2
    52    56    55    1
    53    78    79    1
    54     7     3   am
    55    55    52    1
    56    89    88    1
    57    51    52    1
    58    87    86    2
    59     4     3    2
    60    88    90    1
    61    88    85    1
    62     3     2    1
    63    84    85    1
    64    52    53    1
    65    75    74    1
    66    85    86    1
    67    73    74    2
    68    73    72    1
    69    74    76    1
    70    66    67    1
    71     2     5    1
    72     2     1    1
    73    72    71    1
    74    53    54    2
    75     5     6    1
    76    71    70    1
    77    70    67    1
    78    67    68    1
    79    68    69    2
