@<TRIPOS>MOLECULE
tmp/4ebuA00.pdb
 145 137 0 0 0
SMALL
GASTEIGER

@<TRIPOS>ATOM
      1  N         88.2180   63.2710   89.6390 N.3   202  SER202     -0.1217
      2  CA        87.2900   62.2750   89.1340 C.3   202  SER202      0.1889
      3  C         88.0950   61.0720   88.6220 C.2   202  SER202      0.2288
      4  O         89.0060   61.2350   87.8010 O.2   202  SER202     -0.2866
      5  CB        86.4380   62.8810   88.0090 C.3   202  SER202      0.2089
      6  OG        85.5030   61.9390   87.5310 O.3   202  SER202     -0.2183
      7  N         89.0100   59.9750   84.7040 N.3   205  ASP205     -0.1239
      8  CA        89.9470   60.9020   84.0690 C.3   205  ASP205      0.1674
      9  C         91.3630   60.6770   84.5800 C.2   205  ASP205      0.2266
     10  O         92.3250   60.6740   83.8090 O.2   205  ASP205     -0.2867
     11  CB        89.5380   62.3520   84.3230 C.3   205  ASP205      0.1410
     12  CG        88.3230   62.7680   83.5220 C.2   205  ASP205      0.3668
     13  OD1       88.0010   62.0860   82.5220 O.co2 205  ASP205     -0.2456
     14  OD2       87.7010   63.7920   83.8870 O.co2 205  ASP205     -0.2456
     15  N         85.5170   61.3200   93.1730 N.3   233  LYS233     -0.1231
     16  CA        84.2790   61.0050   92.4600 C.3   233  LYS233      0.1693
     17  C         84.5340   59.8800   91.4560 C.2   233  LYS233      0.2592
     18  O         85.6460   59.7330   90.9510 O.2   233  LYS233     -0.2718
     19  CB        83.7550   62.2510   91.7440 C.3   233  LYS233      0.0285
     20  CG        83.3800   63.3790   92.6990 C.3   233  LYS233      0.0035
     21  CD        83.3860   64.7350   91.9930 C.3   233  LYS233      0.0206
     22  CE        84.8060   65.1950   91.7420 C.3   233  LYS233      0.1093
     23  NZ        84.8810   66.6370   91.3620 N.3   233  LYS233     -0.1314
     24  N         83.5120   59.0770   91.1770 N.am  234  ASN234     -0.1960
     25  CA        83.6510   57.9590   90.2460 C.3   234  ASN234      0.1819
     26  C         82.3160   57.6180   89.5990 C.2   234  ASN234      0.2622
     27  O         81.8260   56.4960   89.7480 O.2   234  ASN234     -0.2715
     28  CB        84.1990   56.7190   90.9740 C.3   234  ASN234      0.1195
     29  CG        84.6420   55.6190   90.0160 C.2   234  ASN234      0.2630
     30  OD1       84.7700   55.8400   88.8070 O.2   234  ASN234     -0.2716
     31  ND2       84.8840   54.4240   90.5570 N.am  234  ASN234     -0.0877
     32  N         81.7280   58.5750   88.8810 N.am  235  GLY235     -0.1940
     33  CA        80.4390   58.3600   88.2390 C.3   235  GLY235      0.1998
     34  C         79.3580   57.8870   89.2020 C.2   235  GLY235      0.2480
     35  O         79.1710   58.4740   90.2680 O.2   235  GLY235     -0.2729
     36  N         78.6530   56.8030   88.8370 N.am  236  PRO236     -0.2726
     37  CA        77.5800   56.2590   89.6790 C.3   236  PRO236      0.1402
     38  C         78.0860   55.4530   90.8770 C.2   236  PRO236      0.2269
     39  O         77.2710   54.9510   91.6570 O.2   236  PRO236     -0.2865
     40  CB        76.8340   55.3220   88.7220 C.3   236  PRO236      0.0296
     41  CG        77.8870   54.8750   87.7460 C.3   236  PRO236      0.0237
     42  CD        78.7900   56.0700   87.5610 C.3   236  PRO236      0.0939
     43  N         81.8530   56.9770   96.4880 N.3   239  VAL239     -0.1245
     44  CA        82.9290   57.9500   96.5900 C.3   239  VAL239      0.1561
     45  C         83.9270   57.5020   97.6540 C.2   239  VAL239      0.2260
     46  O         83.5760   57.3790   98.8350 O.2   239  VAL239     -0.2867
     47  CB        82.3740   59.3480   96.9360 C.3   239  VAL239      0.0252
     48  CG1       83.5110   60.3410   97.2080 C.3   239  VAL239      0.0019
     49  CG2       81.4690   59.8440   95.8050 C.3   239  VAL239      0.0019
     50  N         76.6340   56.2900   96.6230 N.3   252  VAL252     -0.1231
     51  CA        75.9630   57.2200   95.7320 C.3   252  VAL252      0.1678
     52  C         74.6570   56.5610   95.3150 C.2   252  VAL252      0.2434
     53  O         74.6620   55.5880   94.5540 O.2   252  VAL252     -0.2733
     54  CB        76.8410   57.5490   94.5020 C.3   252  VAL252      0.0265
     55  CG1       76.0190   58.2330   93.4010 C.3   252  VAL252      0.0020
     56  CG2       78.0310   58.4160   94.9190 C.3   252  VAL252      0.0020
     57  N         73.5320   57.0760   95.8370 N.am  253  PRO253     -0.2718
     58  CA        72.2330   56.4470   95.5810 C.3   253  PRO253      0.1520
     59  C         71.9100   56.4580   94.0940 C.2   253  PRO253      0.2440
     60  O         72.1410   57.4730   93.4230 O.2   253  PRO253     -0.2731
     61  CB        71.2400   57.3130   96.3730 C.3   253  PRO253      0.0310
     62  CG        71.9540   58.5960   96.6570 C.3   253  PRO253      0.0237
     63  CD        73.4240   58.2760   96.6890 C.3   253  PRO253      0.0939
     64  N         71.4310   55.3170   93.5800 N.am  254  PRO254     -0.2716
     65  CA        71.0340   55.1340   92.1840 C.3   254  PRO254      0.1536
     66  C         70.1490   56.2670   91.6820 C.2   254  PRO254      0.2598
     67  O         69.1940   56.6680   92.3560 O.2   254  PRO254     -0.2715
     68  CB        70.2260   53.8270   92.2150 C.3   254  PRO254      0.0310
     69  CG        70.3820   53.2620   93.6310 C.3   254  PRO254      0.0237
     70  CD        71.4570   54.0380   94.3060 C.3   254  PRO254      0.0939
     71  N         70.4780   56.7790   90.5040 N.am  255  VAL255     -0.1978
     72  CA        69.6400   57.7570   89.8360 C.3   255  VAL255      0.1596
     73  C         69.0690   57.1250   88.5720 C.2   255  VAL255      0.2287
     74  O         69.8190   56.6050   87.7440 O.2   255  VAL255     -0.2864
     75  CB        70.4380   59.0290   89.4710 C.3   255  VAL255      0.0276
     76  CG1       69.5630   60.0070   88.7040 C.3   255  VAL255      0.0022
     77  CG2       70.9930   59.6800   90.7240 C.3   255  VAL255      0.0022
     78  N         68.8000   59.5020   84.0660 N.3   258  VAL258     -0.1245
     79  CA        69.9720   60.3370   83.8260 C.3   258  VAL258      0.1561
     80  C         69.8180   60.9700   82.4450 C.2   258  VAL258      0.2260
     81  O         69.6230   60.2690   81.4470 O.2   258  VAL258     -0.2867
     82  CB        71.2820   59.5280   83.9130 C.3   258  VAL258      0.0252
     83  CG1       72.4810   60.4090   83.5830 C.3   258  VAL258      0.0019
     84  CG2       71.4350   58.9210   85.3050 C.3   258  VAL258      0.0019
     85  N         74.9170   64.6370   82.0250 N.3   261  THR261     -0.1218
     86  CA        75.9240   64.6810   83.0810 C.3   261  THR261      0.1862
     87  C         76.7040   65.9980   83.1330 C.2   261  THR261      0.2287
     88  O         77.6600   66.1170   83.9050 O.2   261  THR261     -0.2866
     89  CB        76.9200   63.5040   82.9740 C.3   261  THR261      0.1770
     90  OG1       77.5210   63.5020   81.6770 O.3   261  THR261     -0.2211
     91  CG2       76.2130   62.1790   83.2110 C.3   261  THR261      0.0375
     92  N         78.0040   69.3290   84.2710 N.3   263  ALA263     -0.1231
     93  CA        78.1380   69.9660   85.5850 C.3   263  ALA263      0.1694
     94  C         77.9390   69.0240   86.7600 C.2   263  ALA263      0.2592
     95  O         77.8200   69.4780   87.9080 O.2   263  ALA263     -0.2718
     96  CB        77.2110   71.1770   85.7110 C.3   263  ALA263      0.0304
     97  N         77.9080   67.7200   86.4930 N.am  264  ALA264     -0.1966
     98  CA        77.7990   66.7430   87.5860 C.3   264  ALA264      0.1728
     99  C         78.8810   66.9840   88.6340 C.2   264  ALA264      0.2617
    100  O         78.5990   67.0710   89.8360 O.2   264  ALA264     -0.2715
    101  CB        77.8950   65.3320   87.0500 C.3   264  ALA264      0.0334
    102  N         80.1230   67.0910   88.1750 N.am  265  GLY265     -0.1940
    103  CA        81.2430   67.2980   89.0750 C.3   265  GLY265      0.2014
    104  C         81.2400   68.6930   89.6700 C.2   265  GLY265      0.2638
    105  O         81.5660   68.8730   90.8470 O.2   265  GLY265     -0.2714
    106  N         80.8860   69.6860   88.8560 N.am  266  ASP266     -0.1971
    107  CA        80.8240   71.0660   89.3260 C.3   266  ASP266      0.1709
    108  C         79.7980   71.2190   90.4520 C.2   266  ASP266      0.2293
    109  O         80.0360   71.9210   91.4340 O.2   266  ASP266     -0.2864
    110  CB        80.4700   72.0030   88.1690 C.3   266  ASP266      0.1436
    111  CG        81.4650   71.9180   87.0150 C.2   266  ASP266      0.3671
    112  OD1       82.6450   71.5710   87.2650 O.co2 266  ASP266     -0.2456
    113  OD2       81.0710   72.2120   85.8580 O.co2 266  ASP266     -0.2456
    114  N         78.5960   68.7100   92.3360 N.3   268  PHE268     -0.1241
    115  CA        79.1090   67.9220   93.4520 C.3   268  PHE268      0.1605
    116  C         80.0260   68.7850   94.3060 C.2   268  PHE268      0.2264
    117  O         79.9000   68.8270   95.5390 O.2   268  PHE268     -0.2867
    118  CB        79.8820   66.7070   92.9440 C.3   268  PHE268      0.0534
    119  CG        80.4270   65.8340   94.0440 C.ar  268  PHE268     -0.0203
    120  CD1       81.6440   66.1280   94.6530 C.ar  268  PHE268     -0.0042
    121  CD2       79.7320   64.7060   94.4570 C.ar  268  PHE268     -0.0042
    122  CE1       82.1520   65.3210   95.6790 C.ar  268  PHE268     -0.0003
    123  CE2       80.2370   63.8880   95.4710 C.ar  268  PHE268     -0.0003
    124  CZ        81.4470   64.2010   96.0830 C.ar  268  PHE268     -0.0000
    125  N         76.7370   64.3260   96.7000 N.3   290  ALA290     -0.1245
    126  CA        76.1850   63.3040   95.8230 C.3   290  ALA290      0.1562
    127  C         74.7000   63.5640   95.5730 C.2   290  ALA290      0.2260
    128  O         74.2270   63.4190   94.4470 O.2   290  ALA290     -0.2867
    129  CB        76.4070   61.9060   96.4190 C.3   290  ALA290      0.0290
    130  N         74.3300   66.4960   93.0360 N.3   293  ALA293     -0.1231
    131  CA        74.7460   66.0670   91.7060 C.3   293  ALA293      0.1694
    132  C         73.7290   65.0880   91.0960 C.2   293  ALA293      0.2592
    133  O         73.4820   65.1060   89.8780 O.2   293  ALA293     -0.2718
    134  CB        76.1370   65.4590   91.7660 C.3   293  ALA293      0.0304
    135  N         73.1210   64.2610   91.9470 N.am  294  GLY294     -0.1957
    136  CA        72.0910   63.3270   91.5120 C.3   294  GLY294      0.1869
    137  C         70.9110   64.0300   90.8680 C.2   294  GLY294      0.2309
    138  O         70.3580   63.5540   89.8620 O.2   294  GLY294     -0.2863
    139  N         72.1430   65.7690   87.2840 N.3   297  VAL297     -0.1245
    140  CA        72.1910   64.9090   86.0940 C.3   297  VAL297      0.1561
    141  C         70.7990   64.5480   85.5810 C.2   297  VAL297      0.2260
    142  O         70.6590   63.9670   84.4980 O.2   297  VAL297     -0.2867
    143  CB        73.0300   63.6240   86.3200 C.3   297  VAL297      0.0252
    144  CG1       74.4590   63.9910   86.7040 C.3   297  VAL297      0.0019
    145  CG2       72.3830   62.7300   87.4000 C.3   297  VAL297      0.0019
@<TRIPOS>BOND
     1    81    80    2
     2    90    89    1
     3    85    86    1
     4    80    79    1
     5    13    12   ar
     6    89    86    1
     7    89    91    1
     8    86    87    1
     9    87    88    2
    10    12    14   ar
    11    12    11    1
    12    83    82    1
    13    10     9    2
    14    79    82    1
    15    79    78    1
    16    82    84    1
    17     8    11    1
    18     8     9    1
    19     8     7    1
    20    92    93    1
    21   142   141    2
    22   141   140    1
    23    93    96    1
    24    93    94    1
    25   113   111   ar
    26   140   143    1
    27   140   139    1
    28   143   144    1
    29   143   145    1
    30    97    94   am
    31    97    98    1
    32    94    95    2
    33   111   112   ar
    34   111   110    1
    35   101    98    1
    36     6     5    1
    37    42    41    1
    38    42    36    1
    39    98    99    1
    40    74    73    2
    41    41    40    1
    42     4     3    2
    43     5     2    1
    44   110   107    1
    45   102    99   am
    46   102   103    1
    47    33    32    1
    48    33    34    1
    49    73    72    1
    50     3     2    1
    51    99   100    2
    52    76    75    1
    53    40    37    1
    54    30    29    2
    55    36    34   am
    56    36    37    1
    57   106   107    1
    58   106   104   am
    59    32    26   am
    60   103   104    1
    61     2     1    1
    62    34    35    2
    63   107   108    1
    64    75    72    1
    65    75    77    1
    66    26    27    2
    67    26    25    1
    68   104   105    2
    69    37    38    1
    70    72    71    1
    71   138   137    2
    72   133   132    2
    73    29    31   am
    74    29    28    1
    75    25    28    1
    76    25    24    1
    77   108   109    2
    78    71    66   am
    79   137   136    1
    80    38    39    2
    81    18    17    2
    82   132   131    1
    83   132   135   am
    84    24    17   am
    85    23    22    1
    86    17    16    1
    87   136   135    1
    88    66    65    1
    89    66    67    2
    90   131   134    1
    91   131   130    1
    92    22    21    1
    93    19    16    1
    94    19    20    1
    95    21    20    1
    96    65    68    1
    97    65    64    1
    98    68    69    1
    99   114   115    1
   100    16    15    1
   101   118   115    1
   102   118   119    1
   103    55    54    1
   104    60    59    2
   105   115   116    1
   106    64    59   am
   107    64    70    1
   108    69    70    1
   109   119   121   ar
   110   119   120   ar
   111    59    58    1
   112   116   117    2
   113   128   127    2
   114   121   123   ar
   115    54    56    1
   116    54    51    1
   117    53    52    2
   118   120   122   ar
   119    52    51    1
   120    52    57   am
   121   123   124   ar
   122   127   126    1
   123    58    57    1
   124    58    61    1
   125   122   124   ar
   126    51    50    1
   127    49    47    1
   128   126   129    1
   129   126   125    1
   130    57    63    1
   131    61    62    1
   132    43    44    1
   133    44    47    1
   134    44    45    1
   135    62    63    1
   136    47    48    1
   137    45    46    2
