@<TRIPOS>MOLECULE
tmp/4ebwA00.pdb
 192 183 0 0 0
SMALL
GASTEIGER

@<TRIPOS>ATOM
      1  N          8.3710   16.2160   15.2780 N.3    59  GLU59      -0.1245
      2  CA         8.9330   14.8550   15.2670 C.3    59  GLU59       0.1567
      3  C         10.4300   14.8510   14.9490 C.2    59  GLU59       0.2260
      4  O         11.1830   14.0640   15.5170 O.2    59  GLU59      -0.2867
      5  CB         8.1730   13.8990   14.3350 C.3    59  GLU59       0.0388
      6  CG         6.8330   13.4120   14.9130 C.3    59  GLU59       0.1160
      7  CD         6.2720   12.1460   14.2450 C.2    59  GLU59       0.3649
      8  OE1        6.8690   11.6590   13.2590 O.co2  59  GLU59      -0.2457
      9  OE2        5.2250   11.6370   14.7230 O.co2  59  GLU59      -0.2457
     10  N         12.5970   16.5320   17.8840 N.3    62  THR62      -0.1203
     11  CA        12.6870   15.5550   18.9530 C.3    62  THR62       0.1994
     12  C         13.7560   14.5120   18.6350 C.2    62  THR62       0.2617
     13  O         14.7070   14.3580   19.3980 O.2    62  THR62      -0.2717
     14  CB        11.3070   14.9140   19.1850 C.3    62  THR62       0.1784
     15  OG1       10.4000   15.9310   19.6290 O.3    62  THR62      -0.2211
     16  CG2       11.3620   13.8190   20.2240 C.3    62  THR62       0.0376
     17  N         13.6150   13.8170   17.5070 N.am   63  MET63      -0.1979
     18  CA        14.6210   12.8410   17.0640 C.3    63  MET63       0.1605
     19  C         16.0630   13.4140   17.0730 C.2    63  MET63       0.2287
     20  O         17.0250   12.7020   17.3950 O.2    63  MET63      -0.2864
     21  CB        14.2440   12.2730   15.6810 C.3    63  MET63       0.0413
     22  CG        15.0340   11.0330   15.2260 C.3    63  MET63       0.0598
     23  SD        14.4340   10.3250   13.6560 S.3    63  MET63      -0.1393
     24  CE        13.1380    9.2120   14.2240 C.3    63  MET63       0.0692
     25  N         18.5760   13.0250   20.2490 N.3    66  PHE66      -0.1241
     26  CA        19.1210   11.7360   20.6830 C.3    66  PHE66       0.1605
     27  C         20.1530   11.1400   19.7320 C.2    66  PHE66       0.2264
     28  O         20.0510   11.2630   18.5210 O.2    66  PHE66      -0.2867
     29  CB        17.9950   10.7260   20.8940 C.3    66  PHE66       0.0534
     30  CG        16.8240   11.2740   21.6420 C.ar   66  PHE66      -0.0203
     31  CD1       15.5590   11.2720   21.0660 C.ar   66  PHE66      -0.0042
     32  CD2       16.9820   11.8040   22.9210 C.ar   66  PHE66      -0.0042
     33  CE1       14.4640   11.7880   21.7580 C.ar   66  PHE66      -0.0003
     34  CE2       15.8930   12.3170   23.6290 C.ar   66  PHE66      -0.0003
     35  CZ        14.6370   12.3160   23.0490 C.ar   66  PHE66      -0.0000
     36  N         18.3270    3.7400   18.3520 N.3    71  ILE71      -0.1245
     37  CA        17.2100    4.6240   18.0620 C.3    71  ILE71       0.1561
     38  C         17.5300    5.1390   16.6860 C.2    71  ILE71       0.2260
     39  O         18.6740    5.5250   16.4470 O.2    71  ILE71      -0.2867
     40  CB        17.0820    5.8320   19.0440 C.3    71  ILE71       0.0252
     41  CG1       17.1820    5.3810   20.5060 C.3    71  ILE71       0.0019
     42  CG2       15.7500    6.5670   18.8360 C.3    71  ILE71       0.0019
     43  CD1       17.3200    6.5250   21.4940 C.3    71  ILE71       0.0001
     44  N         17.1000   -3.0810   22.7530 N.3   118  LEU118     -0.1245
     45  CA        16.0260   -2.1310   23.0890 C.3   118  LEU118      0.1561
     46  C         16.1090   -1.5680   24.5010 C.2   118  LEU118      0.2260
     47  O         15.8430   -0.3770   24.7240 O.2   118  LEU118     -0.2867
     48  CB        14.6540   -2.7750   22.8720 C.3   118  LEU118      0.0270
     49  CG        14.4600   -3.3350   21.4540 C.3   118  LEU118      0.0019
     50  CD1       13.2330   -4.2590   21.3370 C.3   118  LEU118      0.0001
     51  CD2       14.3930   -2.1930   20.4450 C.3   118  LEU118      0.0001
     52  N         16.0820    2.2590   25.8240 N.3   122  LEU122     -0.1245
     53  CA        15.0660    2.7710   26.7390 C.3   122  LEU122      0.1561
     54  C         15.6980    3.3800   28.0000 C.2   122  LEU122      0.2260
     55  O         15.2040    4.3870   28.5350 O.2   122  LEU122     -0.2867
     56  CB        14.0280    1.6870   27.0560 C.3   122  LEU122      0.0270
     57  CG        13.1610    1.3260   25.8420 C.3   122  LEU122      0.0019
     58  CD1       12.4820   -0.0410   26.0130 C.3   122  LEU122      0.0001
     59  CD2       12.1500    2.4200   25.5700 C.3   122  LEU122      0.0001
     60  N         16.9370    6.8250   27.1410 N.3   125  LEU125     -0.1245
     61  CA        15.8320    7.7690   27.0530 C.3   125  LEU125      0.1561
     62  C         15.3560    8.2050   28.4320 C.2   125  LEU125      0.2260
     63  O         14.9450    9.3470   28.6300 O.2   125  LEU125     -0.2867
     64  CB        14.6830    7.1760   26.2280 C.3   125  LEU125      0.0270
     65  CG        14.9060    7.1380   24.7030 C.3   125  LEU125      0.0019
     66  CD1       13.8000    6.3910   23.9470 C.3   125  LEU125      0.0001
     67  CD2       15.1060    8.5360   24.1000 C.3   125  LEU125      0.0001
     68  N         13.3500   11.6830   28.8060 N.3   130  PHE130     -0.1241
     69  CA        12.4010   11.8680   27.7240 C.3   130  PHE130      0.1605
     70  C         11.0750   11.1920   28.0560 C.2   130  PHE130      0.2264
     71  O         11.0600   10.0680   28.5650 O.2   130  PHE130     -0.2867
     72  CB        12.9830   11.3050   26.4220 C.3   130  PHE130      0.0534
     73  CG        12.0790   11.4600   25.2140 C.ar  130  PHE130     -0.0203
     74  CD1       11.6870   10.3320   24.4720 C.ar  130  PHE130     -0.0042
     75  CD2       11.6280   12.7280   24.8060 C.ar  130  PHE130     -0.0042
     76  CE1       10.8650   10.4600   23.3380 C.ar  130  PHE130     -0.0003
     77  CE2       10.7970   12.8720   23.6860 C.ar  130  PHE130     -0.0003
     78  CZ        10.4170   11.7390   22.9480 C.ar  130  PHE130     -0.0000
     79  N          8.0120    9.8920   26.0400 N.3   132  HIS132     -0.1241
     80  CA         7.4400    9.6390   24.7360 C.3   132  HIS132      0.1621
     81  C          5.9180    9.5550   24.8610 C.2   132  HIS132      0.2264
     82  O          5.3560    8.5850   25.3980 O.2   132  HIS132     -0.2867
     83  CB         8.0270    8.3880   24.0750 C.3   132  HIS132      0.0745
     84  CG         7.4360    8.1070   22.7300 C.ar  132  HIS132      0.0817
     85  ND1        7.8360    8.7690   21.5910 N.ar  132  HIS132     -0.2268
     86  CD2        6.4310    7.2860   22.3530 C.ar  132  HIS132      0.1154
     87  CE1        7.1240    8.3460   20.5630 C.ar  132  HIS132      0.1986
     88  NE2        6.2690    7.4400   20.9970 N.ar  132  HIS132     -0.2212
     89  N          4.7980    4.0510   18.5350 N.3   138  ARG138     -0.1231
     90  CA         5.9270    3.2440   18.9900 C.3   138  ARG138      0.1694
     91  C          6.0250    2.0050   18.1020 C.2   138  ARG138      0.2592
     92  O          5.0180    1.3090   17.8930 O.2   138  ARG138     -0.2718
     93  CB         5.7860    2.8640   20.4750 C.3   138  ARG138      0.0321
     94  CG         5.8490    4.0440   21.4300 C.3   138  ARG138      0.0489
     95  CD         5.7260    3.6230   22.8890 C.3   138  ARG138      0.2205
     96  NE         5.6200    4.7800   23.7830 N.pl3 138  ARG138     -0.0865
     97  CZ         5.5550    4.7280   25.1150 C.cat 138  ARG138      0.5346
     98  NH1        5.6100    3.5690   25.7460 N.pl3 138  ARG138      0.1354
     99  NH2        5.4590    5.8470   25.8240 N.pl3 138  ARG138      0.1354
    100  N          7.2240    1.7850   17.5490 N.am  139  ASN139     -0.1960
    101  CA         7.5360    0.6200   16.7160 C.3   139  ASN139      0.1819
    102  C          9.0370    0.2350   16.7880 C.2   139  ASN139      0.2621
    103  O          9.8540    1.0120   17.3040 O.2   139  ASN139     -0.2715
    104  CB         7.0750    0.8550   15.2680 C.3   139  ASN139      0.1195
    105  CG         7.0420   -0.4280   14.4430 C.2   139  ASN139      0.2630
    106  OD1        6.8840   -1.5280   14.9770 O.2   139  ASN139     -0.2716
    107  ND2        7.2190   -0.2900   13.1330 N.am  139  ASN139     -0.0877
    108  N          9.3890   -0.9690   16.3200 N.am  140  VAL140     -0.1977
    109  CA        10.7950   -1.4120   16.3150 C.3   140  VAL140      0.1596
    110  C         11.2240   -1.7830   14.9070 C.2   140  VAL140      0.2287
    111  O         10.4890   -2.4590   14.1740 O.2   140  VAL140     -0.2864
    112  CB        11.0570   -2.6170   17.2500 C.3   140  VAL140      0.0276
    113  CG1       12.5410   -2.8360   17.3970 C.3   140  VAL140      0.0022
    114  CG2       10.4720   -2.3530   18.6110 C.3   140  VAL140      0.0022
    115  N         14.6510    1.6120   17.8970 N.3   150  LEU150     -0.1231
    116  CA        13.3600    2.2510   18.1620 C.3   150  LEU150      0.1693
    117  C         13.0100    3.2970   17.0700 C.2   150  LEU150      0.2593
    118  O         13.8960    4.0230   16.5800 O.2   150  LEU150     -0.2718
    119  CB        13.3430    2.9050   19.5580 C.3   150  LEU150      0.0284
    120  CG        13.6020    2.0740   20.8320 C.3   150  LEU150      0.0019
    121  CD1       13.5560    2.9770   22.0680 C.3   150  LEU150      0.0001
    122  CD2       12.6540    0.9090   20.9840 C.3   150  LEU150      0.0001
    123  N         11.7260    3.3780   16.7110 N.am  151  GLY151     -0.1942
    124  CA        11.2360    4.3540   15.7310 C.3   151  GLY151      0.2014
    125  C          9.7540    4.6190   15.9230 C.2   151  GLY151      0.2638
    126  O          9.0910    3.8730   16.6430 O.2   151  GLY151     -0.2714
    127  N          9.2420    5.6720   15.2780 N.am  152  ASP152     -0.1971
    128  CA         7.8320    6.0760   15.3680 C.3   152  ASP152      0.1709
    129  C          7.1160    6.0540   14.0130 C.2   152  ASP152      0.2293
    130  O          6.2810    6.9260   13.7090 O.2   152  ASP152     -0.2864
    131  CB         7.7040    7.4640   16.0090 C.3   152  ASP152      0.1436
    132  CG         8.5970    8.5150   15.3560 C.2   152  ASP152      0.3671
    133  OD1        9.2570    8.2320   14.3210 O.co2 152  ASP152     -0.2456
    134  OD2        8.6490    9.6420   15.8920 O.co2 152  ASP152     -0.2456
    135  N         -1.1050   -3.6340   24.9240 N.3   161  TRP161     -0.1241
    136  CA         0.2940   -3.4280   25.3530 C.3   161  TRP161      0.1605
    137  C          0.4300   -2.5090   26.5720 C.2   161  TRP161      0.2264
    138  O          1.5350   -2.2850   27.0640 O.2   161  TRP161     -0.2867
    139  CB         1.1210   -2.8110   24.2190 C.3   161  TRP161      0.0550
    140  CG         1.2890   -3.6550   23.0000 C.ar  161  TRP161      0.0003
    141  CD1        2.4040   -4.3380   22.6370 C.ar  161  TRP161      0.0946
    142  CD2        0.3150   -3.8950   21.9730 C.ar  161  TRP161      0.0152
    143  NE1        2.1920   -5.0040   21.4540 N.ar  161  TRP161     -0.2442
    144  CE2        0.9210   -4.7420   21.0160 C.ar  161  TRP161      0.0810
    145  CE3       -1.0110   -3.4790   21.7680 C.ar  161  TRP161      0.0012
    146  CZ2        0.2490   -5.1820   19.8590 C.ar  161  TRP161      0.0191
    147  CZ3       -1.6890   -3.9250   20.6170 C.ar  161  TRP161      0.0001
    148  CH2       -1.0550   -4.7700   19.6840 C.ar  161  TRP161      0.0015
    149  N          5.8230    2.4580   30.7450 N.3   177  ASP177     -0.1239
    150  CA         6.7300    2.1040   29.6580 C.3   177  ASP177      0.1674
    151  C          7.3080    0.7270   29.8890 C.2   177  ASP177      0.2266
    152  O          7.2870   -0.1060   28.9900 O.2   177  ASP177     -0.2867
    153  CB         7.8930    3.0890   29.5670 C.3   177  ASP177      0.1410
    154  CG         7.4890    4.4370   29.0180 C.2   177  ASP177      0.3668
    155  OD1        8.2940    5.3790   29.2180 O.co2 177  ASP177     -0.2456
    156  OD2        6.4040    4.5550   28.3850 O.co2 177  ASP177     -0.2456
    157  N          4.9010   -1.9710   29.0610 N.3   180  MET180     -0.1230
    158  CA         4.8620   -2.1520   27.6110 C.3   180  MET180      0.1702
    159  C          6.1090   -2.8680   27.0650 C.2   180  MET180      0.2592
    160  O          5.9940   -3.7320   26.1860 O.2   180  MET180     -0.2718
    161  CB         4.6610   -0.8080   26.9090 C.3   180  MET180      0.0401
    162  CG         4.3910   -0.9370   25.4060 C.3   180  MET180      0.0596
    163  SD         4.2440    0.6550   24.5480 S.3   180  MET180     -0.1393
    164  CE         2.9980    1.4530   25.5900 C.3   180  MET180      0.0692
    165  N          7.2870   -2.5090   27.5830 N.am  181  PHE181     -0.1976
    166  CA         8.5240   -3.1910   27.2070 C.3   181  PHE181      0.1639
    167  C          8.4270   -4.6790   27.4740 C.2   181  PHE181      0.2290
    168  O          8.8820   -5.4960   26.6660 O.2   181  PHE181     -0.2864
    169  CB         9.7220   -2.6450   27.9640 C.3   181  PHE181      0.0560
    170  CG        11.0290   -3.2270   27.5050 C.ar  181  PHE181     -0.0200
    171  CD1       11.9600   -3.7030   28.4250 C.ar  181  PHE181     -0.0042
    172  CD2       11.3280   -3.3140   26.1370 C.ar  181  PHE181     -0.0042
    173  CE1       13.1830   -4.2390   27.9850 C.ar  181  PHE181     -0.0003
    174  CE2       12.5350   -3.8480   25.6900 C.ar  181  PHE181     -0.0003
    175  CZ        13.4660   -4.3040   26.6100 C.ar  181  PHE181     -0.0000
    176  N          6.5130   -6.1240   24.7520 N.3   184  CYS184     -0.1235
    177  CA         7.3710   -6.1290   23.5840 C.3   184  CYS184      0.1677
    178  C          8.4000   -7.2600   23.6430 C.2   184  CYS184      0.2270
    179  O          8.6860   -7.8850   22.6200 O.2   184  CYS184     -0.2867
    180  CB         8.0340   -4.7700   23.4270 C.3   184  CYS184      0.0956
    181  SG         9.4230   -4.7400   22.2860 S.3   184  CYS184     -0.0801
    182  N         14.3950    0.4880   33.8490 N.3   242  PHE242     -0.1241
    183  CA        15.0130    0.0690   32.5980 C.3   242  PHE242      0.1605
    184  C         16.4940   -0.2200   32.8080 C.2   242  PHE242      0.2264
    185  O         17.0660   -1.0860   32.1500 O.2   242  PHE242     -0.2867
    186  CB        14.8540    1.1510   31.5330 C.3   242  PHE242      0.0534
    187  CG        13.4930    1.1930   30.9040 C.ar  242  PHE242     -0.0203
    188  CD1       12.9840    0.0810   30.2320 C.ar  242  PHE242     -0.0042
    189  CD2       12.7310    2.3540   30.9510 C.ar  242  PHE242     -0.0042
    190  CE1       11.7190    0.1260   29.6370 C.ar  242  PHE242     -0.0003
    191  CE2       11.4740    2.4100   30.3560 C.ar  242  PHE242     -0.0003
    192  CZ        10.9650    1.2980   29.7000 C.ar  242  PHE242     -0.0000
@<TRIPOS>BOND
     1   107   105   am
     2     8     7   ar
     3    23    24    1
     4    23    22    1
     5   130   129    2
     6   129   128    1
     7   111   110    2
     8     7     9   ar
     9     7     6    1
    10   133   132   ar
    11     5     6    1
    12     5     2    1
    13   105   106    2
    14   105   104    1
    15   110   109    1
    16     3     2    1
    17     3     4    2
    18    22    21    1
    19     2     1    1
    20   104   101    1
    21   127   128    1
    22   127   125   am
    23   132   134   ar
    24   132   131    1
    25   128   131    1
    26    21    18    1
    27   124   125    1
    28   124   123    1
    29   125   126    2
    30   109   108    1
    31   109   112    1
    32   108   102   am
    33    39    38    2
    34   118   117    2
    35    38    37    1
    36   123   117   am
    37   101   102    1
    38   101   100    1
    39   102   103    2
    40    18    19    1
    41    18    17    1
    42   117   116    1
    43    19    20    2
    44   112   113    1
    45   112   114    1
    46    17    12   am
    47   100    91   am
    48    10    11    1
    49    92    91    2
    50   115   116    1
    51    37    36    1
    52    37    40    1
    53    91    90    1
    54   116   119    1
    55    28    27    2
    56    89    90    1
    57    12    11    1
    58    12    13    2
    59    42    40    1
    60    11    14    1
    61    90    93    1
    62    40    41    1
    63    14    15    1
    64    14    16    1
    65   119   120    1
    66   148   146   ar
    67   148   147   ar
    68    27    26    1
    69   146   144   ar
    70    25    26    1
    71    51    49    1
    72    93    94    1
    73    41    43    1
    74    87    88   ar
    75    87    85   ar
    76   147   145   ar
    77    26    29    1
    78   120   122    1
    79   120   121    1
    80    29    30    1
    81    88    86   ar
    82   144   143   ar
    83   144   142   ar
    84    31    30   ar
    85    31    33   ar
    86    50    49    1
    87    94    95    1
    88    49    48    1
    89   143   141   ar
    90    85    84   ar
    91    30    32   ar
    92    33    35   ar
    93   145   142   ar
    94   142   140   ar
    95   181   180    1
    96    86    84   ar
    97   179   178    2
    98   141   140   ar
    99    84    83    1
   100    44    45    1
   101    48    45    1
   102    95    96    1
   103    32    34   ar
   104    78    76   ar
   105    78    77   ar
   106   140   139    1
   107    35    34   ar
   108    45    46    1
   109    76    74   ar
   110   180   177    1
   111   177   178    1
   112   177   176    1
   113    77    75   ar
   114    96    97    2
   115    66    65    1
   116    83    80    1
   117    67    65    1
   118   139   136    1
   119    74    73   ar
   120    46    47    2
   121   163   162    1
   122   163   164    1
   123    65    64    1
   124    80    81    1
   125    80    79    1
   126    75    73   ar
   127    81    82    2
   128   135   136    1
   129    97    98    1
   130    97    99    1
   131    73    72    1
   132   136   137    1
   133   162   161    1
   134    59    57    1
   135   174   172   ar
   136   174   175   ar
   137    52    53    1
   138    57    58    1
   139    57    56    1
   140   172   170   ar
   141   160   159    2
   142    64    61    1
   143    72    69    1
   144   137   138    2
   145   175   173   ar
   146   168   167    2
   147    53    56    1
   148    53    54    1
   149   161   158    1
   150    61    60    1
   151    61    62    1
   152   159   165   am
   153   159   158    1
   154   166   167    1
   155   166   165    1
   156   166   169    1
   157   170   169    1
   158   170   171   ar
   159   158   157    1
   160    69    70    1
   161    69    68    1
   162   173   171   ar
   163    54    55    2
   164    70    71    2
   165   156   154   ar
   166    62    63    2
   167   152   151    2
   168   154   155   ar
   169   154   153    1
   170   153   150    1
   171   190   192   ar
   172   190   188   ar
   173   150   151    1
   174   150   149    1
   175   192   191   ar
   176   188   187   ar
   177   191   189   ar
   178   187   189   ar
   179   187   186    1
   180   186   183    1
   181   185   184    2
   182   183   184    1
   183   183   182    1
