@<TRIPOS>MOLECULE
tmp/4ebyA02.pdb
 90 86 0 0 0
SMALL
GASTEIGER

@<TRIPOS>ATOM
      1  N          9.4680   -0.5560    2.9260 N.3    71  PRO71      -0.2102
      2  CA        10.3510    0.5930    3.1710 C.3    71  PRO71       0.1504
      3  C         10.4510    1.4400    1.9130 C.2    71  PRO71       0.2576
      4  O         10.6050    0.8980    0.8250 O.2    71  PRO71      -0.2718
      5  CB        11.6960   -0.0630    3.4890 C.3    71  PRO71       0.0282
      6  CG        11.3290   -1.4230    4.0330 C.3    71  PRO71       0.0208
      7  CD        10.1190   -1.8390    3.2280 C.3    71  PRO71       0.0893
      8  N         10.3820    2.7630    2.0640 N.am   72  GLY72      -0.1957
      9  CA        10.3380    3.6500    0.9180 C.3    72  GLY72       0.1869
     10  C          8.9080    4.0940    0.6880 C.2    72  GLY72       0.2309
     11  O          8.6160    4.8320   -0.2550 O.2    72  GLY72      -0.2863
     12  N          5.8920    2.4800   -0.1720 N.3    74  PHE74      -0.1241
     13  CA         5.0820    2.0470   -1.2960 C.3    74  PHE74       0.1605
     14  C          4.5520    0.6560   -0.9450 C.2    74  PHE74       0.2264
     15  O          5.0290    0.0280    0.0010 O.2    74  PHE74      -0.2867
     16  CB         5.8970    2.0080   -2.6010 C.3    74  PHE74       0.0534
     17  CG         7.0250    0.9990   -2.5880 C.ar   74  PHE74      -0.0203
     18  CD1        6.8010   -0.3020   -2.9870 C.ar   74  PHE74      -0.0042
     19  CD2        8.3040    1.3610   -2.1820 C.ar   74  PHE74      -0.0042
     20  CE1        7.8230   -1.2420   -2.9710 C.ar   74  PHE74      -0.0003
     21  CE2        9.3280    0.4210   -2.1640 C.ar   74  PHE74      -0.0003
     22  CZ         9.0770   -0.8850   -2.5530 C.ar   74  PHE74      -0.0000
     23  N          5.6980   -9.7770  -13.3950 N.3   100  LEU100     -0.1231
     24  CA         5.1640   -9.1810  -12.1740 C.3   100  LEU100      0.1693
     25  C          6.2730   -8.5200  -11.3760 C.2   100  LEU100      0.2593
     26  O          6.0080   -7.7110  -10.4920 O.2   100  LEU100     -0.2718
     27  CB         4.4640  -10.2360  -11.3150 C.3   100  LEU100      0.0284
     28  CG         3.1700  -10.8030  -11.9000 C.3   100  LEU100      0.0019
     29  CD1        2.8730  -12.1370  -11.2440 C.3   100  LEU100      0.0001
     30  CD2        2.0110   -9.7990  -11.6860 C.3   100  LEU100      0.0001
     31  N          7.5140   -8.8950  -11.6820 N.am  101  THR101     -0.1939
     32  CA         8.6940   -8.2200  -11.1310 C.3   101  THR101      0.2028
     33  C          9.6420   -7.8630  -12.2760 C.2   101  THR101      0.2642
     34  O          9.3520   -8.1700  -13.4330 O.2   101  THR101     -0.2714
     35  CB         9.3830   -9.0930  -10.0470 C.3   101  THR101      0.1808
     36  OG1       10.2770   -8.2850   -9.2650 O.3   101  THR101     -0.2208
     37  CG2       10.1530  -10.2690  -10.6910 C.3   101  THR101      0.0379
     38  N         10.7500   -7.1750  -11.9710 N.am  102  THR102     -0.1950
     39  CA        11.7200   -6.8170  -13.0070 C.3   102  THR102      0.1897
     40  C         13.0970   -7.3500  -12.6580 C.2   102  THR102      0.2313
     41  O         13.4070   -7.5800  -11.4880 O.2   102  THR102     -0.2863
     42  CB        11.8410   -5.2940  -13.1940 C.3   102  THR102      0.1794
     43  OG1       12.3780   -4.7000  -12.0050 O.3   102  THR102     -0.2208
     44  CG2       10.4800   -4.6860  -13.5070 C.3   102  THR102      0.0378
     45  N         15.8360   -5.7210  -12.8530 N.3   104  GLU104     -0.1231
     46  CA        16.5600   -4.7090  -12.0940 C.3   104  GLU104      0.1699
     47  C         16.2040   -4.7710  -10.6100 C.2   104  GLU104      0.2592
     48  O         17.0810   -4.6200   -9.7400 O.2   104  GLU104     -0.2718
     49  CB        16.2740   -3.3060  -12.6570 C.3   104  GLU104      0.0402
     50  CG        16.8030   -3.0830  -14.0690 C.3   104  GLU104      0.1161
     51  CD        15.9160   -3.6550  -15.1850 C.2   104  GLU104      0.3649
     52  OE1       14.8110   -4.1960  -14.9270 O.co2 104  GLU104     -0.2457
     53  OE2       16.3470   -3.5560  -16.3540 O.co2 104  GLU104     -0.2457
     54  N         14.9230   -4.9850  -10.3190 N.am  105  SER105     -0.1952
     55  CA        14.4730   -5.0820   -8.9340 C.3   105  SER105      0.1924
     56  C         15.1140   -6.2920   -8.2550 C.2   105  SER105      0.2314
     57  O         15.6250   -6.1970   -7.1320 O.2   105  SER105     -0.2863
     58  CB        12.9440   -5.1570   -8.8580 C.3   105  SER105      0.2116
     59  OG        12.4990   -5.3560   -7.5210 O.3   105  SER105     -0.2180
     60  N         10.1730   -8.9720   -5.3160 N.3   126  LEU126     -0.1231
     61  CA         9.1870   -7.9340   -5.0280 C.3   126  LEU126      0.1693
     62  C          8.1550   -7.7950   -6.1350 C.2   126  LEU126      0.2592
     63  O          8.4900   -7.6220   -7.3100 O.2   126  LEU126     -0.2718
     64  CB         9.9090   -6.5870   -4.8260 C.3   126  LEU126      0.0284
     65  CG         8.9700   -5.4060   -4.6080 C.3   126  LEU126      0.0019
     66  CD1        8.1790   -5.6220   -3.3310 C.3   126  LEU126      0.0001
     67  CD2        9.7940   -4.0990   -4.5490 C.3   126  LEU126      0.0001
     68  N          6.8840   -7.8580   -5.7550 N.am  127  VAL127     -0.1966
     69  CA         5.8090   -7.5630   -6.6880 C.3   127  VAL127      0.1727
     70  C          4.9820   -6.4480   -6.0430 C.2   127  VAL127      0.2616
     71  O          4.5510   -6.5740   -4.8840 O.2   127  VAL127     -0.2715
     72  CB         4.9250   -8.8080   -6.8980 C.3   127  VAL127      0.0290
     73  CG1        3.7080   -8.4700   -7.7270 C.3   127  VAL127      0.0023
     74  CG2        5.7360   -9.9510   -7.5840 C.3   127  VAL127      0.0023
     75  N          4.7620   -5.3630   -6.7780 N.am  128  ASN128     -0.1972
     76  CA         4.0550   -4.2270   -6.2040 C.3   128  ASN128      0.1688
     77  C          2.5470   -4.4040   -6.2880 C.2   128  ASN128      0.2292
     78  O          2.0490   -5.2820   -7.0060 O.2   128  ASN128     -0.2864
     79  CB         4.4850   -2.9570   -6.9190 C.3   128  ASN128      0.1181
     80  CG         5.8880   -2.5480   -6.5550 C.2   128  ASN128      0.2629
     81  OD1        6.4120   -2.9500   -5.5050 O.2   128  ASN128     -0.2716
     82  ND2        6.4970   -1.7080   -7.4100 N.am  128  ASN128     -0.0877
     83  N          3.6620   -2.4120  -15.7200 N.3   183  ILE183     -0.1245
     84  CA         2.4950   -2.8330  -14.9640 C.3   183  ILE183      0.1561
     85  C          1.4730   -1.6950  -14.8830 C.2   183  ILE183      0.2260
     86  O          1.8270   -0.4940  -14.8640 O.2   183  ILE183     -0.2867
     87  CB         2.9300   -3.2400  -13.5500 C.3   183  ILE183      0.0252
     88  CG1        3.4720   -4.6860  -13.5820 C.3   183  ILE183      0.0019
     89  CG2        1.7950   -3.1260  -12.5600 C.3   183  ILE183      0.0019
     90  CD1        4.2790   -5.0330  -12.3770 C.3   183  ILE183      0.0001
@<TRIPOS>BOND
     1    53    51   ar
     2    83    84    1
     3    51    52   ar
     4    51    50    1
     5    84    85    1
     6    84    87    1
     7    85    86    2
     8    50    49    1
     9    88    87    1
    10    88    90    1
    11    87    89    1
    12    44    42    1
    13    34    33    2
    14    23    24    1
    15    42    39    1
    16    42    43    1
    17    39    40    1
    18    39    38    1
    19    45    46    1
    20    40    41    2
    21    49    46    1
    22    33    38   am
    23    33    32    1
    24    24    25    1
    25    24    27    1
    26    46    47    1
    27    28    30    1
    28    28    27    1
    29    28    29    1
    30    31    25   am
    31    31    32    1
    32    25    26    2
    33    32    35    1
    34    37    35    1
    35    47    54   am
    36    47    48    2
    37    54    55    1
    38    35    36    1
    39    55    58    1
    40    55    56    1
    41    58    59    1
    42    56    57    2
    43    73    72    1
    44    74    72    1
    45    82    80   am
    46    63    62    2
    47    78    77    2
    48    79    80    1
    49    79    76    1
    50    72    69    1
    51    75    76    1
    52    75    70   am
    53    69    70    1
    54    69    68    1
    55    80    81    2
    56    77    76    1
    57    62    68   am
    58    62    61    1
    59    70    71    2
    60    60    61    1
    61    61    64    1
    62    64    65    1
    63    65    67    1
    64    65    66    1
    65    18    20   ar
    66    18    17   ar
    67    20    22   ar
    68    16    17    1
    69    16    13    1
    70    17    19   ar
    71    22    21   ar
    72    19    21   ar
    73    13    14    1
    74    13    12    1
    75    14    15    2
    76    11    10    2
    77    10     9    1
    78     4     3    2
    79     9     8    1
    80     3     8   am
    81     3     2    1
    82     1     2    1
    83     1     7    1
    84     2     5    1
    85     7     6    1
    86     5     6    1
