@<TRIPOS>MOLECULE
tmp/4ebyA01.pdb
 99 95 0 0 0
SMALL
GASTEIGER

@<TRIPOS>ATOM
      1  N         -1.1440  -13.3780  -13.8760 N.3    12  TYR12      -0.1227
      2  CA        -0.0440  -14.1950  -14.3780 C.3    12  TYR12       0.1736
      3  C         -0.3940  -14.7710  -15.7530 C.2    12  TYR12       0.2595
      4  O         -1.2080  -15.6840  -15.8650 O.2    12  TYR12      -0.2718
      5  CB         0.2120  -15.3220  -13.3620 C.3    12  TYR12       0.0548
      6  CG         1.5130  -16.0720  -13.5200 C.ar   12  TYR12      -0.0200
      7  CD1        2.5010  -15.9900  -12.5460 C.ar   12  TYR12      -0.0009
      8  CD2        1.7470  -16.8680  -14.6380 C.ar   12  TYR12      -0.0009
      9  CE1        3.7050  -16.7110  -12.6810 C.ar   12  TYR12       0.0417
     10  CE2        2.9340  -17.5560  -14.7870 C.ar   12  TYR12       0.0417
     11  CZ         3.9060  -17.4680  -13.8170 C.ar   12  TYR12       0.1957
     12  OH         5.0720  -18.1960  -13.9860 O.3    12  TYR12      -0.2866
     13  N          0.2510  -14.2640  -16.8010 N.am   13  TYR13      -0.1976
     14  CA        -0.0170  -14.7120  -18.1630 C.3    13  TYR13       0.1639
     15  C          0.6510  -16.0610  -18.4470 C.2    13  TYR13       0.2290
     16  O          1.7920  -16.2870  -18.0350 O.2    13  TYR13      -0.2864
     17  CB         0.4850  -13.6610  -19.1520 C.3    13  TYR13       0.0560
     18  CG         0.2920  -14.0500  -20.5930 C.ar   13  TYR13      -0.0198
     19  CD1       -0.9290  -13.8590  -21.2190 C.ar   13  TYR13      -0.0009
     20  CD2        1.3340  -14.6130  -21.3280 C.ar   13  TYR13      -0.0009
     21  CE1       -1.1260  -14.2290  -22.5470 C.ar   13  TYR13       0.0417
     22  CE2        1.1500  -14.9760  -22.6660 C.ar   13  TYR13       0.0417
     23  CZ        -0.0820  -14.7790  -23.2640 C.ar   13  TYR13       0.1957
     24  OH        -0.2700  -15.1330  -24.5930 O.3    13  TYR13      -0.2866
     25  N          2.3500  -18.8340  -20.7100 N.3    15  GLU15      -0.1245
     26  CA         3.0040  -19.2860  -21.9210 C.3    15  GLU15       0.1567
     27  C          4.1270  -20.2810  -21.6110 C.2    15  GLU15       0.2260
     28  O          4.6060  -20.3660  -20.4820 O.2    15  GLU15      -0.2867
     29  CB         3.5140  -18.1180  -22.7480 C.3    15  GLU15       0.0388
     30  CG         4.6410  -17.3970  -22.0980 C.3    15  GLU15       0.1160
     31  CD         5.0870  -16.1540  -22.8790 C.2    15  GLU15       0.3649
     32  OE1        5.8390  -15.3620  -22.2880 O.co2  15  GLU15      -0.2457
     33  OE2        4.7090  -15.9780  -24.0690 O.co2  15  GLU15      -0.2457
     34  N         17.0790  -12.1170  -15.2490 N.3    90  GLU90      -0.1245
     35  CA        16.2120  -11.8160  -16.3850 C.3    90  GLU90       0.1567
     36  C         15.1450  -12.8980  -16.5210 C.2    90  GLU90       0.2260
     37  O         13.9520  -12.6080  -16.6130 O.2    90  GLU90      -0.2867
     38  CB        17.0190  -11.7180  -17.6910 C.3    90  GLU90       0.0388
     39  CG        16.1290  -11.4370  -18.8980 C.3    90  GLU90       0.1160
     40  CD        16.7470  -11.8540  -20.2240 C.2    90  GLU90       0.3649
     41  OE1       17.4070  -12.9150  -20.2830 O.co2  90  GLU90      -0.2457
     42  OE2       16.5530  -11.1190  -21.2140 O.co2  90  GLU90      -0.2457
     43  N         11.0590  -12.3500  -16.2020 N.3    94  ILE94      -0.1231
     44  CA        10.2140  -12.3290  -17.3990 C.3    94  ILE94       0.1692
     45  C          9.4010  -13.5980  -17.5760 C.2    94  ILE94       0.2592
     46  O          8.3180  -13.5690  -18.1630 O.2    94  ILE94      -0.2718
     47  CB        10.9900  -12.0170  -18.7040 C.3    94  ILE94       0.0266
     48  CG1       11.8200  -13.2120  -19.1660 C.3    94  ILE94       0.0019
     49  CG2       11.8350  -10.7540  -18.5420 C.3    94  ILE94       0.0020
     50  CD1       12.3660  -13.0520  -20.5760 C.3    94  ILE94       0.0001
     51  N          9.9290  -14.7020  -17.0540 N.am   95  SER95      -0.1952
     52  CA         9.3030  -15.9980  -17.2270 C.3    95  SER95       0.1924
     53  C          8.7030  -16.5290  -15.9220 C.2    95  SER95       0.2314
     54  O          7.4760  -16.6600  -15.8050 O.2    95  SER95      -0.2863
     55  CB        10.3240  -16.9850  -17.8160 C.3    95  SER95       0.2116
     56  OG         9.7030  -18.2290  -18.0770 O.3    95  SER95      -0.2180
     57  N          6.4890  -13.8810  -14.7520 N.3    98  ALA98      -0.1231
     58  CA         5.5970  -13.3720  -15.7910 C.3    98  ALA98       0.1694
     59  C          5.4650  -11.8480  -15.7800 C.2    98  ALA98       0.2592
     60  O          4.3620  -11.3010  -15.8950 O.2    98  ALA98      -0.2718
     61  CB         4.2150  -14.0190  -15.6510 C.3    98  ALA98       0.0304
     62  N          6.6080  -11.1900  -15.6450 N.am   99  ASN99      -0.1974
     63  CA         6.6860   -9.7190  -15.6120 C.3    99  ASN99       0.1688
     64  C          5.9930   -9.0210  -14.4550 C.2    99  ASN99       0.2292
     65  O          5.7650   -7.7940  -14.5070 O.2    99  ASN99      -0.2864
     66  CB         6.2800   -9.1280  -16.9590 C.3    99  ASN99       0.1181
     67  CG         7.1870   -9.5980  -18.0670 C.2    99  ASN99       0.2629
     68  OD1        8.4180   -9.5400  -17.9370 O.2    99  ASN99      -0.2716
     69  ND2        6.5840  -10.1080  -19.1510 N.am   99  ASN99      -0.0877
     70  N          0.7570   -6.4960  -21.9480 N.3   149  ARG149     -0.1231
     71  CA         1.2770   -7.2300  -23.1020 C.3   149  ARG149      0.1679
     72  C          0.9070   -6.5040  -24.3830 C.2   149  ARG149      0.2434
     73  O          0.0170   -5.6560  -24.3820 O.2   149  ARG149     -0.2733
     74  CB         0.7220   -8.6450  -23.1140 C.3   149  ARG149      0.0321
     75  CG         1.3490   -9.5070  -22.0190 C.3   149  ARG149      0.0489
     76  CD         0.8560  -10.9440  -22.0600 C.3   149  ARG149      0.2205
     77  NE         0.9600  -11.4500  -23.4170 N.pl3 149  ARG149     -0.0865
     78  CZ         2.0640  -11.9650  -23.9390 C.cat 149  ARG149      0.5346
     79  NH1        3.1570  -12.1010  -23.2000 N.pl3 149  ARG149      0.1354
     80  NH2        2.0650  -12.3580  -25.2060 N.pl3 149  ARG149      0.1354
     81  N          1.5980   -6.8310  -25.4850 N.am  150  PRO150     -0.2729
     82  CA         1.3860   -6.0920  -26.7370 C.3   150  PRO150      0.1401
     83  C         -0.0640   -6.1070  -27.2190 C.2   150  PRO150      0.2269
     84  O         -0.4860   -5.1590  -27.8940 O.2   150  PRO150     -0.2865
     85  CB         2.3060   -6.8210  -27.7220 C.3   150  PRO150      0.0296
     86  CG         3.4150   -7.3260  -26.8640 C.3   150  PRO150      0.0237
     87  CD         2.7290   -7.7720  -25.5920 C.3   150  PRO150      0.0939
     88  N          2.6780   -2.1780  -24.0310 N.3   180  GLY180     -0.1210
     89  CA         3.0940   -3.5700  -24.0630 C.3   180  GLY180      0.1956
     90  C          4.1640   -3.9430  -23.0560 C.2   180  GLY180      0.2611
     91  O          4.7640   -5.0140  -23.1540 O.2   180  GLY180     -0.2717
     92  N          4.4210   -3.0670  -22.0950 N.am  181  ASN181     -0.1974
     93  CA         5.3760   -3.3880  -21.0410 C.3   181  ASN181      0.1688
     94  C          5.0880   -2.6850  -19.7180 C.2   181  ASN181      0.2292
     95  O          4.2820   -1.7490  -19.6560 O.2   181  ASN181     -0.2864
     96  CB         6.8200   -3.1680  -21.5030 C.3   181  ASN181      0.1181
     97  CG         7.0820   -1.7520  -21.9320 C.2   181  ASN181      0.2629
     98  OD1        6.9590   -0.8220  -21.1390 O.2   181  ASN181     -0.2716
     99  ND2        7.4590   -1.5740  -23.1930 N.am  181  ASN181     -0.0877
@<TRIPOS>BOND
     1    84    83    2
     2    85    86    1
     3    85    82    1
     4    83    82    1
     5    86    87    1
     6    82    81    1
     7    87    81    1
     8    81    72   am
     9    80    78    1
    10    24    23    1
    11    72    73    2
    12    72    71    1
    13    33    31   ar
    14    89    88    1
    15    89    90    1
    16    78    77    2
    17    78    79    1
    18    77    76    1
    19    23    22   ar
    20    23    21   ar
    21    99    97   am
    22    91    90    2
    23    74    71    1
    24    74    75    1
    25    71    70    1
    26    90    92   am
    27    31    32   ar
    28    31    30    1
    29    29    30    1
    30    29    26    1
    31    22    20   ar
    32    21    19   ar
    33    92    93    1
    34    76    75    1
    35    97    96    1
    36    97    98    2
    37    26    27    1
    38    26    25    1
    39    27    28    2
    40    96    93    1
    41    20    18   ar
    42    19    18   ar
    43    42    40   ar
    44    93    94    1
    45    18    17    1
    46    50    48    1
    47    41    40   ar
    48    40    39    1
    49    94    95    2
    50    48    47    1
    51    17    14    1
    52    69    67   am
    53    39    38    1
    54    47    49    1
    55    47    44    1
    56    15    14    1
    57    15    16    2
    58    14    13    1
    59    46    45    2
    60    56    55    1
    61    67    68    2
    62    67    66    1
    63    55    52    1
    64    38    35    1
    65    45    44    1
    66    45    51   am
    67    44    43    1
    68    52    51    1
    69    52    53    1
    70    66    63    1
    71    13     3   am
    72    37    36    2
    73    36    35    1
    74    35    34    1
    75    53    54    2
    76    60    59    2
    77     4     3    2
    78    58    59    1
    79    58    61    1
    80    58    57    1
    81    59    62   am
    82     3     2    1
    83    62    63    1
    84    63    64    1
    85    10     8   ar
    86    10    11   ar
    87     8     6   ar
    88    65    64    2
    89     2     1    1
    90     2     5    1
    91    12    11    1
    92    11     9   ar
    93     6     5    1
    94     6     7   ar
    95     9     7   ar
