@<TRIPOS>MOLECULE
tmp/4ebzA04.pdb
 132 130 0 0 0
SMALL
GASTEIGER

@<TRIPOS>ATOM
      1  N         15.9200  -21.3590   -6.7040 N.3    83  VAL83      -0.1231
      2  CA        16.5740  -21.3570   -8.0030 C.3    83  VAL83       0.1692
      3  C         16.7190  -22.7720   -8.5840 C.2    83  VAL83       0.2592
      4  O         17.0090  -23.7190   -7.8630 O.2    83  VAL83      -0.2718
      5  CB        17.9590  -20.6560   -7.8770 C.3    83  VAL83       0.0266
      6  CG1       18.8180  -20.8620   -9.1150 C.3    83  VAL83       0.0020
      7  CG2       17.7320  -19.1400   -7.5620 C.3    83  VAL83       0.0020
      8  N         16.4850  -22.8990   -9.8870 N.am   84  ARG84      -0.1966
      9  CA        16.6450  -24.1610  -10.5990 C.3    84  ARG84       0.1729
     10  C         17.6820  -23.9990  -11.7010 C.2    84  ARG84       0.2616
     11  O         17.9760  -22.8820  -12.1440 O.2    84  ARG84      -0.2715
     12  CB        15.3090  -24.5990  -11.2230 C.3    84  ARG84       0.0348
     13  CG        14.1580  -24.8120  -10.2370 C.3    84  ARG84       0.0492
     14  CD        12.8100  -24.8500  -10.9760 C.3    84  ARG84       0.2205
     15  NE        12.6420  -23.6570  -11.8150 N.pl3  84  ARG84      -0.0865
     16  CZ        12.8470  -23.6190  -13.1340 C.cat  84  ARG84       0.5346
     17  NH1       12.6970  -22.4750  -13.7980 N.pl3  84  ARG84       0.1354
     18  NH2       13.2120  -24.7220  -13.7900 N.pl3  84  ARG84       0.1354
     19  N         18.2470  -25.1200  -12.1480 N.am   85  GLN85      -0.1963
     20  CA        19.2180  -25.1000  -13.2310 C.3    85  GLN85       0.1733
     21  C         18.8130  -24.1820  -14.3860 C.2    85  GLN85       0.2616
     22  O         17.6800  -24.2400  -14.8600 O.2    85  GLN85      -0.2715
     23  CB        19.4330  -26.5200  -13.7610 C.3    85  GLN85       0.0408
     24  CG        20.4440  -26.5980  -14.8790 C.3    85  GLN85       0.0908
     25  CD        21.8570  -26.4530  -14.3770 C.2    85  GLN85       0.2608
     26  OE1       22.7360  -25.9730  -15.0920 O.2    85  GLN85      -0.2717
     27  NE2       22.0870  -26.8780  -13.1390 N.am   85  GLN85      -0.0878
     28  N         19.7530  -23.3380  -14.8170 N.am   86  GLU86      -0.1963
     29  CA        19.5830  -22.4470  -15.9700 C.3    86  GLU86       0.1733
     30  C         18.7700  -21.1800  -15.6870 C.2    86  GLU86       0.2616
     31  O         18.5620  -20.3540  -16.5740 O.2    86  GLU86      -0.2715
     32  CB        19.0210  -23.2080  -17.1680 C.3    86  GLU86       0.0429
     33  CG        19.7480  -24.5430  -17.3850 C.3    86  GLU86       0.1163
     34  CD        20.1030  -24.7940  -18.8280 C.2    86  GLU86       0.3649
     35  OE1       19.1980  -24.7090  -19.6860 O.co2  86  GLU86      -0.2457
     36  OE2       21.2890  -25.0680  -19.1060 O.co2  86  GLU86      -0.2457
     37  N         18.3160  -21.0160  -14.4550 N.am   87  ASP87      -0.1957
     38  CA        17.6470  -19.7760  -14.0990 C.3    87  ASP87       0.1840
     39  C         18.6340  -18.6050  -14.2120 C.2    87  ASP87       0.2623
     40  O         19.8330  -18.7440  -13.8970 O.2    87  ASP87      -0.2715
     41  CB        17.1060  -19.8430  -12.6730 C.3    87  ASP87       0.1450
     42  CG        15.7850  -20.5960  -12.5650 C.2    87  ASP87       0.3671
     43  OD1       15.1450  -20.8770  -13.6130 O.co2  87  ASP87      -0.2456
     44  OD2       15.3850  -20.9010  -11.4120 O.co2  87  ASP87      -0.2456
     45  N         18.1380  -17.4510  -14.6500 N.am   88  THR88      -0.1937
     46  CA        18.9160  -16.2040  -14.6280 C.3    88  THR88       0.2028
     47  C         18.0210  -15.1010  -14.0870 C.2    88  THR88       0.2642
     48  O         16.8010  -15.2470  -14.0650 O.2    88  THR88      -0.2714
     49  CB        19.3940  -15.7760  -16.0260 C.3    88  THR88       0.1808
     50  OG1       18.2580  -15.5130  -16.8550 O.3    88  THR88      -0.2208
     51  CG2       20.2920  -16.8570  -16.6670 C.3    88  THR88       0.0379
     52  N         18.5910  -13.9830  -13.6580 N.am   89  TYR89      -0.1959
     53  CA        17.7250  -12.9110  -13.1670 C.3    89  TYR89       0.1771
     54  C         16.7470  -12.4290  -14.2550 C.2    89  TYR89       0.2619
     55  O         15.5940  -12.1210  -13.9740 O.2    89  TYR89      -0.2715
     56  CB        18.5410  -11.7220  -12.6560 C.3    89  TYR89       0.0574
     57  CG        19.3000  -11.9690  -11.3610 C.ar   89  TYR89      -0.0198
     58  CD1       18.6280  -12.3380  -10.2080 C.ar   89  TYR89      -0.0009
     59  CD2       20.6790  -11.7570  -11.2810 C.ar   89  TYR89      -0.0009
     60  CE1       19.2900  -12.5090   -9.0120 C.ar   89  TYR89       0.0417
     61  CE2       21.3630  -11.9390  -10.0840 C.ar   89  TYR89       0.0417
     62  CZ        20.6460  -12.3130   -8.9400 C.ar   89  TYR89       0.1957
     63  OH        21.3050  -12.5030   -7.7340 O.3    89  TYR89      -0.2866
     64  N         17.2110  -12.3690  -15.4970 N.am   90  GLU90      -0.1977
     65  CA        16.3290  -11.9850  -16.6010 C.3    90  GLU90       0.1602
     66  C         15.1750  -12.9780  -16.7380 C.2    90  GLU90       0.2287
     67  O         14.0000  -12.5960  -16.7820 O.2    90  GLU90      -0.2864
     68  CB        17.0990  -11.9060  -17.9310 C.3    90  GLU90       0.0415
     69  CG        16.1540  -11.5080  -19.0730 C.3    90  GLU90       0.1163
     70  CD        16.7200  -11.7600  -20.4600 C.2    90  GLU90       0.3649
     71  OE1       17.5880  -12.6450  -20.6020 O.co2  90  GLU90      -0.2457
     72  OE2       16.2860  -11.0710  -21.4100 O.co2  90  GLU90      -0.2457
     73  N         14.1510   -7.5540  -13.8240 N.3   103  MET103     -0.1245
     74  CA        15.4870   -8.0810  -13.5960 C.3   103  MET103      0.1570
     75  C         16.3240   -7.1100  -12.7820 C.2   103  MET103      0.2261
     76  O         17.1390   -7.5330  -11.9500 O.2   103  MET103     -0.2867
     77  CB        16.1800   -8.5150  -14.9000 C.3   103  MET103      0.0387
     78  CG        16.3340   -7.4720  -15.9790 C.3   103  MET103      0.0595
     79  SD        17.4770   -8.1530  -17.2330 S.3   103  MET103     -0.1393
     80  CE        19.0390   -7.6370  -16.5250 C.3   103  MET103      0.0692
     81  N         18.2240   -8.0960   -9.2880 N.3   107  GLN107     -0.1245
     82  CA        19.6610   -7.9400   -9.1250 C.3   107  GLN107      0.1566
     83  C         20.0000   -7.0630   -7.9250 C.2   107  GLN107      0.2260
     84  O         20.9750   -7.3090   -7.2150 O.2   107  GLN107     -0.2867
     85  CB        20.2820   -7.3130  -10.3710 C.3   107  GLN107      0.0367
     86  CG        20.3690   -8.2190  -11.5590 C.3   107  GLN107      0.0905
     87  CD        21.7830   -8.2580  -12.1210 C.2   107  GLN107      0.2608
     88  OE1       21.9900   -8.0340  -13.3010 O.2   107  GLN107     -0.2717
     89  NE2       22.7610   -8.5370  -11.2620 N.am  107  GLN107     -0.0878
     90  N         25.1470  -12.0700  -11.2890 N.3   114  ALA114     -0.1231
     91  CA        24.2670  -12.6460  -12.3060 C.3   114  ALA114      0.1694
     92  C         24.7680  -13.9750  -12.8870 C.2   114  ALA114      0.2593
     93  O         23.9760  -14.8780  -13.1620 O.2   114  ALA114     -0.2718
     94  CB        24.0240  -11.6450  -13.4300 C.3   114  ALA114      0.0304
     95  N         26.0770  -14.0950  -13.0950 N.am  115  THR115     -0.1939
     96  CA        26.6000  -15.2870  -13.7590 C.3   115  THR115      0.2028
     97  C         26.9700  -16.4140  -12.8030 C.2   115  THR115      0.2642
     98  O         27.5220  -17.4300  -13.2230 O.2   115  THR115     -0.2714
     99  CB        27.7990  -14.9560  -14.6410 C.3   115  THR115      0.1808
    100  OG1       28.8570  -14.4480  -13.8150 O.3   115  THR115     -0.2208
    101  CG2       27.3810  -13.9280  -15.7050 C.3   115  THR115      0.0379
    102  N         26.6570  -16.2500  -11.5190 N.am  116  ASN116     -0.1957
    103  CA        26.7270  -17.3850  -10.5980 C.3   116  ASN116      0.1819
    104  C         25.6790  -17.3330   -9.5050 C.2   116  ASN116      0.2621
    105  O         25.9860  -17.1470   -8.3310 O.2   116  ASN116     -0.2715
    106  CB        28.1110  -17.6070   -9.9940 C.3   116  ASN116      0.1195
    107  CG        28.2250  -18.9820   -9.3130 C.2   116  ASN116      0.2630
    108  OD1       27.3620  -19.8550   -9.4930 O.2   116  ASN116     -0.2716
    109  ND2       29.2650  -19.1670   -8.5250 N.am  116  ASN116     -0.0877
    110  N         24.4380  -17.5050   -9.9130 N.am  117  ILE117     -0.1964
    111  CA        23.3740  -17.7740   -8.9580 C.3   117  ILE117      0.1712
    112  C         23.4390  -19.2700   -8.6650 C.2   117  ILE117      0.2458
    113  O         23.2090  -20.0770   -9.5630 O.2   117  ILE117     -0.2730
    114  CB        22.0180  -17.4400   -9.5510 C.3   117  ILE117      0.0289
    115  CG1       22.0030  -15.9720  -10.0090 C.3   117  ILE117      0.0022
    116  CG2       20.8960  -17.6630   -8.5070 C.3   117  ILE117      0.0023
    117  CD1       20.7500  -15.6040  -10.7920 C.3   117  ILE117      0.0001
    118  N         23.7540  -19.6480   -7.4130 N.am  118  PRO118     -0.2716
    119  CA        23.9150  -21.0800   -7.0700 C.3   118  PRO118      0.1536
    120  C         22.6190  -21.8980   -7.0810 C.2   118  PRO118      0.2598
    121  O         21.5270  -21.3780   -6.8250 O.2   118  PRO118     -0.2715
    122  CB        24.4880  -21.0540   -5.6440 C.3   118  PRO118      0.0310
    123  CG        24.5230  -19.6190   -5.2160 C.3   118  PRO118      0.0237
    124  CD        23.8490  -18.7700   -6.2380 C.3   118  PRO118      0.0939
    125  N         22.7420  -23.2000   -7.3620 N.am  119  LEU119     -0.1978
    126  CA        21.5770  -24.0720   -7.3370 C.3   119  LEU119      0.1596
    127  C         21.0230  -24.1130   -5.9160 C.2   119  LEU119      0.2287
    128  O         21.7800  -24.1510   -4.9610 O.2   119  LEU119     -0.2864
    129  CB        21.9700  -25.4860   -7.7900 C.3   119  LEU119      0.0297
    130  CG        21.6060  -25.9510   -9.2090 C.3   119  LEU119      0.0022
    131  CD1       21.4000  -24.8150  -10.2000 C.3   119  LEU119      0.0001
    132  CD2       22.6290  -26.9560   -9.7130 C.3   119  LEU119      0.0001
@<TRIPOS>BOND
     1    72    70   ar
     2    71    70   ar
     3    70    69    1
     4    35    34   ar
     5    36    34   ar
     6    69    68    1
     7    34    33    1
     8    68    65    1
     9    33    32    1
    10    79    80    1
    11    79    78    1
    12    32    29    1
    13    50    49    1
    14    67    66    2
    15    66    65    1
    16    51    49    1
    17    65    64    1
    18    31    30    2
    19    49    46    1
    20    78    77    1
    21    29    30    1
    22    29    28    1
    23   101    99    1
    24    30    37   am
    25    64    54   am
    26    26    25    2
    27    77    74    1
    28    24    25    1
    29    24    23    1
    30    22    21    2
    31    28    21   am
    32    45    46    1
    33    45    39   am
    34    99   100    1
    35    99    96    1
    36    46    47    1
    37    37    38    1
    38    21    20    1
    39    25    27   am
    40    54    55    2
    41    54    53    1
    42    39    38    1
    43    39    40    2
    44    38    41    1
    45    47    48    2
    46    47    52   am
    47    73    74    1
    48    17    16    1
    49    18    16    1
    50    23    20    1
    51    96    95    1
    52    96    97    1
    53    52    53    1
    54    43    42   ar
    55    74    75    1
    56    94    91    1
    57    88    87    2
    58    20    19    1
    59    98    97    2
    60    53    56    1
    61    93    92    2
    62    16    15    2
    63    95    92   am
    64    92    91    1
    65    97   102   am
    66    75    76    2
    67    41    42    1
    68    56    57    1
    69    42    44   ar
    70    91    90    1
    71    19    10   am
    72    11    10    2
    73    87    86    1
    74    87    89   am
    75    15    14    1
    76    10     9    1
    77    86    85    1
    78   102   103    1
    79    57    59   ar
    80    57    58   ar
    81    59    61   ar
    82    12     9    1
    83    12    13    1
    84    14    13    1
    85   117   115    1
    86     9     8    1
    87   103   106    1
    88   103   104    1
    89    85    82    1
    90    58    60   ar
    91   131   130    1
    92    61    62   ar
    93   115   114    1
    94   106   107    1
    95   110   104   am
    96   110   111    1
    97     8     3   am
    98   132   130    1
    99   113   112    2
   100   114   111    1
   101   114   116    1
   102   104   105    2
   103   108   107    2
   104   107   109   am
   105    81    82    1
   106   130   129    1
   107    82    83    1
   108     6     5    1
   109    60    62   ar
   110   111   112    1
   111    62    63    1
   112   112   118   am
   113     3     2    1
   114     3     4    2
   115     2     5    1
   116     2     1    1
   117    83    84    2
   118     5     7    1
   119   129   126    1
   120   118   119    1
   121   118   124    1
   122   125   126    1
   123   125   120   am
   124   126   127    1
   125   120   119    1
   126   120   121    2
   127   119   122    1
   128   124   123    1
   129   127   128    2
   130   122   123    1
