@<TRIPOS>MOLECULE
tmp/4ec0B00.pdb
 130 126 0 0 0
SMALL
GASTEIGER

@<TRIPOS>ATOM
      1  N          0.1000  -13.8860   -1.4450 N.3     9  TYR9       -0.1227
      2  CA         1.5400  -13.6990   -1.5930 C.3     9  TYR9        0.1736
      3  C          1.9320  -13.9470   -3.0380 C.2     9  TYR9        0.2595
      4  O          1.0960  -14.3240   -3.8550 O.2     9  TYR9       -0.2718
      5  CB         2.2940  -14.6940   -0.6980 C.3     9  TYR9        0.0548
      6  CG         3.7770  -14.4030   -0.5080 C.ar    9  TYR9       -0.0200
      7  CD1        4.2110  -13.2130    0.0740 C.ar    9  TYR9       -0.0009
      8  CD2        4.7400  -15.3490   -0.8620 C.ar    9  TYR9       -0.0009
      9  CE1        5.5860  -12.9710    0.3060 C.ar    9  TYR9        0.0417
     10  CE2        6.1000  -15.1200   -0.6340 C.ar    9  TYR9        0.0417
     11  CZ         6.5100  -13.9260   -0.0450 C.ar    9  TYR9        0.1957
     12  OH         7.8500  -13.7230    0.1710 O.3     9  TYR9       -0.2866
     13  N          3.2180  -13.7460   -3.3310 N.am   10  PHE10      -0.1976
     14  CA         3.7670  -13.9960   -4.6510 C.3    10  PHE10       0.1639
     15  C          3.8450  -15.5100   -4.8480 C.2    10  PHE10       0.2290
     16  O          3.6960  -16.2730   -3.8950 O.2    10  PHE10      -0.2864
     17  CB         5.1730  -13.4150   -4.7500 C.3    10  PHE10       0.0560
     18  CG         5.2050  -11.9280   -4.7310 C.ar   10  PHE10      -0.0200
     19  CD1        5.9760  -11.2500   -3.7940 C.ar   10  PHE10      -0.0042
     20  CD2        4.4620  -11.1960   -5.6480 C.ar   10  PHE10      -0.0042
     21  CE1        6.0090   -9.8730   -3.7710 C.ar   10  PHE10      -0.0003
     22  CE2        4.4880   -9.8050   -5.6300 C.ar   10  PHE10      -0.0003
     23  CZ         5.2630   -9.1430   -4.6900 C.ar   10  PHE10      -0.0000
     24  N          5.8240  -18.0800   -4.7390 N.3    12  MET12      -0.1245
     25  CA         7.0990  -18.5470   -4.1980 C.3    12  MET12       0.1570
     26  C          6.8740  -18.9400   -2.7460 C.2    12  MET12       0.2261
     27  O          5.8500  -18.6000   -2.1600 O.2    12  MET12      -0.2867
     28  CB         8.1980  -17.4730   -4.2730 C.3    12  MET12       0.0387
     29  CG         7.8980  -16.1160   -3.6600 C.3    12  MET12       0.0595
     30  SD         9.4050  -15.0320   -3.5500 S.3    12  MET12      -0.1393
     31  CE        10.4810  -15.8150   -4.5290 C.3    12  MET12       0.0692
     32  N          8.2780  -15.6240    2.2800 N.3    15  ARG15      -0.1245
     33  CA         7.7350  -15.3100    3.6060 C.3    15  ARG15       0.1563
     34  C          6.3670  -15.8860    3.9010 C.2    15  ARG15       0.2260
     35  O          5.8980  -15.8230    5.0340 O.2    15  ARG15      -0.2867
     36  CB         7.7200  -13.7780    3.8270 C.3    15  ARG15       0.0307
     37  CG         9.1500  -13.2020    3.9540 C.3    15  ARG15       0.0489
     38  CD         9.2500  -11.7060    4.2610 C.3    15  ARG15       0.2205
     39  NE        10.5880  -11.3820    4.7740 N.pl3  15  ARG15      -0.0865
     40  CZ        11.5600  -10.8140    4.0630 C.cat  15  ARG15       0.5346
     41  NH1       11.3600  -10.4940    2.7870 N.pl3  15  ARG15       0.1354
     42  NH2       12.7530  -10.5680    4.6250 N.pl3  15  ARG15       0.1354
     43  N         -0.2120   -6.8600   -8.6070 N.3    40  TRP40      -0.1241
     44  CA         0.3430   -6.3030   -7.3700 C.3    40  TRP40       0.1605
     45  C          0.0380   -4.8140   -7.1330 C.2    40  TRP40       0.2264
     46  O         -0.4340   -4.4560   -6.0660 O.2    40  TRP40      -0.2867
     47  CB         1.8580   -6.5840   -7.2950 C.3    40  TRP40       0.0550
     48  CG         2.5250   -6.2090   -5.9690 C.ar   40  TRP40       0.0003
     49  CD1        3.7430   -5.6140   -5.8210 C.ar   40  TRP40       0.0946
     50  CD2        1.9890   -6.3500   -4.6350 C.ar   40  TRP40       0.0152
     51  NE1        4.0010   -5.3720   -4.4930 N.ar   40  TRP40      -0.2442
     52  CE2        2.9450   -5.8100   -3.7420 C.ar   40  TRP40       0.0810
     53  CE3        0.8010   -6.8730   -4.1120 C.ar   40  TRP40       0.0012
     54  CZ2        2.7500   -5.7770   -2.3530 C.ar   40  TRP40       0.0191
     55  CZ3        0.6010   -6.8390   -2.7220 C.ar   40  TRP40       0.0001
     56  CH2        1.5750   -6.2930   -1.8610 C.ar   40  TRP40       0.0015
     57  N         -1.5520   -4.0250   -3.7050 N.3    44  LYS44      -0.1245
     58  CA        -0.6800   -3.2550   -2.8030 C.3    44  LYS44       0.1561
     59  C         -1.3600   -2.0190   -2.2270 C.2    44  LYS44       0.2260
     60  O         -1.2900   -1.7450   -1.0210 O.2    44  LYS44      -0.2867
     61  CB         0.5910   -2.8280   -3.5540 C.3    44  LYS44       0.0271
     62  CG         1.6230   -2.0850   -2.6920 C.3    44  LYS44       0.0035
     63  CD         2.9820   -2.0090   -3.3900 C.3    44  LYS44       0.0206
     64  CE         3.8910   -0.9590   -2.7660 C.3    44  LYS44       0.1093
     65  NZ         4.6490   -1.5440   -1.6050 N.3    44  LYS44      -0.1314
     66  N          0.9110   -2.0430    2.9310 N.3    50  GLY50      -0.1210
     67  CA         1.4810   -2.2810    1.6100 C.3    50  GLY50       0.1956
     68  C          2.5030   -3.3800    1.3800 C.2    50  GLY50       0.2612
     69  O          3.2700   -3.3080    0.4260 O.2    50  GLY50      -0.2717
     70  N          2.5060   -4.3950    2.2310 N.am   51  LYS51      -0.1965
     71  CA         3.4450   -5.5080    2.0980 C.3    51  LYS51       0.1728
     72  C          2.7100   -6.8310    2.2340 C.2    51  LYS51       0.2616
     73  O          1.6610   -6.9130    2.8650 O.2    51  LYS51      -0.2715
     74  CB         4.5260   -5.4650    3.1980 C.3    51  LYS51       0.0311
     75  CG         5.3010   -4.1580    3.3240 C.3    51  LYS51       0.0038
     76  CD         6.2290   -3.9790    2.1540 C.3    51  LYS51       0.0206
     77  CE         7.0230   -2.6920    2.2360 C.3    51  LYS51       0.1093
     78  NZ         7.5640   -2.3970    3.5950 N.3    51  LYS51      -0.1314
     79  N          3.2590   -7.8720    1.6250 N.am   52  ILE52      -0.1964
     80  CA         2.6730   -9.1900    1.7480 C.3    52  ILE52       0.1712
     81  C          3.7520  -10.0660    2.3650 C.2    52  ILE52       0.2458
     82  O          4.9250   -9.7080    2.3640 O.2    52  ILE52      -0.2730
     83  CB         2.2100   -9.7540    0.3790 C.3    52  ILE52       0.0289
     84  CG1        3.2620   -9.4810   -0.6990 C.3    52  ILE52       0.0022
     85  CG2        0.8640   -9.1130    0.0100 C.3    52  ILE52       0.0023
     86  CD1        2.8610   -9.9910   -2.1080 C.3    52  ILE52       0.0001
     87  N          3.3800  -11.2500    2.8550 N.am   53  PRO53      -0.2727
     88  CA         2.0190  -11.7860    2.8350 C.3    53  PRO53       0.1402
     89  C          1.0160  -11.1150    3.7650 C.2    53  PRO53       0.2269
     90  O          1.3640  -10.3710    4.7020 O.2    53  PRO53      -0.2865
     91  CB         2.2070  -13.2440    3.2380 C.3    53  PRO53       0.0296
     92  CG         3.4290  -13.2010    4.1730 C.3    53  PRO53       0.0237
     93  CD         4.3230  -12.1420    3.5670 C.3    53  PRO53       0.0939
     94  N          2.1430   -9.2180    8.3780 N.3    64  GLN64      -0.1231
     95  CA         3.3750   -9.6470    9.0570 C.3    64  GLN64       0.1698
     96  C          3.3770  -11.1780    9.2040 C.2    64  GLN64       0.2593
     97  O          2.6840  -11.7590   10.0550 O.2    64  GLN64      -0.2718
     98  CB         3.5350   -8.9680   10.4240 C.3    64  GLN64       0.0381
     99  CG         4.1320   -7.5620   10.3410 C.3    64  GLN64       0.0905
    100  CD         5.5620   -7.5420    9.8220 C.2    64  GLN64       0.2608
    101  OE1        6.2180   -8.5810    9.7180 O.2    64  GLN64      -0.2717
    102  NE2        6.0550   -6.3510    9.4980 N.am   64  GLN64      -0.0878
    103  N          4.1840  -11.8210    8.3710 N.am   65  SER65      -0.1938
    104  CA         4.2420  -13.2830    8.3240 C.3    65  SER65       0.2055
    105  C          4.4380  -14.0230    9.6520 C.2    65  SER65       0.2642
    106  O          3.7980  -15.0500    9.8920 O.2    65  SER65      -0.2714
    107  CB         5.3050  -13.7190    7.3210 C.3    65  SER65       0.2130
    108  OG         6.6210  -13.5370    7.8210 O.3    65  SER65      -0.2179
    109  N          5.3050  -13.5130   10.5220 N.am   66  LEU66      -0.1977
    110  CA         5.5300  -14.2220   11.7890 C.3    66  LEU66       0.1596
    111  C          4.4470  -13.9240   12.8270 C.2    66  LEU66       0.2287
    112  O          4.1840  -14.7530   13.7030 O.2    66  LEU66      -0.2864
    113  CB         6.9320  -13.9160   12.3160 C.3    66  LEU66       0.0297
    114  CG         8.0220  -14.1320   11.2630 C.3    66  LEU66       0.0022
    115  CD1        9.4230  -13.8850   11.9100 C.3    66  LEU66       0.0001
    116  CD2        7.9200  -15.5470   10.6890 C.3    66  LEU66       0.0001
    117  N         14.8300  -14.9970   11.2610 N.3    97  ASP97      -0.1239
    118  CA        14.2940  -13.9260   10.4150 C.3    97  ASP97       0.1674
    119  C         15.2400  -12.7390   10.2770 C.2    97  ASP97       0.2266
    120  O         15.3690  -12.1510    9.1840 O.2    97  ASP97      -0.2867
    121  CB        12.9340  -13.4440   10.9260 C.3    97  ASP97       0.1410
    122  CG        12.1000  -12.8480    9.8140 C.2    97  ASP97       0.3668
    123  OD1       11.9250  -13.5400    8.7720 O.co2  97  ASP97      -0.2456
    124  OD2       11.6450  -11.6990    9.9750 O.co2  97  ASP97      -0.2456
    125  N         16.4920  -11.3720    6.7570 N.3   101  SER101     -0.1217
    126  CA        16.1650   -9.9940    6.3910 C.3   101  SER101      0.1889
    127  C         17.3900   -9.1310    6.0740 C.2   101  SER101      0.2288
    128  O         17.2530   -8.0070    5.5790 O.2   101  SER101     -0.2866
    129  CB        15.3080   -9.3480    7.4920 C.3   101  SER101      0.2089
    130  OG        14.0820  -10.0730    7.6450 O.3   101  SER101     -0.2183
@<TRIPOS>BOND
     1    43    44    1
     2    44    47    1
     3    44    45    1
     4    47    48    1
     5    45    46    2
     6    48    49   ar
     7    48    50   ar
     8    49    51   ar
     9    20    22   ar
    10    20    18   ar
    11    22    23   ar
    12    15    14    1
    13    15    16    2
    14    17    18    1
    15    17    14    1
    16    24    25    1
    17    18    19   ar
    18    23    21   ar
    19    14    13    1
    20    50    53   ar
    21    50    52   ar
    22    31    30    1
    23    51    52   ar
    24    28    25    1
    25    28    29    1
    26    25    26    1
    27    53    55   ar
    28     4     3    2
    29    19    21   ar
    30    52    54   ar
    31    57    58    1
    32    29    30    1
    33    61    58    1
    34    61    62    1
    35    63    64    1
    36    63    62    1
    37    13     3   am
    38     3     2    1
    39    58    59    1
    40    64    65    1
    41    26    27    2
    42    55    56   ar
    43    54    56   ar
    44    59    60    2
    45    86    84    1
    46     2     1    1
    47     2     5    1
    48     8    10   ar
    49     8     6   ar
    50    84    83    1
    51     5     6    1
    52    10    11   ar
    53     6     7   ar
    54    11    12    1
    55    11     9   ar
    56    85    83    1
    57     7     9   ar
    58    83    80    1
    59    69    68    2
    60    68    67    1
    61    68    70   am
    62    67    66    1
    63    79    80    1
    64    79    72   am
    65    80    81    1
    66    71    70    1
    67    71    72    1
    68    71    74    1
    69    76    77    1
    70    76    75    1
    71    72    73    2
    72    77    78    1
    73    32    33    1
    74    82    81    2
    75    81    87   am
    76    41    40    1
    77    88    87    1
    78    88    91    1
    79    88    89    1
    80    87    93    1
    81    74    75    1
    82    91    92    1
    83    93    92    1
    84    33    36    1
    85    33    34    1
    86    89    90    2
    87    36    37    1
    88    34    35    2
    89    37    38    1
    90    40    42    1
    91    40    39    2
    92    38    39    1
    93   128   127    2
    94   127   126    1
    95   126   125    1
    96   126   129    1
    97   107   108    1
    98   107   104    1
    99   129   130    1
   100   104   103    1
   101   104   105    1
   102   103    96   am
   103    94    95    1
   104   123   122   ar
   105    95    96    1
   106    95    98    1
   107   120   119    2
   108    96    97    2
   109   102   100   am
   110   105   106    2
   111   105   109   am
   112   101   100    2
   113   122   124   ar
   114   122   121    1
   115   100    99    1
   116   119   118    1
   117    99    98    1
   118   118   121    1
   119   118   117    1
   120   109   110    1
   121   116   114    1
   122   114   115    1
   123   114   113    1
   124   110   113    1
   125   110   111    1
   126   111   112    2
