@<TRIPOS>MOLECULE
tmp/4ec4E01.pdb
 119 119 0 0 0
SMALL
GASTEIGER

@<TRIPOS>ATOM
      1  N         32.3160  -30.6420   -6.9690 N.3     5  PHE5       -0.1228
      2  CA        31.9690  -30.3650   -8.3510 C.3     5  PHE5        0.1721
      3  C         30.5730  -29.7310   -8.3710 C.2     5  PHE5        0.2437
      4  O         29.6890  -30.1630   -7.6320 O.2     5  PHE5       -0.2733
      5  CB        31.9830  -31.6960   -9.1070 C.3     5  PHE5        0.0547
      6  CG        31.8720  -31.5710  -10.5920 C.ar    5  PHE5       -0.0202
      7  CD1       30.6500  -31.7660  -11.2270 C.ar    5  PHE5       -0.0042
      8  CD2       32.9890  -31.3040  -11.3640 C.ar    5  PHE5       -0.0042
      9  CE1       30.5320  -31.6690  -12.6050 C.ar    5  PHE5       -0.0003
     10  CE2       32.8860  -31.2070  -12.7460 C.ar    5  PHE5       -0.0003
     11  CZ        31.6510  -31.3880  -13.3660 C.ar    5  PHE5       -0.0000
     12  N         30.3860  -28.6730   -9.1810 N.am    6  PRO6       -0.2729
     13  CA        29.1120  -27.9630   -9.2730 C.3     6  PRO6        0.1401
     14  C         27.9710  -28.7020   -9.9710 C.2     6  PRO6        0.2269
     15  O         28.1800  -29.6980  -10.6620 O.2     6  PRO6       -0.2865
     16  CB        29.4800  -26.7110  -10.0710 C.3     6  PRO6        0.0296
     17  CG        30.9120  -26.5090   -9.7980 C.3     6  PRO6        0.0237
     18  CD        31.4700  -27.8870   -9.7910 C.3     6  PRO6        0.0939
     19  N         25.0750  -28.6020  -12.8250 N.3     8  SER8       -0.1217
     20  CA        24.8050  -27.9420  -14.0920 C.3     8  SER8        0.1889
     21  C         23.5290  -28.4930  -14.7140 C.2     8  SER8        0.2288
     22  O         23.3410  -28.4470  -15.9340 O.2     8  SER8       -0.2866
     23  CB        26.0130  -28.0370  -15.0370 C.3     8  SER8        0.2089
     24  OG        26.6710  -29.2850  -14.9190 O.3     8  SER8       -0.2183
     25  N         31.6190  -15.8470  -14.0550 N.3    77  LYS77      -0.1231
     26  CA        33.0710  -16.0840  -14.1300 C.3    77  LYS77       0.1693
     27  C         33.4930  -17.4500  -13.5990 C.2    77  LYS77       0.2592
     28  O         34.2110  -18.1800  -14.2730 O.2    77  LYS77      -0.2718
     29  CB        33.8370  -14.9710  -13.3960 C.3    77  LYS77       0.0285
     30  CG        35.3520  -15.1370  -13.3520 C.3    77  LYS77       0.0035
     31  CD        36.0560  -13.8790  -12.8230 C.3    77  LYS77       0.0206
     32  CE        37.5770  -14.0830  -12.7040 C.3    77  LYS77       0.1093
     33  NZ        38.3300  -12.8620  -12.2970 N.3    77  LYS77      -0.1314
     34  N         33.0180  -17.7940  -12.4030 N.am   78  TRP78      -0.1962
     35  CA        33.4970  -18.9740  -11.6680 C.3    78  TRP78       0.1771
     36  C         32.6530  -20.2360  -11.8340 C.2    78  TRP78       0.2620
     37  O         33.1900  -21.3560  -11.7840 O.2    78  TRP78      -0.2715
     38  CB        33.6500  -18.6520  -10.1810 C.3    78  TRP78       0.0590
     39  CG        34.6570  -17.5790   -9.8870 C.ar   78  TRP78       0.0006
     40  CD1       34.4000  -16.3400   -9.3850 C.ar   78  TRP78       0.0946
     41  CD2       36.0770  -17.6500  -10.0760 C.ar   78  TRP78       0.0152
     42  NE1       35.5670  -15.6300   -9.2470 N.ar   78  TRP78      -0.2442
     43  CE2       36.6140  -16.4100   -9.6630 C.ar   78  TRP78       0.0810
     44  CE3       36.9480  -18.6390  -10.5560 C.ar   78  TRP78       0.0012
     45  CZ2       37.9930  -16.1260   -9.7160 C.ar   78  TRP78       0.0191
     46  CZ3       38.3210  -18.3600  -10.6090 C.ar   78  TRP78       0.0001
     47  CH2       38.8270  -17.1110  -10.1870 C.ar   78  TRP78       0.0015
     48  N         31.3430  -20.0510  -12.0280 N.am   79  TYR79      -0.1960
     49  CA        30.3970  -21.1670  -12.2010 C.3    79  TYR79       0.1756
     50  C         29.4460  -20.9960  -13.3910 C.2    79  TYR79       0.2461
     51  O         28.2410  -20.9850  -13.1890 O.2    79  TYR79      -0.2730
     52  CB        29.5820  -21.3590  -10.9150 C.3    79  TYR79       0.0574
     53  CG        30.4380  -21.4760   -9.6760 C.ar   79  TYR79      -0.0198
     54  CD1       30.7060  -20.3690   -8.8970 C.ar   79  TYR79      -0.0009
     55  CD2       30.9910  -22.6940   -9.3020 C.ar   79  TYR79      -0.0009
     56  CE1       31.4880  -20.4630   -7.7790 C.ar   79  TYR79       0.0417
     57  CE2       31.7800  -22.8010   -8.1870 C.ar   79  TYR79       0.0417
     58  CZ        32.0270  -21.6780   -7.4250 C.ar   79  TYR79       0.1957
     59  OH        32.8150  -21.7620   -6.2970 O.3    79  TYR79      -0.2866
     60  N         29.9810  -20.8910  -14.6320 N.am   80  PRO80      -0.2716
     61  CA        29.1860  -20.5710  -15.8260 C.3    80  PRO80       0.1536
     62  C         28.1440  -21.6190  -16.2400 C.2    80  PRO80       0.2599
     63  O         27.2090  -21.2930  -16.9710 O.2    80  PRO80      -0.2715
     64  CB        30.2470  -20.4550  -16.9210 C.3    80  PRO80       0.0310
     65  CG        31.3440  -21.3280  -16.4650 C.3    80  PRO80       0.0237
     66  CD        31.3930  -21.1200  -14.9930 C.3    80  PRO80       0.0939
     67  N         28.3040  -22.8580  -15.7790 N.am   81  GLY81      -0.1955
     68  CA        27.3640  -23.9300  -16.1100 C.3    81  GLY81       0.1869
     69  C         26.1200  -23.9810  -15.2440 C.2    81  GLY81       0.2309
     70  O         25.4520  -25.0120  -15.1800 O.2    81  GLY81      -0.2863
     71  N         22.4240  -17.3730  -21.8070 N.3    91  GLN91      -0.1245
     72  CA        23.7210  -17.8560  -22.2950 C.3    91  GLN91       0.1566
     73  C         24.5720  -16.7510  -22.8870 C.2    91  GLN91       0.2260
     74  O         25.8070  -16.7850  -22.8020 O.2    91  GLN91      -0.2867
     75  CB        23.5330  -18.9550  -23.3420 C.3    91  GLN91       0.0367
     76  CG        24.0040  -20.3310  -22.9040 C.3    91  GLN91       0.0905
     77  CD        25.4930  -20.3720  -22.6690 C.2    91  GLN91       0.2608
     78  OE1       26.2300  -19.4990  -23.1220 O.2    91  GLN91      -0.2717
     79  NE2       25.9470  -21.3870  -21.9560 N.am   91  GLN91      -0.0878
     80  N         26.6350  -14.6870  -20.1360 N.3    94  ILE94      -0.1231
     81  CA        27.7100  -15.5020  -19.5670 C.3    94  ILE94       0.1692
     82  C         28.8920  -15.5970  -20.5370 C.2    94  ILE94       0.2592
     83  O         30.0540  -15.5670  -20.1290 O.2    94  ILE94      -0.2718
     84  CB        27.1920  -16.9190  -19.1620 C.3    94  ILE94       0.0266
     85  CG1       25.9270  -16.8060  -18.3070 C.3    94  ILE94       0.0019
     86  CG2       28.2440  -17.6910  -18.3830 C.3    94  ILE94       0.0020
     87  CD1       25.0950  -18.0620  -18.2490 C.3    94  ILE94       0.0001
     88  N         28.5910  -15.6880  -21.8260 N.am   95  ASN95      -0.1974
     89  CA        29.6310  -15.6870  -22.8430 C.3    95  ASN95       0.1688
     90  C         30.4870  -14.4190  -22.8660 C.2    95  ASN95       0.2292
     91  O         31.6910  -14.4810  -23.1300 O.2    95  ASN95      -0.2864
     92  CB        29.0170  -15.9420  -24.2150 C.3    95  ASN95       0.1181
     93  CG        28.9360  -17.4180  -24.5450 C.2    95  ASN95       0.2629
     94  OD1       29.0480  -18.2770  -23.6600 O.2    95  ASN95      -0.2716
     95  ND2       28.7610  -17.7270  -25.8280 N.am   95  ASN95      -0.0877
     96  N         33.2250  -14.2330  -20.0530 N.3    98  HIS98      -0.1226
     97  CA        34.4070  -15.0070  -20.3910 C.3    98  HIS98       0.1752
     98  C         35.1780  -14.4790  -21.5920 C.2    98  HIS98       0.2595
     99  O         36.4090  -14.4410  -21.5590 O.2    98  HIS98      -0.2718
    100  CB        34.0610  -16.4760  -20.5360 C.3    98  HIS98       0.0759
    101  CG        33.8160  -17.1470  -19.2270 C.ar   98  HIS98       0.0818
    102  ND1       34.7350  -17.9880  -18.6390 N.ar   98  HIS98      -0.2268
    103  CD2       32.7720  -17.0710  -18.3720 C.ar   98  HIS98       0.1154
    104  CE1       34.2570  -18.4210  -17.4890 C.ar   98  HIS98       0.1986
    105  NE2       33.0660  -17.8800  -17.3040 N.ar   98  HIS98      -0.2212
    106  N         34.4650  -14.0620  -22.6360 N.am   99  LEU99      -0.1980
    107  CA        35.1120  -13.4180  -23.7760 C.3    99  LEU99       0.1596
    108  C         35.9910  -12.2550  -23.2980 C.2    99  LEU99       0.2287
    109  O         37.0930  -12.0610  -23.8110 O.2    99  LEU99      -0.2864
    110  CB        34.0820  -12.9350  -24.8110 C.3    99  LEU99       0.0297
    111  CG        33.4490  -13.9040  -25.8210 C.3    99  LEU99       0.0022
    112  CD1       32.6750  -13.1280  -26.8610 C.3    99  LEU99       0.0001
    113  CD2       34.4840  -14.7940  -26.5080 C.3    99  LEU99       0.0001
    114  N         39.2850  -13.7010  -21.4340 N.3   102  SER102     -0.1217
    115  CA        40.0850  -14.2820  -22.5200 C.3   102  SER102      0.1889
    116  C         40.7240  -13.2050  -23.3980 C.2   102  SER102      0.2288
    117  O         41.7000  -13.4710  -24.1020 O.2   102  SER102     -0.2866
    118  CB        39.2170  -15.1970  -23.3930 C.3   102  SER102      0.2089
    119  OG        38.3710  -16.0260  -22.6050 O.3   102  SER102     -0.2183
@<TRIPOS>BOND
     1   112   111    1
     2   113   111    1
     3    95    93   am
     4   111   110    1
     5   110   107    1
     6    93    92    1
     7    93    94    2
     8    92    89    1
     9   117   116    2
    10   109   108    2
    11   107   108    1
    12   107   106    1
    13   116   115    1
    14   118   119    1
    15   118   115    1
    16    75    76    1
    17    75    72    1
    18    91    90    2
    19    78    77    2
    20    76    77    1
    21    73    74    2
    22    73    72    1
    23    90    89    1
    24    89    88    1
    25    77    79   am
    26   106    98   am
    27   115   114    1
    28    72    71    1
    29    88    82   am
    30    98    99    2
    31    98    97    1
    32    82    83    2
    33    82    81    1
    34   100    97    1
    35   100   101    1
    36    97    96    1
    37    80    81    1
    38    81    84    1
    39   101   102   ar
    40   101   103   ar
    41    84    86    1
    42    84    85    1
    43   102   104   ar
    44   103   105   ar
    45    85    87    1
    46   104   105   ar
    47    63    62    2
    48    64    65    1
    49    64    61    1
    50    65    66    1
    51    62    61    1
    52    62    67   am
    53    68    67    1
    54    68    69    1
    55    22    21    2
    56    61    60    1
    57    69    70    2
    58    23    24    1
    59    23    20    1
    60    66    60    1
    61    21    20    1
    62    60    50   am
    63    28    27    2
    64    26    25    1
    65    26    27    1
    66    26    29    1
    67    20    19    1
    68    27    34   am
    69    29    30    1
    70    50    51    2
    71    50    49    1
    72    11    10   ar
    73    11     9   ar
    74    30    31    1
    75    31    32    1
    76    10     8   ar
    77    32    33    1
    78     9     7   ar
    79    34    35    1
    80    49    48    1
    81    49    52    1
    82    48    36   am
    83    36    37    2
    84    36    35    1
    85    35    38    1
    86     8     6   ar
    87     7     6   ar
    88    52    53    1
    89    15    14    2
    90    46    44   ar
    91    46    47   ar
    92     6     5    1
    93    44    41   ar
    94    47    45   ar
    95    38    39    1
    96    41    39   ar
    97    41    43   ar
    98    16    17    1
    99    16    13    1
   100    14    13    1
   101    39    40   ar
   102    17    18    1
   103    18    12    1
   104    45    43   ar
   105    53    55   ar
   106    53    54   ar
   107    43    42   ar
   108    40    42   ar
   109    55    57   ar
   110    13    12    1
   111    12     3   am
   112     5     2    1
   113    54    56   ar
   114     3     2    1
   115     3     4    2
   116     2     1    1
   117    57    58   ar
   118    56    58   ar
   119    58    59    1
