@<TRIPOS>MOLECULE
tmp/4ec4E00.pdb
 161 158 0 0 0
SMALL
GASTEIGER

@<TRIPOS>ATOM
      1  N         34.0180  -34.1900   -4.3310 N.3     1  SER1       -0.1217
      2  CA        34.3580  -34.3570   -5.7750 C.3     1  SER1        0.1889
      3  C         33.1330  -34.7070   -6.6310 C.2     1  SER1        0.2288
      4  O         33.2680  -35.0820   -7.8010 O.2     1  SER1       -0.2866
      5  CB        35.4730  -35.3930   -5.9630 C.3     1  SER1        0.2089
      6  OG        34.9490  -36.7040   -6.1070 O.3     1  SER1       -0.2183
      7  N         31.6110  -31.2550   -4.5050 N.3     4  ASN4       -0.1240
      8  CA        32.6700  -30.2600   -4.6310 C.3     4  ASN4        0.1653
      9  C         32.5850  -29.7190   -6.0510 C.2     4  ASN4        0.2266
     10  O         32.7560  -28.5270   -6.3010 O.2     4  ASN4       -0.2867
     11  CB        34.0320  -30.9110   -4.3980 C.3     4  ASN4        0.1155
     12  CG        35.0390  -29.9570   -3.8030 C.2     4  ASN4        0.2627
     13  OD1       36.1790  -30.3390   -3.5160 O.2     4  ASN4       -0.2716
     14  ND2       34.6250  -28.7090   -3.6000 N.am    4  ASN4       -0.0877
     15  N         30.3860  -28.6730   -9.1810 N.3     6  PRO6       -0.2116
     16  CA        29.1120  -27.9630   -9.2730 C.3     6  PRO6        0.1372
     17  C         27.9710  -28.7020   -9.9710 C.2     6  PRO6        0.2244
     18  O         28.1800  -29.6980  -10.6620 O.2     6  PRO6       -0.2868
     19  CB        29.4800  -26.7110  -10.0710 C.3     6  PRO6        0.0268
     20  CG        30.9120  -26.5090   -9.7980 C.3     6  PRO6        0.0207
     21  CD        31.4700  -27.8870   -9.7910 C.3     6  PRO6        0.0892
     22  N         26.2650  -17.9330    3.9630 N.3    47  LEU47      -0.1245
     23  CA        26.5440  -19.1530    4.7080 C.3    47  LEU47       0.1561
     24  C         26.6030  -18.9530    6.2160 C.2    47  LEU47       0.2260
     25  O         26.6500  -19.9210    6.9670 O.2    47  LEU47      -0.2867
     26  CB        27.8670  -19.7590    4.2480 C.3    47  LEU47       0.0270
     27  CG        27.8900  -20.6380    3.0040 C.3    47  LEU47       0.0019
     28  CD1       29.2870  -21.1720    2.8230 C.3    47  LEU47       0.0001
     29  CD2       26.9150  -21.7880    3.1310 C.3    47  LEU47       0.0001
     30  N         31.6150  -15.8040    3.1760 N.3    52  LYS52      -0.1231
     31  CA        31.2350  -16.8440    2.2400 C.3    52  LYS52       0.1693
     32  C         29.7440  -16.9010    1.9360 C.2    52  LYS52       0.2592
     33  O         28.8940  -16.7250    2.8150 O.2    52  LYS52      -0.2718
     34  CB        31.7090  -18.2000    2.7520 C.3    52  LYS52       0.0285
     35  CG        33.1950  -18.2860    3.0740 C.3    52  LYS52       0.0035
     36  CD        33.4370  -19.4440    3.9990 C.3    52  LYS52       0.0206
     37  CE        34.7300  -20.1360    3.6940 C.3    52  LYS52       0.1093
     38  NZ        34.6210  -21.5660    4.1080 N.3    52  LYS52      -0.1314
     39  N         29.4530  -17.1610    0.6670 N.am   53  VAL53      -0.1966
     40  CA        28.0970  -17.3690    0.1770 C.3    53  VAL53       0.1727
     41  C         28.1110  -18.4490   -0.9000 C.2    53  VAL53       0.2616
     42  O         28.9940  -18.4500   -1.7680 O.2    53  VAL53      -0.2715
     43  CB        27.5180  -16.0840   -0.4310 C.3    53  VAL53       0.0290
     44  CG1       26.9840  -15.1850    0.6470 C.3    53  VAL53       0.0023
     45  CG2       28.5730  -15.3520   -1.2340 C.3    53  VAL53       0.0023
     46  N         27.1530  -19.3750   -0.8290 N.am   54  LYS54      -0.1977
     47  CA        26.9280  -20.3430   -1.9050 C.3    54  LYS54       0.1596
     48  C         25.6980  -19.9570   -2.7180 C.2    54  LYS54       0.2287
     49  O         24.7560  -19.3570   -2.1910 O.2    54  LYS54      -0.2864
     50  CB        26.7440  -21.7630   -1.3640 C.3    54  LYS54       0.0298
     51  CG        28.0300  -22.5410   -1.0770 C.3    54  LYS54       0.0038
     52  CD        27.7100  -24.0330   -0.8380 C.3    54  LYS54       0.0206
     53  CE        28.7650  -24.7510    0.0110 C.3    54  LYS54       0.1093
     54  NZ        29.9620  -25.1220   -0.7750 N.3    54  LYS54      -0.1314
     55  N         27.6840  -23.6010   -6.1370 N.3    60  GLY60      -0.1210
     56  CA        29.0230  -23.0350   -6.0840 C.3    60  GLY60       0.1956
     57  C         29.0650  -21.9060   -5.0780 C.2    60  GLY60       0.2612
     58  O         28.0590  -21.2130   -4.8830 O.2    60  GLY60      -0.2717
     59  N         30.2210  -21.7270   -4.4370 N.am   61  GLY61      -0.1942
     60  CA        30.3960  -20.6800   -3.4180 C.3    61  GLY61       0.2014
     61  C         31.4920  -19.6540   -3.6810 C.2    61  GLY61       0.2639
     62  O         32.4690  -19.9470   -4.3840 O.2    61  GLY61      -0.2714
     63  N         31.3400  -18.4580   -3.1000 N.am   62  LEU62      -0.1963
     64  CA        32.3170  -17.3670   -3.2820 C.3    62  LEU62       0.1728
     65  C         32.7500  -16.6880   -1.9680 C.2    62  LEU62       0.2617
     66  O         31.9840  -16.6640   -0.9980 O.2    62  LEU62      -0.2715
     67  CB        31.8070  -16.3370   -4.3050 C.3    62  LEU62       0.0311
     68  CG        31.5150  -16.8180   -5.7360 C.3    62  LEU62       0.0022
     69  CD1       31.0880  -15.6690   -6.6080 C.3    62  LEU62       0.0001
     70  CD2       32.6910  -17.5320   -6.3770 C.3    62  LEU62       0.0001
     71  N         33.9810  -16.1590   -1.9460 N.am   63  THR63      -0.1937
     72  CA        34.5680  -15.4820   -0.7690 C.3    63  THR63       0.2028
     73  C         35.3630  -14.2340   -1.1740 C.2    63  THR63       0.2642
     74  O         35.5550  -13.9780   -2.3670 O.2    63  THR63      -0.2714
     75  CB        35.5420  -16.3980   -0.0030 C.3    63  THR63       0.1808
     76  OG1       35.1310  -17.7590   -0.1270 O.3    63  THR63      -0.2208
     77  CG2       35.6220  -16.0120    1.4820 C.3    63  THR63       0.0379
     78  N         35.8350  -13.4760   -0.1790 N.am   64  ASP64      -0.1957
     79  CA        36.6930  -12.2980   -0.3890 C.3    64  ASP64       0.1840
     80  C         36.1180  -11.2950   -1.3640 C.2    64  ASP64       0.2622
     81  O         36.7860  -10.8900   -2.3150 O.2    64  ASP64      -0.2715
     82  CB        38.0840  -12.7060   -0.8520 C.3    64  ASP64       0.1450
     83  CG        38.7160  -13.7160    0.0590 C.2    64  ASP64       0.3671
     84  OD1       38.8900  -13.4240    1.2700 O.co2  64  ASP64      -0.2456
     85  OD2       39.0330  -14.8120   -0.4460 O.co2  64  ASP64      -0.2456
     86  N         34.8710  -10.9140   -1.1270 N.am   65  TRP65      -0.1960
     87  CA        34.2490   -9.8470   -1.8780 C.3    65  TRP65       0.1771
     88  C         34.9680   -8.5360   -1.5800 C.2    65  TRP65       0.2619
     89  O         34.9470   -8.0320   -0.4460 O.2    65  TRP65      -0.2715
     90  CB        32.7690   -9.7490   -1.5310 C.3    65  TRP65       0.0590
     91  CG        32.0200  -10.9470   -1.9630 C.ar   65  TRP65       0.0006
     92  CD1       31.7900  -12.0690   -1.2350 C.ar   65  TRP65       0.0946
     93  CD2       31.4170  -11.1610   -3.2400 C.ar   65  TRP65       0.0152
     94  NE1       31.0740  -12.9700   -1.9760 N.ar   65  TRP65      -0.2442
     95  CE2       30.8340  -12.4380   -3.2130 C.ar   65  TRP65       0.0810
     96  CE3       31.3120  -10.3950   -4.4050 C.ar   65  TRP65       0.0012
     97  CZ2       30.1580  -12.9710   -4.3010 C.ar   65  TRP65       0.0191
     98  CZ3       30.6350  -10.9230   -5.4830 C.ar   65  TRP65       0.0001
     99  CH2       30.0680  -12.1990   -5.4270 C.ar   65  TRP65       0.0015
    100  N         35.6390   -8.0090   -2.5980 N.am   66  LYS66      -0.1977
    101  CA        36.2710   -6.7070   -2.4960 C.3    66  LYS66       0.1596
    102  C         35.2000   -5.6330   -2.7290 C.2    66  LYS66       0.2287
    103  O         34.2350   -5.8680   -3.4660 O.2    66  LYS66      -0.2864
    104  CB        37.4520   -6.5920   -3.4760 C.3    66  LYS66       0.0298
    105  CG        38.5240   -7.6750   -3.2780 C.3    66  LYS66       0.0038
    106  CD        39.9490   -7.1360   -3.3990 C.3    66  LYS66       0.0206
    107  CE        40.9300   -8.0340   -2.6390 C.3    66  LYS66       0.1093
    108  NZ        42.1710   -7.3190   -2.1920 N.3    66  LYS66      -0.1314
    109  N         31.9450   -5.2600   -5.8890 N.3    69  GLU69      -0.1245
    110  CA        31.9860   -6.2200   -6.9930 C.3    69  GLU69       0.1567
    111  C         30.5850   -6.6480   -7.3870 C.2    69  GLU69       0.2260
    112  O         29.6460   -6.5150   -6.6090 O.2    69  GLU69      -0.2867
    113  CB        32.8590   -7.4330   -6.6600 C.3    69  GLU69       0.0388
    114  CG        34.2700   -7.3530   -7.2320 C.3    69  GLU69       0.1160
    115  CD        35.2790   -8.2150   -6.4780 C.2    69  GLU69       0.3649
    116  OE1       35.0480   -8.5210   -5.2920 O.co2  69  GLU69      -0.2457
    117  OE2       36.3210   -8.5780   -7.0640 O.co2  69  GLU69      -0.2457
    118  N         30.3660  -12.2430  -11.0700 N.3    74  GLN74      -0.1245
    119  CA        31.1150  -13.2820  -10.3710 C.3    74  GLN74       0.1566
    120  C         30.4980  -14.6710  -10.5480 C.2    74  GLN74       0.2260
    121  O         31.2190  -15.6600  -10.6920 O.2    74  GLN74      -0.2867
    122  CB        31.2760  -12.9450   -8.8880 C.3    74  GLN74       0.0367
    123  CG        32.1840  -11.7560   -8.6000 C.3    74  GLN74       0.0905
    124  CD        33.4440  -11.7180   -9.4450 C.2    74  GLN74       0.2608
    125  OE1       34.2770  -12.6240   -9.4020 O.2    74  GLN74      -0.2717
    126  NE2       33.5930  -10.6520  -10.2140 N.am   74  GLN74      -0.0878
    127  N         31.6190  -15.8470  -14.0550 N.3    77  LYS77      -0.1231
    128  CA        33.0710  -16.0840  -14.1300 C.3    77  LYS77       0.1693
    129  C         33.4930  -17.4500  -13.5990 C.2    77  LYS77       0.2592
    130  O         34.2110  -18.1800  -14.2730 O.2    77  LYS77      -0.2718
    131  CB        33.8370  -14.9710  -13.3960 C.3    77  LYS77       0.0285
    132  CG        35.3520  -15.1370  -13.3520 C.3    77  LYS77       0.0035
    133  CD        36.0560  -13.8790  -12.8230 C.3    77  LYS77       0.0206
    134  CE        37.5770  -14.0830  -12.7040 C.3    77  LYS77       0.1093
    135  NZ        38.3300  -12.8620  -12.2970 N.3    77  LYS77      -0.1314
    136  N         33.0180  -17.7940  -12.4030 N.am   78  TRP78      -0.1962
    137  CA        33.4970  -18.9740  -11.6680 C.3    78  TRP78       0.1771
    138  C         32.6530  -20.2360  -11.8340 C.2    78  TRP78       0.2619
    139  O         33.1900  -21.3560  -11.7840 O.2    78  TRP78      -0.2715
    140  CB        33.6500  -18.6520  -10.1810 C.3    78  TRP78       0.0590
    141  CG        34.6570  -17.5790   -9.8870 C.ar   78  TRP78       0.0006
    142  CD1       34.4000  -16.3400   -9.3850 C.ar   78  TRP78       0.0946
    143  CD2       36.0770  -17.6500  -10.0760 C.ar   78  TRP78       0.0152
    144  NE1       35.5670  -15.6300   -9.2470 N.ar   78  TRP78      -0.2442
    145  CE2       36.6140  -16.4100   -9.6630 C.ar   78  TRP78       0.0810
    146  CE3       36.9480  -18.6390  -10.5560 C.ar   78  TRP78       0.0012
    147  CZ2       37.9930  -16.1260   -9.7160 C.ar   78  TRP78       0.0191
    148  CZ3       38.3210  -18.3600  -10.6090 C.ar   78  TRP78       0.0001
    149  CH2       38.8270  -17.1110  -10.1870 C.ar   78  TRP78       0.0015
    150  N         31.3430  -20.0510  -12.0280 N.am   79  TYR79      -0.1974
    151  CA        30.3970  -21.1670  -12.2010 C.3    79  TYR79       0.1639
    152  C         29.4460  -20.9960  -13.3910 C.2    79  TYR79       0.2290
    153  O         28.2410  -20.9850  -13.1890 O.2    79  TYR79      -0.2864
    154  CB        29.5820  -21.3590  -10.9150 C.3    79  TYR79       0.0560
    155  CG        30.4380  -21.4760   -9.6760 C.ar   79  TYR79      -0.0198
    156  CD1       30.7060  -20.3690   -8.8970 C.ar   79  TYR79      -0.0009
    157  CD2       30.9910  -22.6940   -9.3020 C.ar   79  TYR79      -0.0009
    158  CE1       31.4880  -20.4630   -7.7790 C.ar   79  TYR79       0.0417
    159  CE2       31.7800  -22.8010   -8.1870 C.ar   79  TYR79       0.0417
    160  CZ        32.0270  -21.6780   -7.4250 C.ar   79  TYR79       0.1957
    161  OH        32.8150  -21.7620   -6.2970 O.3    79  TYR79      -0.2866
@<TRIPOS>BOND
     1   130   129    2
     2   128   127    1
     3   128   129    1
     4   128   131    1
     5   129   136   am
     6   131   132    1
     7   152   153    2
     8   152   151    1
     9   132   133    1
    10   133   134    1
    11   134   135    1
    12   136   137    1
    13   151   150    1
    14   151   154    1
    15   150   138   am
    16   138   139    2
    17   138   137    1
    18   137   140    1
    19   118   119    1
    20   154   155    1
    21   121   120    2
    22    18    17    2
    23   148   146   ar
    24   148   149   ar
    25   146   143   ar
    26   120   119    1
    27   119   122    1
    28   126   124   am
    29   149   147   ar
    30   140   141    1
    31   143   141   ar
    32   143   145   ar
    33    19    20    1
    34    19    16    1
    35    17    16    1
    36   141   142   ar
    37    20    21    1
    38    21    15    1
    39   147   145   ar
    40   155   157   ar
    41   155   156   ar
    42   145   144   ar
    43   124   125    2
    44   124   123    1
    45   142   144   ar
    46   157   159   ar
    47    16    15    1
    48   156   158   ar
    49   122   123    1
    50   159   160   ar
    51     4     3    2
    52   158   160   ar
    53   160   161    1
    54   111   110    1
    55   111   112    2
    56   114   113    1
    57   114   115    1
    58   117   115   ar
    59   110   113    1
    60   110   109    1
    61     3     2    1
    62    69    68    1
    63   115   116   ar
    64    70    68    1
    65    10     9    2
    66    55    56    1
    67     6     5    1
    68    56    57    1
    69     9     8    1
    70     5     2    1
    71     2     1    1
    72    68    67    1
    73    98    99   ar
    74    98    96   ar
    75    99    97   ar
    76    57    58    2
    77    57    59   am
    78     8     7    1
    79     8    11    1
    80    59    60    1
    81    96    93   ar
    82    11    12    1
    83    62    61    2
    84    67    64    1
    85    97    95   ar
    86    12    14   am
    87    12    13    2
    88    61    60    1
    89    61    63   am
    90   104   105    1
    91   104   101    1
    92   103   102    2
    93   106   105    1
    94   106   107    1
    95    64    63    1
    96    64    65    1
    97    93    95   ar
    98    93    91   ar
    99    95    94   ar
   100   102   101    1
   101    48    49    2
   102    48    47    1
   103   107   108    1
   104   100   101    1
   105   100    88   am
   106    74    73    2
   107    81    80    2
   108    94    92   ar
   109    65    71   am
   110    65    66    2
   111    91    90    1
   112    91    92   ar
   113    71    72    1
   114    47    50    1
   115    47    46    1
   116    87    88    1
   117    87    90    1
   118    87    86    1
   119    42    41    2
   120    88    89    2
   121    50    51    1
   122    80    86   am
   123    80    79    1
   124    45    43    1
   125    73    72    1
   126    73    78   am
   127    51    52    1
   128    41    46   am
   129    41    40    1
   130    82    79    1
   131    82    83    1
   132    52    53    1
   133    54    53    1
   134    72    75    1
   135    85    83   ar
   136    43    40    1
   137    43    44    1
   138    79    78    1
   139    76    75    1
   140    75    77    1
   141    83    84   ar
   142    40    39    1
   143    39    32   am
   144    32    31    1
   145    32    33    2
   146    31    34    1
   147    31    30    1
   148    34    35    1
   149    28    27    1
   150    27    29    1
   151    27    26    1
   152    35    36    1
   153    37    36    1
   154    37    38    1
   155    22    23    1
   156    26    23    1
   157    23    24    1
   158    24    25    2
