@<TRIPOS>MOLECULE
tmp/4ec4G01.pdb
 96 98 0 0 0
SMALL
GASTEIGER

@<TRIPOS>ATOM
      1  N          8.0140    5.6910   33.8450 N.3     3  PHE3       -0.1228
      2  CA         6.6880    6.0290   33.4090 C.3     3  PHE3        0.1721
      3  C          5.8890    6.7870   34.4630 C.2     3  PHE3        0.2437
      4  O          5.5710    6.2380   35.5190 O.2     3  PHE3       -0.2733
      5  CB         5.9800    4.7420   33.0460 C.3     3  PHE3        0.0547
      6  CG         4.8770    4.9310   32.0900 C.ar    3  PHE3       -0.0202
      7  CD1        3.5740    4.6920   32.4660 C.ar    3  PHE3       -0.0042
      8  CD2        5.1340    5.3630   30.8100 C.ar    3  PHE3       -0.0042
      9  CE1        2.5470    4.8760   31.5780 C.ar    3  PHE3       -0.0003
     10  CE2        4.1090    5.5490   29.9200 C.ar    3  PHE3       -0.0003
     11  CZ         2.8140    5.3030   30.3030 C.ar    3  PHE3       -0.0000
     12  N          5.5540    8.0580   34.1770 N.am    4  PRO4       -0.2729
     13  CA         4.7390    8.8620   35.0970 C.3     4  PRO4        0.1401
     14  C          3.3520    8.2480   35.1890 C.2     4  PRO4        0.2269
     15  O          2.9540    7.5540   34.2540 O.2     4  PRO4       -0.2865
     16  CB         4.6650   10.2200   34.3990 C.3     4  PRO4        0.0296
     17  CG         5.6640   10.1690   33.2830 C.3     4  PRO4        0.0237
     18  CD         5.7760    8.7540   32.8990 C.3     4  PRO4        0.0939
     19  N         -0.5180    8.1780   34.8780 N.3     6  SER6       -0.1217
     20  CA        -1.8260    8.6600   34.4290 C.3     6  SER6        0.1889
     21  C         -2.8640    8.4200   35.5270 C.2     6  SER6        0.2288
     22  O         -3.9430    9.0010   35.4990 O.2     6  SER6       -0.2866
     23  CB        -2.2550    7.9180   33.1570 C.3     6  SER6        0.2089
     24  OG        -1.1370    7.4970   32.3840 O.3     6  SER6       -0.2183
     25  N          2.6830   20.8380   29.9920 N.3    75  LYS75      -0.1231
     26  CA         3.4730   20.5280   28.8020 C.3    75  LYS75       0.1693
     27  C          4.0400   19.0990   28.8100 C.2    75  LYS75       0.2592
     28  O          3.7590   18.3260   27.8900 O.2    75  LYS75      -0.2718
     29  CB         4.5830   21.5690   28.6150 C.3    75  LYS75       0.0285
     30  CG         5.0780   21.6800   27.1850 C.3    75  LYS75       0.0035
     31  CD         6.5320   21.2660   27.0170 C.3    75  LYS75       0.0206
     32  CE         7.4450   22.4900   26.9650 C.3    75  LYS75       0.1093
     33  NZ         7.1500   23.3810   25.8000 N.3    75  LYS75      -0.1314
     34  N          4.7910   18.7470   29.8610 N.am   76  TRP76      -0.1962
     35  CA         5.5190   17.4720   29.9160 C.3    76  TRP76       0.1771
     36  C          4.7540   16.3000   30.5390 C.2    76  TRP76       0.2620
     37  O          5.0970   15.1440   30.2970 O.2    76  TRP76      -0.2715
     38  CB         6.8730   17.6450   30.6110 C.3    76  TRP76       0.0590
     39  CG         7.7840   18.6370   29.9320 C.ar   76  TRP76       0.0006
     40  CD1        8.1640   19.8680   30.4050 C.ar   76  TRP76       0.0946
     41  CD2        8.4150   18.4920   28.6550 C.ar   76  TRP76       0.0152
     42  NE1        8.9930   20.4910   29.5040 N.ar   76  TRP76      -0.2442
     43  CE2        9.1650   19.6670   28.4220 C.ar   76  TRP76       0.0810
     44  CE3        8.4250   17.4830   27.6880 C.ar   76  TRP76       0.0012
     45  CZ2        9.9150   19.8570   27.2590 C.ar   76  TRP76       0.0191
     46  CZ3        9.1730   17.6740   26.5350 C.ar   76  TRP76       0.0001
     47  CH2        9.9040   18.8510   26.3290 C.ar   76  TRP76       0.0015
     48  N          3.7280   16.5820   31.3380 N.am   77  TYR77      -0.1960
     49  CA         2.9370   15.5080   31.9590 C.3    77  TYR77       0.1756
     50  C          1.4130   15.7360   31.9070 C.2    77  TYR77       0.2461
     51  O          0.7600   15.8080   32.9490 O.2    77  TYR77      -0.2730
     52  CB         3.4030   15.2760   33.3970 C.3    77  TYR77       0.0574
     53  CG         4.8950   15.0900   33.5260 C.ar   77  TYR77      -0.0198
     54  CD1        5.6960   16.0870   34.0880 C.ar   77  TYR77      -0.0009
     55  CD2        5.5150   13.9270   33.0730 C.ar   77  TYR77      -0.0009
     56  CE1        7.0810   15.9280   34.2060 C.ar   77  TYR77       0.0417
     57  CE2        6.8990   13.7590   33.1880 C.ar   77  TYR77       0.0417
     58  CZ         7.6740   14.7620   33.7550 C.ar   77  TYR77       0.1957
     59  OH         9.0360   14.5890   33.8700 O.3    77  TYR77      -0.2866
     60  N          0.8410   15.8220   30.6900 N.am   78  PRO78      -0.2716
     61  CA        -0.5850   16.1150   30.4950 C.3    78  PRO78       0.1536
     62  C         -1.5350   15.1240   31.1700 C.2    78  PRO78       0.2599
     63  O         -2.6340   15.5060   31.5920 O.2    78  PRO78      -0.2715
     64  CB        -0.7530   16.0250   28.9780 C.3    78  PRO78       0.0310
     65  CG         0.4420   15.2310   28.4980 C.3    78  PRO78       0.0237
     66  CD         1.5350   15.6060   29.4070 C.3    78  PRO78       0.0939
     67  N         -1.1120   13.8670   31.2690 N.am   79  GLY79      -0.1955
     68  CA        -1.9310   12.8190   31.8780 C.3    79  GLY79       0.1869
     69  C         -1.9960   12.8760   33.3930 C.2    79  GLY79       0.2309
     70  O         -2.6570   12.0410   34.0180 O.2    79  GLY79      -0.2863
     71  N         -4.7730   22.4670   30.1450 N.3    92  ILE92      -0.1231
     72  CA        -3.7400   21.5360   29.6770 C.3    92  ILE92       0.1692
     73  C         -3.6770   21.5720   28.1600 C.2    92  ILE92       0.2592
     74  O         -2.5880   21.6580   27.5850 O.2    92  ILE92      -0.2718
     75  CB        -3.9900   20.0780   30.1710 C.3    92  ILE92       0.0266
     76  CG1       -3.9270   20.0090   31.7020 C.3    92  ILE92       0.0019
     77  CG2       -2.9800   19.1140   29.5740 C.3    92  ILE92       0.0020
     78  CD1       -4.7220   18.8560   32.3280 C.3    92  ILE92       0.0001
     79  N         -4.8510   21.5330   27.5260 N.am   93  ASN93      -0.1974
     80  CA        -4.9550   21.5120   26.0740 C.3    93  ASN93       0.1688
     81  C         -4.4670   22.7990   25.4200 C.2    93  ASN93       0.2292
     82  O         -3.8750   22.7610   24.3420 O.2    93  ASN93      -0.2864
     83  CB        -6.3850   21.1970   25.6410 C.3    93  ASN93       0.1181
     84  CG        -6.8370   19.8130   26.0660 C.2    93  ASN93       0.2629
     85  OD1       -6.0360   18.9980   26.5260 O.2    93  ASN93      -0.2716
     86  ND2       -8.1320   19.5390   25.9090 N.am   93  ASN93      -0.0877
     87  N         -0.7720   22.6880   24.8790 N.3    96  HIS96      -0.1241
     88  CA        -0.4170   21.8020   23.7900 C.3    96  HIS96       0.1621
     89  C         -0.7440   22.3830   22.4260 C.2    96  HIS96       0.2264
     90  O         -0.0030   22.1770   21.4640 O.2    96  HIS96      -0.2867
     91  CB        -1.0540   20.4380   23.9810 C.3    96  HIS96       0.0745
     92  CG        -0.3080   19.5780   24.9460 C.ar   96  HIS96       0.0817
     93  ND1        0.8750   18.9530   24.6170 N.ar   96  HIS96      -0.2268
     94  CD2       -0.5580   19.2610   26.2390 C.ar   96  HIS96       0.1154
     95  CE1        1.3160   18.2770   25.6640 C.ar   96  HIS96       0.1986
     96  NE2        0.4650   18.4470   26.6610 N.ar   96  HIS96      -0.2212
@<TRIPOS>BOND
     1    90    89    2
     2    89    88    1
     3    88    91    1
     4    88    87    1
     5    91    92    1
     6    82    81    2
     7    93    92   ar
     8    93    95   ar
     9    92    94   ar
    10    81    80    1
    11    83    84    1
    12    83    80    1
    13    95    96   ar
    14    33    32    1
    15    86    84   am
    16    84    85    2
    17    80    79    1
    18    94    96   ar
    19    47    46   ar
    20    47    45   ar
    21    46    44   ar
    22    32    31    1
    23    31    30    1
    24    30    29    1
    25    45    43   ar
    26    79    73   am
    27    74    73    2
    28    44    41   ar
    29    28    27    2
    30    73    72    1
    31    43    41   ar
    32    43    42   ar
    33    65    64    1
    34    65    66    1
    35    29    26    1
    36    41    39   ar
    37    26    27    1
    38    26    25    1
    39    27    34   am
    40    64    61    1
    41    66    60    1
    42    42    40   ar
    43    77    75    1
    44    72    71    1
    45    72    75    1
    46    34    35    1
    47    35    36    1
    48    35    38    1
    49    10    11   ar
    50    10     8   ar
    51    39    40   ar
    52    39    38    1
    53    75    76    1
    54    37    36    2
    55    11     9   ar
    56    61    60    1
    57    61    62    1
    58    36    48   am
    59    60    50   am
    60     8     6   ar
    61    62    67   am
    62    62    63    2
    63    67    68    1
    64    48    49    1
    65     9     7   ar
    66    76    78    1
    67    68    69    1
    68    50    49    1
    69    50    51    2
    70    49    52    1
    71     6     7   ar
    72     6     5    1
    73    24    23    1
    74    18    17    1
    75    18    12    1
    76     5     2    1
    77    55    57   ar
    78    55    53   ar
    79    23    20    1
    80    57    58   ar
    81    17    16    1
    82    69    70    2
    83    52    53    1
    84     2     1    1
    85     2     3    1
    86    53    54   ar
    87    58    59    1
    88    58    56   ar
    89    54    56   ar
    90    12     3   am
    91    12    13    1
    92    15    14    2
    93    16    13    1
    94    20    19    1
    95    20    21    1
    96     3     4    2
    97    13    14    1
    98    22    21    2
