@<TRIPOS>MOLECULE
tmp/4ec7B00.pdb
 118 117 0 0 0
SMALL
GASTEIGER

@<TRIPOS>ATOM
      1  N          6.2500   56.4190   31.3150 N.3    10  SER10      -0.1202
      2  CA         6.9870   56.3520   30.0740 C.3    10  SER10       0.2020
      3  C          8.3010   57.0900   30.1590 C.2    10  SER10       0.2619
      4  O          8.4190   58.0870   30.8840 O.2    10  SER10      -0.2717
      5  CB         6.1580   56.9110   28.9230 C.3    10  SER10       0.2103
      6  OG         5.0800   56.0460   28.6400 O.3    10  SER10      -0.2182
      7  N          9.2850   56.5860   29.4160 N.am   11  ALA11      -0.1965
      8  CA        10.5720   57.2580   29.2790 C.3    11  ALA11       0.1728
      9  C         11.3240   56.7730   28.0560 C.2    11  ALA11       0.2616
     10  O         11.0640   55.6820   27.5400 O.2    11  ALA11      -0.2715
     11  CB        11.4210   57.0560   30.5260 C.3    11  ALA11       0.0334
     12  N         12.2620   57.5960   27.6020 N.am   12  TRP12      -0.1974
     13  CA        13.1970   57.1950   26.5620 C.3    12  TRP12       0.1640
     14  C         14.3890   56.4830   27.2060 C.2    12  TRP12       0.2290
     15  O         14.9540   56.9750   28.1820 O.2    12  TRP12      -0.2864
     16  CB        13.6450   58.4250   25.7920 C.3    12  TRP12       0.0576
     17  CG        12.5470   58.9670   24.9360 C.ar   12  TRP12       0.0006
     18  CD1       11.6690   59.9700   25.2440 C.ar   12  TRP12       0.0946
     19  CD2       12.1970   58.5160   23.6220 C.ar   12  TRP12       0.0152
     20  NE1       10.7970   60.1700   24.1890 N.ar   12  TRP12      -0.2442
     21  CE2       11.1060   59.2900   23.1850 C.ar   12  TRP12       0.0810
     22  CE3       12.7100   57.5320   22.7710 C.ar   12  TRP12       0.0012
     23  CZ2       10.5200   59.1060   21.9350 C.ar   12  TRP12       0.0191
     24  CZ3       12.1350   57.3510   21.5400 C.ar   12  TRP12       0.0001
     25  CH2       11.0480   58.1300   21.1280 C.ar   12  TRP12       0.0015
     26  N         24.6720   52.9040   16.5950 N.3    32  VAL32      -0.1245
     27  CA        24.5270   52.5460   15.1920 C.3    32  VAL32       0.1561
     28  C         25.4990   53.4180   14.4030 C.2    32  VAL32       0.2260
     29  O         25.4100   54.6540   14.4360 O.2    32  VAL32      -0.2867
     30  CB        23.0830   52.7850   14.6890 C.3    32  VAL32       0.0252
     31  CG1       23.0330   52.8720   13.1710 C.3    32  VAL32       0.0019
     32  CG2       22.1670   51.6840   15.1800 C.3    32  VAL32       0.0019
     33  N         26.3710   54.5780   11.0850 N.3    34  LEU34      -0.1245
     34  CA        25.9960   54.7080    9.6800 C.3    34  LEU34       0.1561
     35  C         27.1540   55.2070    8.8050 C.2    34  LEU34       0.2260
     36  O         28.1680   54.5220    8.6320 O.2    34  LEU34      -0.2867
     37  CB        24.7590   55.6070    9.5040 C.3    34  LEU34       0.0270
     38  CG        23.3900   54.9570    9.7140 C.3    34  LEU34       0.0019
     39  CD1       22.3180   55.5950    8.8290 C.3    34  LEU34       0.0001
     40  CD2       23.4900   53.4600    9.4590 C.3    34  LEU34       0.0001
     41  N         25.0180   56.9500   16.2050 N.3    39  TYR39      -0.1227
     42  CA        23.8210   57.2900   16.9330 C.3    39  TYR39       0.1736
     43  C         23.5390   56.2150   17.9620 C.2    39  TYR39       0.2595
     44  O         23.5540   55.0280   17.6290 O.2    39  TYR39      -0.2718
     45  CB        22.6500   57.3610   15.9530 C.3    39  TYR39       0.0548
     46  CG        22.8700   58.2320   14.7330 C.ar   39  TYR39      -0.0200
     47  CD1       23.3200   57.6900   13.5480 C.ar   39  TYR39      -0.0009
     48  CD2       22.5910   59.5910   14.7640 C.ar   39  TYR39      -0.0009
     49  CE1       23.4970   58.4790   12.4240 C.ar   39  TYR39       0.0417
     50  CE2       22.7660   60.3790   13.6540 C.ar   39  TYR39       0.0417
     51  CZ        23.2220   59.8160   12.4870 C.ar   39  TYR39       0.1957
     52  OH        23.4030   60.5970   11.3730 O.3    39  TYR39      -0.2866
     53  N         23.2800   56.6140   19.2070 N.am   40  LYS40      -0.1980
     54  CA        22.8290   55.6490   20.2010 C.3    40  LYS40       0.1596
     55  C         21.4310   55.1540   19.8290 C.2    40  LYS40       0.2287
     56  O         20.7580   55.7340   18.9780 O.2    40  LYS40      -0.2864
     57  CB        22.7700   56.2710   21.5840 C.3    40  LYS40       0.0298
     58  CG        24.0960   56.6320   22.1940 C.3    40  LYS40       0.0038
     59  CD        24.0060   56.3270   23.6830 C.3    40  LYS40       0.0206
     60  CE        24.6610   57.3990   24.5110 C.3    40  LYS40       0.1093
     61  NZ        24.2430   57.2500   25.9330 N.3    40  LYS40      -0.1314
     62  N         17.8130   54.8650   21.0470 N.3    42  TYR42      -0.1241
     63  CA        16.8270   55.2780   22.0380 C.3    42  TYR42       0.1605
     64  C         15.5120   54.5810   21.7830 C.2    42  TYR42       0.2264
     65  O         15.0770   54.4550   20.6340 O.2    42  TYR42      -0.2867
     66  CB        16.6400   56.7940   22.0170 C.3    42  TYR42       0.0534
     67  CG        17.8710   57.5360   22.4600 C.ar   42  TYR42      -0.0201
     68  CD1       18.2180   57.5770   23.7970 C.ar   42  TYR42      -0.0009
     69  CD2       18.6970   58.1780   21.5430 C.ar   42  TYR42      -0.0009
     70  CE1       19.3480   58.2400   24.2190 C.ar   42  TYR42       0.0417
     71  CE2       19.8270   58.8460   21.9550 C.ar   42  TYR42       0.0417
     72  CZ        20.1510   58.8700   23.2990 C.ar   42  TYR42       0.1957
     73  OH        21.2860   59.5240   23.7400 O.3    42  TYR42      -0.2866
     74  N         11.3980   54.2610   23.2360 N.3    44  PHE44      -0.1241
     75  CA        10.3150   54.7670   24.0620 C.3    44  PHE44       0.1605
     76  C          9.5930   53.5750   24.6940 C.2    44  PHE44       0.2264
     77  O          8.8560   52.8500   24.0060 O.2    44  PHE44      -0.2867
     78  CB         9.3750   55.5760   23.1740 C.3    44  PHE44       0.0534
     79  CG         8.3240   56.3350   23.9210 C.ar   44  PHE44      -0.0203
     80  CD1        8.6730   57.2950   24.8600 C.ar   44  PHE44      -0.0042
     81  CD2        6.9850   56.1170   23.6570 C.ar   44  PHE44      -0.0042
     82  CE1        7.6970   58.0070   25.5460 C.ar   44  PHE44      -0.0003
     83  CE2        6.0110   56.8220   24.3330 C.ar   44  PHE44      -0.0003
     84  CZ         6.3680   57.7720   25.2800 C.ar   44  PHE44      -0.0000
     85  N         12.8060   47.6460   15.5370 N.3    78  LYS78      -0.1245
     86  CA        14.0710   47.1860   14.9580 C.3    78  LYS78       0.1561
     87  C         15.2440   47.8540   15.6570 C.2    78  LYS78       0.2260
     88  O         15.3840   49.0770   15.6220 O.2    78  LYS78      -0.2867
     89  CB        14.1470   47.5030   13.4650 C.3    78  LYS78       0.0271
     90  CG        14.8820   46.4630   12.6590 C.3    78  LYS78       0.0035
     91  CD        13.9840   45.9810   11.5430 C.3    78  LYS78       0.0206
     92  CE        14.3920   44.6380   11.0030 C.3    78  LYS78       0.1093
     93  NZ        13.7000   44.3450    9.7020 N.3    78  LYS78      -0.1314
     94  N         20.3730   43.4940   12.4750 N.3    89  TRP89      -0.1241
     95  CA        19.1130   44.1550   12.8140 C.3    89  TRP89       0.1605
     96  C         18.0550   43.0980   13.1210 C.2    89  TRP89       0.2264
     97  O         17.9000   42.1270   12.3640 O.2    89  TRP89      -0.2867
     98  CB        18.6170   45.0490   11.6610 C.3    89  TRP89       0.0550
     99  CG        19.4960   46.2310   11.3540 C.ar   89  TRP89       0.0003
    100  CD1       20.5010   46.2870   10.4270 C.ar   89  TRP89       0.0946
    101  CD2       19.4410   47.5240   11.9660 C.ar   89  TRP89       0.0152
    102  NE1       21.0780   47.5300   10.4370 N.ar   89  TRP89      -0.2442
    103  CE2       20.4470   48.3140   11.3740 C.ar   89  TRP89       0.0810
    104  CE3       18.6400   48.0950   12.9620 C.ar   89  TRP89       0.0012
    105  CZ2       20.6770   49.6460   11.7420 C.ar   89  TRP89       0.0191
    106  CZ3       18.8670   49.4160   13.3250 C.ar   89  TRP89       0.0001
    107  CH2       19.8790   50.1720   12.7190 C.ar   89  TRP89       0.0015
    108  N         13.9330   42.6320   15.2330 N.3    91  PHE91      -0.1241
    109  CA        12.8450   43.1870   16.0290 C.3    91  PHE91       0.1605
    110  C         12.9790   42.7170   17.4770 C.2    91  PHE91       0.2264
    111  O         12.9160   41.5170   17.7710 O.2    91  PHE91      -0.2867
    112  CB        11.4850   42.7880   15.4580 C.3    91  PHE91       0.0534
    113  CG        11.1670   43.4310   14.1410 C.ar   91  PHE91      -0.0203
    114  CD1       10.8830   44.7970   14.0700 C.ar   91  PHE91      -0.0042
    115  CD2       11.1360   42.6740   12.9670 C.ar   91  PHE91      -0.0042
    116  CE1       10.5840   45.4000   12.8450 C.ar   91  PHE91      -0.0003
    117  CE2       10.8460   43.2700   11.7440 C.ar   91  PHE91      -0.0003
    118  CZ        10.5690   44.6320   11.6810 C.ar   91  PHE91      -0.0000
@<TRIPOS>BOND
     1    36    35    2
     2    35    34    1
     3    39    38    1
     4    40    38    1
     5    37    34    1
     6    37    38    1
     7    34    33    1
     8    93    92    1
     9   100   102   ar
    10   100    99   ar
    11   102   103   ar
    12    92    91    1
    13    99    98    1
    14    99   101   ar
    15    52    51    1
    16   103   105   ar
    17   103   101   ar
    18    91    90    1
    19    98    95    1
    20   118   117   ar
    21   118   116   ar
    22   105   107   ar
    23   117   115   ar
    24   101   104   ar
    25    97    96    2
    26    49    51   ar
    27    49    47   ar
    28    94    95    1
    29    51    50   ar
    30    90    89    1
    31   107   106   ar
    32    95    96    1
    33   116   114   ar
    34   104   106   ar
    35   115   113   ar
    36    31    30    1
    37    89    86    1
    38    47    46   ar
    39    50    48   ar
    40   114   113   ar
    41   113   112    1
    42    28    29    2
    43    28    27    1
    44    30    32    1
    45    30    27    1
    46    46    48   ar
    47    46    45    1
    48    86    85    1
    49    86    87    1
    50    27    26    1
    51   108   109    1
    52   112   109    1
    53    88    87    2
    54    45    42    1
    55   109   110    1
    56    41    42    1
    57    42    43    1
    58   110   111    2
    59    44    43    2
    60    43    53   am
    61    56    55    2
    62    53    54    1
    63    55    54    1
    64    54    57    1
    65    65    64    2
    66    62    63    1
    67    25    24   ar
    68    25    23   ar
    69    24    22   ar
    70    69    71   ar
    71    69    67   ar
    72    57    58    1
    73    64    63    1
    74    23    21   ar
    75    71    72   ar
    76    66    63    1
    77    66    67    1
    78    58    59    1
    79    67    68   ar
    80    22    19   ar
    81    78    79    1
    82    78    75    1
    83    21    19   ar
    84    21    20   ar
    85    74    75    1
    86    72    73    1
    87    72    70   ar
    88    19    17   ar
    89    81    79   ar
    90    81    83   ar
    91    59    60    1
    92    68    70   ar
    93    79    80   ar
    94    77    76    2
    95    75    76    1
    96    20    18   ar
    97    83    84   ar
    98    60    61    1
    99    80    82   ar
   100    17    18   ar
   101    17    16    1
   102    84    82   ar
   103    16    13    1
   104    13    14    1
   105    13    12    1
   106    14    15    2
   107    10     9    2
   108    12     9   am
   109     9     8    1
   110     6     5    1
   111     5     2    1
   112     8     7    1
   113     8    11    1
   114     7     3   am
   115     2     3    1
   116     2     1    1
   117     3     4    2
