@<TRIPOS>MOLECULE
tmp/4ecgA00.pdb
 137 131 0 0 0
SMALL
GASTEIGER

@<TRIPOS>ATOM
      1  N         98.1940   24.4820    1.3640 N.3   100  LYS100     -0.1231
      2  CA        99.4670   25.0970    1.6620 C.3   100  LYS100      0.1693
      3  C         99.3450   26.6000    1.8320 C.2   100  LYS100      0.2592
      4  O         99.9750   27.1650    2.6960 O.2   100  LYS100     -0.2718
      5  CB       100.5020   24.7280    0.5830 C.3   100  LYS100      0.0285
      6  CG       100.8300   23.2260    0.5910 C.3   100  LYS100      0.0035
      7  CD       101.8760   22.8110   -0.4530 C.3   100  LYS100      0.0206
      8  CE       101.2920   22.6970   -1.8570 C.3   100  LYS100      0.1093
      9  NZ       102.2900   23.1900   -2.8800 N.3   100  LYS100     -0.1314
     10  N         98.5130   27.2690    1.0650 N.am  101  ASN101     -0.1974
     11  CA        98.3280   28.7000    1.3350 C.3   101  ASN101      0.1688
     12  C         97.7320   29.0140    2.7180 C.2   101  ASN101      0.2292
     13  O         98.1630   29.9490    3.3760 O.2   101  ASN101     -0.2864
     14  CB        97.5150   29.4260    0.2220 C.3   101  ASN101      0.1181
     15  CG        98.2710   29.5020   -1.1340 C.2   101  ASN101      0.2629
     16  OD1       99.4600   29.1770   -1.2730 O.2   101  ASN101     -0.2716
     17  ND2       97.5660   29.9300   -2.1270 N.am  101  ASN101     -0.0877
     18  N         97.9870   27.0990    5.4530 N.3   103  ILE103     -0.1231
     19  CA        99.0120   26.7920    6.4720 C.3   103  ILE103      0.1692
     20  C         99.9440   28.0110    6.6520 C.2   103  ILE103      0.2591
     21  O        100.1900   28.4890    7.7660 O.2   103  ILE103     -0.2718
     22  CB        99.8100   25.5170    6.1210 C.3   103  ILE103      0.0266
     23  CG1       98.8850   24.2910    6.1260 C.3   103  ILE103      0.0019
     24  CG2      100.9620   25.2970    7.1230 C.3   103  ILE103      0.0020
     25  CD1       99.4510   23.0100    5.5280 C.3   103  ILE103      0.0001
     26  N        100.4170   28.5420    5.5390 N.am  104  GLU104     -0.1979
     27  CA       101.3210   29.6890    5.5340 C.3   104  GLU104      0.1602
     28  C        100.6580   30.9050    6.1860 C.2   104  GLU104      0.2287
     29  O        101.3010   31.6860    6.9170 O.2   104  GLU104     -0.2864
     30  CB       101.7550   30.0180    4.1010 C.3   104  GLU104      0.0415
     31  CG       103.1640   30.5860    3.9890 C.3   104  GLU104      0.1163
     32  CD       103.5020   31.0020    2.5490 C.2   104  GLU104      0.3649
     33  OE1      103.6590   30.0960    1.6820 O.co2 104  GLU104     -0.2457
     34  OE2      103.6020   32.2360    2.2780 O.co2 104  GLU104     -0.2457
     35  N        100.5800   30.4510    9.9310 N.3   107  ILE107     -0.1245
     36  CA       101.8840   30.6770   10.4750 C.3   107  ILE107      0.1561
     37  C        102.1060   32.1890   10.6530 C.2   107  ILE107      0.2260
     38  O        102.7350   32.6030   11.6240 O.2   107  ILE107     -0.2867
     39  CB       103.0040   30.0690    9.5860 C.3   107  ILE107      0.0252
     40  CG1      102.9040   28.5290    9.6120 C.3   107  ILE107      0.0019
     41  CG2      104.3720   30.5800   10.0460 C.3   107  ILE107      0.0019
     42  CD1      103.7650   27.8090    8.5600 C.3   107  ILE107      0.0001
     43  N        105.3290   17.9880    6.9250 N.3   138  LYS138     -0.1245
     44  CA       105.8180   19.0850    6.1140 C.3   138  LYS138      0.1561
     45  C        106.7170   19.9740    6.9520 C.2   138  LYS138      0.2260
     46  O        107.6550   20.5210    6.4210 O.2   138  LYS138     -0.2867
     47  CB       104.6860   19.9580    5.5100 C.3   138  LYS138      0.0271
     48  CG       105.2080   20.8320    4.3590 C.3   138  LYS138      0.0035
     49  CD       104.1360   21.7390    3.7140 C.3   138  LYS138      0.0206
     50  CE       104.6590   22.5880    2.5380 C.3   138  LYS138      0.1093
     51  NZ       105.6340   23.6590    2.9320 N.3   138  LYS138     -0.1314
     52  N        110.2560   17.5300    8.1840 N.3   140  PHE140     -0.1227
     53  CA       111.0340   16.8710    7.1590 C.3   140  PHE140      0.1736
     54  C        111.2850   17.7950    5.9530 C.2   140  PHE140      0.2595
     55  O        110.4500   18.6080    5.5990 O.2   140  PHE140     -0.2718
     56  CB       110.2810   15.6240    6.6140 C.3   140  PHE140      0.0547
     57  CG       110.2000   14.4730    7.5580 C.ar  140  PHE140     -0.0202
     58  CD1      111.2800   13.5680    7.6890 C.ar  140  PHE140     -0.0042
     59  CD2      109.0550   14.2220    8.2770 C.ar  140  PHE140     -0.0042
     60  CE1      111.1990   12.4900    8.5400 C.ar  140  PHE140     -0.0003
     61  CE2      108.9710   13.1240    9.1300 C.ar  140  PHE140     -0.0003
     62  CZ       110.0460   12.2800    9.2730 C.ar  140  PHE140     -0.0000
     63  N        112.4230   17.6270    5.3020 N.am  141  LEU141     -0.1980
     64  CA       112.6590   18.2690    4.0140 C.3   141  LEU141      0.1596
     65  C        113.3090   17.2620    3.0730 C.2   141  LEU141      0.2287
     66  O        114.4060   16.7150    3.3300 O.2   141  LEU141     -0.2864
     67  CB       113.5420   19.4940    4.1790 C.3   141  LEU141      0.0297
     68  CG       113.7950   20.3640    2.9490 C.3   141  LEU141      0.0022
     69  CD1      112.4610   20.9190    2.4350 C.3   141  LEU141      0.0001
     70  CD2      114.7760   21.4850    3.3350 C.3   141  LEU141      0.0001
     71  N        114.3780   18.1040    8.9100 N.3   146  ARG146     -0.1245
     72  CA       114.5350   19.4950    8.4860 C.3   146  ARG146      0.1563
     73  C        115.7880   20.0650    9.0690 C.2   146  ARG146      0.2260
     74  O        116.1990   19.6790   10.1710 O.2   146  ARG146     -0.2867
     75  CB       113.3100   20.2970    8.9350 C.3   146  ARG146      0.0307
     76  CG       113.3720   21.7910    8.7640 C.3   146  ARG146      0.0489
     77  CD       112.0420   22.2990    9.2060 C.3   146  ARG146      0.2205
     78  NE       111.8560   23.7280    9.0830 N.pl3 146  ARG146     -0.0865
     79  CZ       110.6780   24.3150    9.2540 C.cat 146  ARG146      0.5346
     80  NH1      109.6060   23.5600    9.5320 N.pl3 146  ARG146      0.1354
     81  NH2      110.5570   25.6370    9.1560 N.pl3 146  ARG146      0.1354
     82  N        116.4570   25.9890    7.1250 N.3   151  SER151     -0.1217
     83  CA       115.0230   26.3520    6.9840 C.3   151  SER151      0.1889
     84  C        114.4280   26.5960    8.3610 C.2   151  SER151      0.2288
     85  O        113.7450   25.7530    8.9170 O.2   151  SER151     -0.2866
     86  CB       114.2270   25.2740    6.2000 C.3   151  SER151      0.2089
     87  OG       115.0370   24.1320    5.9020 O.3   151  SER151     -0.2183
     88  N        104.9020   28.5360   13.9000 N.3   157  GLU157     -0.1245
     89  CA       104.9100   27.2570   13.2270 C.3   157  GLU157      0.1567
     90  C        105.1780   26.1570   14.2320 C.2   157  GLU157      0.2260
     91  O        104.6590   25.0780   14.0750 O.2   157  GLU157     -0.2867
     92  CB       105.9790   27.2950   12.1740 C.3   157  GLU157      0.0388
     93  CG       106.0960   26.0660   11.3110 C.3   157  GLU157      0.1160
     94  CD       107.2050   26.1990   10.2880 C.2   157  GLU157      0.3649
     95  OE1      107.9210   27.2320   10.3160 O.co2 157  GLU157     -0.2457
     96  OE2      107.3300   25.2820    9.4380 O.co2 157  GLU157     -0.2457
     97  N        110.1240   22.1900   -7.9000 N.3   248  PRO248     -0.2116
     98  CA       109.1580   22.2070   -6.8020 C.3   248  PRO248      0.1372
     99  C        107.6490   22.2860   -7.2000 C.2   248  PRO248      0.2244
    100  O        106.8040   22.0320   -6.3580 O.2   248  PRO248     -0.2868
    101  CB       109.5630   23.4640   -5.9970 C.3   248  PRO248      0.0268
    102  CG       110.2530   24.3430   -6.9850 C.3   248  PRO248      0.0207
    103  CD       110.9610   23.4090   -7.9290 C.3   248  PRO248      0.0892
    104  N        104.1900   16.6500   -6.6680 N.3   254  LEU254     -0.1245
    105  CA       103.2290   17.2100   -5.7060 C.3   254  LEU254      0.1561
    106  C        102.0880   16.2590   -5.3760 C.2   254  LEU254      0.2260
    107  O        101.5700   16.3430   -4.2800 O.2   254  LEU254     -0.2867
    108  CB       102.6670   18.6080   -6.1150 C.3   254  LEU254      0.0270
    109  CG       103.6390   19.8180   -6.1570 C.3   254  LEU254      0.0019
    110  CD1      103.0020   21.0490   -6.7770 C.3   254  LEU254      0.0001
    111  CD2      104.1970   20.1800   -4.8000 C.3   254  LEU254      0.0001
    112  N        105.7650   12.4050    0.0870 N.3   259  TRP259     -0.1227
    113  CA       107.0030   12.8570   -0.4670 C.3   259  TRP259      0.1737
    114  C        107.8290   13.7520    0.4110 C.2   259  TRP259      0.2595
    115  O        109.0470   13.8380    0.2260 O.2   259  TRP259     -0.2718
    116  CB       106.7600   13.4950   -1.8350 C.3   259  TRP259      0.0564
    117  CG       106.3910   14.9490   -1.8810 C.ar  259  TRP259      0.0003
    118  CD1      105.1210   15.4940   -1.9500 C.ar  259  TRP259      0.0946
    119  CD2      107.3000   16.0950   -1.9730 C.ar  259  TRP259      0.0152
    120  NE1      105.1720   16.8600   -2.0220 N.ar  259  TRP259     -0.2442
    121  CE2      106.4440   17.2830   -2.0890 C.ar  259  TRP259      0.0810
    122  CE3      108.6650   16.2470   -1.9650 C.ar  259  TRP259      0.0012
    123  CZ2      106.9560   18.5500   -2.2080 C.ar  259  TRP259      0.0191
    124  CZ3      109.1800   17.5330   -2.0840 C.ar  259  TRP259      0.0001
    125  CH2      108.3320   18.6640   -2.1830 C.ar  259  TRP259      0.0015
    126  N        107.2370   14.4420    1.3680 N.am  260  TYR260     -0.1976
    127  CA       108.0780   15.2960    2.2290 C.3   260  TYR260      0.1639
    128  C        109.1510   14.4710    2.9380 C.2   260  TYR260      0.2290
    129  O        110.3170   14.8790    3.0250 O.2   260  TYR260     -0.2864
    130  CB       107.2410   16.0860    3.2640 C.3   260  TYR260      0.0560
    131  CG       106.1410   16.9500    2.6750 C.ar  260  TYR260     -0.0198
    132  CD1      106.3190   17.6550    1.4680 C.ar  260  TYR260     -0.0009
    133  CD2      104.9270   17.0870    3.3210 C.ar  260  TYR260     -0.0009
    134  CE1      105.3070   18.4650    0.9520 C.ar  260  TYR260      0.0417
    135  CE2      103.9190   17.8610    2.7880 C.ar  260  TYR260      0.0417
    136  CZ       104.0990   18.5590    1.6180 C.ar  260  TYR260      0.1957
    137  OH       103.0460   19.3340    1.0930 O.3   260  TYR260     -0.2866
@<TRIPOS>BOND
     1   103    97    1
     2   103   102    1
     3    97    98    1
     4    99    98    1
     5    99   100    2
     6   102   101    1
     7    98   101    1
     8   110   109    1
     9   104   105    1
    10   109   108    1
    11   109   111    1
    12   108   105    1
    13   105   106    1
    14   106   107    2
    15     9     8    1
    16   123   125   ar
    17   123   121   ar
    18   125   124   ar
    19    17    15   am
    20   121   120   ar
    21   121   119   ar
    22   124   122   ar
    23   120   118   ar
    24   119   122   ar
    25   119   117   ar
    26   118   117   ar
    27   117   116    1
    28     8     7    1
    29   116   113    1
    30    16    15    2
    31    15    14    1
    32   113   112    1
    33   113   114    1
    34     7     6    1
    35    14    11    1
    36   115   114    2
    37   114   126   am
    38     5     6    1
    39     5     2    1
    40   134   132   ar
    41   134   136   ar
    42    10    11    1
    43    10     3   am
    44   137   136    1
    45    11    12    1
    46     1     2    1
    47   126   127    1
    48   132   131   ar
    49   136   135   ar
    50     2     3    1
    51    33    32   ar
    52     3     4    2
    53   127   128    1
    54   127   130    1
    55    34    32   ar
    56    69    68    1
    57    50    51    1
    58    50    49    1
    59    32    31    1
    60   131   130    1
    61   131   133   ar
    62    12    13    2
    63   135   133   ar
    64   128   129    2
    65    68    70    1
    66    68    67    1
    67    65    66    2
    68    65    64    1
    69    49    48    1
    70    31    30    1
    71    64    67    1
    72    64    63    1
    73    30    27    1
    74    48    47    1
    75    63    54   am
    76    18    19    1
    77    47    44    1
    78    25    23    1
    79    27    26    1
    80    27    28    1
    81    26    20   am
    82    55    54    2
    83    87    86    1
    84    54    53    1
    85    44    43    1
    86    44    45    1
    87    22    23    1
    88    22    19    1
    89    22    24    1
    90    28    29    2
    91    86    83    1
    92    46    45    2
    93    19    20    1
    94    56    53    1
    95    56    57    1
    96    20    21    2
    97    83    82    1
    98    83    84    1
    99    53    52    1
   100    57    58   ar
   101    57    59   ar
   102    58    60   ar
   103    59    61   ar
   104    84    85    2
   105    72    71    1
   106    72    75    1
   107    72    73    1
   108    60    62   ar
   109    42    40    1
   110    76    75    1
   111    76    77    1
   112    73    74    2
   113    78    77    1
   114    78    79    2
   115    61    62   ar
   116    81    79    1
   117    79    80    1
   118    96    94   ar
   119    39    40    1
   120    39    41    1
   121    39    36    1
   122    35    36    1
   123    94    95   ar
   124    94    93    1
   125    36    37    1
   126    37    38    2
   127    93    92    1
   128    92    89    1
   129    89    88    1
   130    89    90    1
   131    91    90    2
