@<TRIPOS>MOLECULE
tmp/4ecjA00.pdb
 135 132 0 0 0
SMALL
GASTEIGER

@<TRIPOS>ATOM
      1  N          6.2190  -33.0840    2.4930 N.3    10  THR10      -0.1204
      2  CA         5.8920  -31.8130    1.8410 C.3    10  THR10       0.1979
      3  C          5.2870  -32.1480    0.4900 C.2    10  THR10       0.2460
      4  O          5.3730  -33.2930    0.0350 O.2    10  THR10      -0.2732
      5  CB         7.1500  -30.9700    1.5700 C.3    10  THR10       0.1783
      6  OG1        7.8820  -31.5440    0.4720 O.3    10  THR10      -0.2211
      7  CG2        8.0400  -30.9320    2.7970 C.3    10  THR10       0.0376
      8  N          4.6730  -31.1580   -0.1620 N.am   11  PRO11      -0.2717
      9  CA         4.0630  -31.3840   -1.4710 C.3    11  PRO11       0.1535
     10  C          5.0940  -31.8520   -2.4920 C.2    11  PRO11       0.2598
     11  O          4.8060  -32.7380   -3.2940 O.2    11  PRO11      -0.2715
     12  CB         3.5290  -29.9990   -1.8490 C.3    11  PRO11       0.0310
     13  CG         3.3380  -29.3010   -0.5330 C.3    11  PRO11       0.0237
     14  CD         4.4590  -29.7840    0.3290 C.3    11  PRO11       0.0939
     15  N          6.3020  -31.2970   -2.4610 N.am   12  ASN12      -0.1973
     16  CA         7.2820  -31.7330   -3.4470 C.3    12  ASN12       0.1688
     17  C          7.7100  -33.1930   -3.2240 C.2    12  ASN12       0.2292
     18  O          7.9160  -33.9310   -4.1840 O.2    12  ASN12      -0.2864
     19  CB         8.4850  -30.7710   -3.5150 C.3    12  ASN12       0.1181
     20  CG         8.0630  -29.3800   -3.9590 C.2    12  ASN12       0.2629
     21  OD1        7.2480  -29.2320   -4.8660 O.2    12  ASN12      -0.2716
     22  ND2        8.5840  -28.3630   -3.2990 N.am   12  ASN12      -0.0877
     23  N          4.9500  -35.6410   -4.4900 N.3    15  LYS15      -0.1245
     24  CA         4.9560  -35.8750   -5.9420 C.3    15  LYS15       0.1561
     25  C          5.6690  -37.1880   -6.2400 C.2    15  LYS15       0.2260
     26  O          5.2010  -38.0160   -7.0300 O.2    15  LYS15      -0.2867
     27  CB         5.7400  -34.7950   -6.6950 C.3    15  LYS15       0.0271
     28  CG         5.1820  -33.3840   -6.5840 C.3    15  LYS15       0.0035
     29  CD         5.9810  -32.4450   -7.4670 C.3    15  LYS15       0.0206
     30  CE         5.6820  -30.9700   -7.1990 C.3    15  LYS15       0.1093
     31  NZ         6.7510  -30.1230   -7.8270 N.3    15  LYS15      -0.1314
     32  N         14.5370  -32.0090    8.9200 N.3    34  PHE34      -0.1241
     33  CA        14.9490  -30.6130    8.8030 C.3    34  PHE34       0.1605
     34  C         15.3250  -30.0640   10.1810 C.2    34  PHE34       0.2264
     35  O         16.1980  -29.2030   10.3000 O.2    34  PHE34      -0.2867
     36  CB        13.8490  -29.7550    8.1830 C.3    34  PHE34       0.0534
     37  CG        13.5290  -30.1020    6.7470 C.ar   34  PHE34      -0.0203
     38  CD1       12.3670  -29.6250    6.1510 C.ar   34  PHE34      -0.0042
     39  CD2       14.3670  -30.9220    6.0040 C.ar   34  PHE34      -0.0042
     40  CE1       12.0580  -29.9400    4.8390 C.ar   34  PHE34      -0.0003
     41  CE2       14.0660  -31.2390    4.6850 C.ar   34  PHE34      -0.0003
     42  CZ        12.9110  -30.7510    4.1060 C.ar   34  PHE34      -0.0000
     43  N         19.2770  -32.0150    5.6230 N.3    39  GLN39      -0.1231
     44  CA        19.2850  -31.6590    4.2100 C.3    39  GLN39       0.1698
     45  C         20.4390  -30.7260    3.8250 C.2    39  GLN39       0.2592
     46  O         20.6540  -30.4780    2.6410 O.2    39  GLN39      -0.2718
     47  CB        17.9490  -31.0470    3.7810 C.3    39  GLN39       0.0381
     48  CG        17.8220  -29.5660    4.1070 C.3    39  GLN39       0.0905
     49  CD        17.4330  -29.3020    5.5480 C.2    39  GLN39       0.2608
     50  OE1       17.7910  -30.0540    6.4690 O.2    39  GLN39      -0.2717
     51  NE2       16.6840  -28.2310    5.7540 N.am   39  GLN39      -0.0878
     52  N         21.1570  -30.2020    4.8190 N.am   40  LYS40      -0.1980
     53  CA        22.3360  -29.3620    4.5760 C.3    40  LYS40       0.1596
     54  C         23.6420  -30.1150    4.8710 C.2    40  LYS40       0.2287
     55  O         24.7260  -29.5490    4.7560 O.2    40  LYS40      -0.2864
     56  CB        22.2750  -28.0510    5.3880 C.3    40  LYS40       0.0298
     57  CG        21.0770  -27.1420    5.0850 C.3    40  LYS40       0.0038
     58  CD        20.8620  -26.8980    3.5870 C.3    40  LYS40       0.0206
     59  CE        19.7170  -25.9210    3.3310 C.3    40  LYS40       0.1093
     60  NZ        19.2130  -25.9320    1.9250 N.3    40  LYS40      -0.1314
     61  N         21.5280  -28.5070   -4.2070 N.3    50  ASN50      -0.1225
     62  CA        20.5990  -27.4720   -3.7260 C.3    50  ASN50       0.1785
     63  C         20.1560  -27.6920   -2.2680 C.2    50  ASN50       0.2598
     64  O         19.5820  -26.7900   -1.6360 O.2    50  ASN50      -0.2718
     65  CB        19.3610  -27.4000   -4.6460 C.3    50  ASN50       0.1169
     66  CG        18.4940  -26.1750   -4.3850 C.2    50  ASN50       0.2627
     67  OD1       19.0010  -25.0790   -4.0940 O.2    50  ASN50      -0.2716
     68  ND2       17.1710  -26.3470   -4.5100 N.am   50  ASN50      -0.0877
     69  N         20.3950  -28.8900   -1.7370 N.am   51  GLY51      -0.1942
     70  CA        20.0600  -29.1770   -0.3330 C.3    51  GLY51       0.2014
     71  C         18.5690  -29.1160   -0.0440 C.2    51  GLY51       0.2639
     72  O         18.1300  -28.5590    0.9680 O.2    51  GLY51      -0.2714
     73  N         17.7800  -29.6780   -0.9480 N.am   52  ARG52      -0.1963
     74  CA        16.3450  -29.7550   -0.7450 C.3    52  ARG52       0.1729
     75  C         15.8680  -31.1510   -1.0890 C.2    52  ARG52       0.2616
     76  O         16.5990  -31.9210   -1.7220 O.2    52  ARG52      -0.2715
     77  CB        15.6280  -28.7410   -1.6150 C.3    52  ARG52       0.0348
     78  CG        15.9630  -27.3110   -1.2630 C.3    52  ARG52       0.0492
     79  CD        14.8360  -26.4200   -1.7280 C.3    52  ARG52       0.2205
     80  NE        15.0520  -25.0450   -1.2970 N.pl3  52  ARG52      -0.0865
     81  CZ        14.1390  -24.0860   -1.3900 C.cat  52  ARG52       0.5346
     82  NH1       14.4200  -22.8540   -0.9730 N.pl3  52  ARG52       0.1354
     83  NH2       12.9460  -24.3680   -1.9030 N.pl3  52  ARG52       0.1354
     84  N         14.6580  -31.4860   -0.6510 N.am   53  ILE53      -0.1964
     85  CA        14.0440  -32.7580   -1.0730 C.3    53  ILE53       0.1712
     86  C         12.9570  -32.4290   -2.0880 C.2    53  ILE53       0.2458
     87  O         12.4560  -31.2930   -2.1210 O.2    53  ILE53      -0.2730
     88  CB        13.5040  -33.5860    0.1270 C.3    53  ILE53       0.0289
     89  CG1       12.3480  -32.8820    0.8560 C.3    53  ILE53       0.0022
     90  CG2       14.6350  -33.8910    1.1170 C.3    53  ILE53       0.0023
     91  CD1       10.9800  -33.0890    0.2180 C.3    53  ILE53       0.0001
     92  N         12.5730  -33.4110   -2.9180 N.am   54  PRO54      -0.2727
     93  CA        13.0870  -34.7800   -2.9550 C.3    54  PRO54       0.1402
     94  C         14.3210  -34.9550   -3.8290 C.2    54  PRO54       0.2269
     95  O         14.6300  -34.0950   -4.6710 O.2    54  PRO54      -0.2865
     96  CB        11.9240  -35.5580   -3.5920 C.3    54  PRO54       0.0296
     97  CG        11.2950  -34.5570   -4.5170 C.3    54  PRO54       0.0237
     98  CD        11.4000  -33.2300   -3.7900 C.3    54  PRO54       0.0939
     99  N         15.4680  -32.3700   -8.0740 N.3    68  GLU68      -0.1231
    100  CA        14.3440  -31.6230   -8.6650 C.3    68  GLU68       0.1699
    101  C         13.1460  -32.5590   -8.9480 C.2    68  GLU68       0.2592
    102  O         13.2070  -33.4360   -9.8270 O.2    68  GLU68      -0.2718
    103  CB        14.7440  -30.8660   -9.9420 C.3    68  GLU68       0.0402
    104  CG        15.6460  -29.6490   -9.7100 C.3    68  GLU68       0.1161
    105  CD        14.9650  -28.5910   -8.8600 C.2    68  GLU68       0.3649
    106  OE1       13.7430  -28.3570   -9.0460 O.co2  68  GLU68      -0.2457
    107  OE2       15.6500  -28.0030   -7.9950 O.co2  68  GLU68      -0.2457
    108  N         12.0610  -32.3820   -8.1980 N.am   69  SER69      -0.1952
    109  CA        10.8900  -33.2530   -8.3660 C.3    69  SER69       0.1924
    110  C         10.4830  -33.4550   -9.8330 C.2    69  SER69       0.2314
    111  O         10.1890  -34.5710  -10.2590 O.2    69  SER69      -0.2863
    112  CB         9.6970  -32.7400   -7.5360 C.3    69  SER69       0.2116
    113  OG         9.3310  -31.3940   -7.9030 O.3    69  SER69      -0.2180
    114  N          5.9370  -26.5520  -12.2140 N.3   102  MET102     -0.1245
    115  CA         7.2470  -26.3670  -11.6160 C.3   102  MET102      0.1570
    116  C          7.6240  -24.8960  -11.5470 C.2   102  MET102      0.2261
    117  O          8.3020  -24.4650  -10.6160 O.2   102  MET102     -0.2867
    118  CB         8.3100  -27.1530  -12.3950 C.3   102  MET102      0.0387
    119  CG         8.2730  -28.6610  -12.1350 C.3   102  MET102      0.0595
    120  SD         8.8880  -29.1230  -10.4910 S.3   102  MET102     -0.1393
    121  CE        10.5580  -28.4550  -10.5490 C.3   102  MET102      0.0692
    122  N          0.0200  -29.9320   -4.4950 N.3   165  TRP165     -0.1241
    123  CA        -0.0910  -28.5050   -4.1740 C.3   165  TRP165      0.1605
    124  C         -1.5360  -28.0780   -4.0800 C.2   165  TRP165      0.2264
    125  O         -1.9480  -27.4190   -3.1150 O.2   165  TRP165     -0.2867
    126  CB         0.6740  -27.6650   -5.2030 C.3   165  TRP165      0.0550
    127  CG         2.1430  -27.6260   -4.8810 C.ar  165  TRP165      0.0003
    128  CD1        3.1700  -28.3910   -5.4490 C.ar  165  TRP165      0.0946
    129  CD2        2.7870  -26.8140   -3.8460 C.ar  165  TRP165      0.0152
    130  NE1        4.3780  -28.0880   -4.8630 N.ar  165  TRP165     -0.2442
    131  CE2        4.2120  -27.1500   -3.8870 C.ar  165  TRP165      0.0810
    132  CE3        2.3390  -25.8590   -2.9210 C.ar  165  TRP165      0.0012
    133  CZ2        5.1360  -26.5460   -3.0380 C.ar  165  TRP165      0.0191
    134  CZ3        3.2860  -25.2680   -2.0650 C.ar  165  TRP165      0.0001
    135  CH2        4.6450  -25.6040   -2.1280 C.ar  165  TRP165      0.0015
@<TRIPOS>BOND
     1   118   119    1
     2   118   115    1
     3   114   115    1
     4   119   120    1
     5   115   116    1
     6   116   117    2
     7   121   120    1
     8   111   110    2
     9   103   104    1
    10   103   100    1
    11   110   109    1
    12   102   101    2
    13   104   105    1
    14   106   105   ar
    15   101   100    1
    16   101   108   am
    17   105   107   ar
    18   100    99    1
    19   109   108    1
    20   109   112    1
    21   113   112    1
    22    31    30    1
    23    29    30    1
    24    29    28    1
    25    26    25    2
    26    27    28    1
    27    27    24    1
    28    25    24    1
    29    24    23    1
    30   128   127   ar
    31   128   130   ar
    32   126   127    1
    33   126   123    1
    34   127   129   ar
    35    21    20    2
    36   130   131   ar
    37    95    94    2
    38    65    66    1
    39    65    62    1
    40    97    98    1
    41    97    96    1
    42    68    66   am
    43   122   123    1
    44    66    67    2
    45    61    62    1
    46    18    17    2
    47   123   124    1
    48   124   125    2
    49    20    19    1
    50    20    22   am
    51   131   129   ar
    52   131   133   ar
    53   129   132   ar
    54    94    93    1
    55    98    92    1
    56    62    63    1
    57    96    93    1
    58    19    16    1
    59    16    17    1
    60    16    15    1
    61    11    10    2
    62   133   135   ar
    63    93    92    1
    64   132   134   ar
    65    92    86   am
    66    10    15   am
    67    10     9    1
    68    63    69   am
    69    63    64    2
    70   135   134   ar
    71    87    86    2
    72    86    85    1
    73    83    81    1
    74    12     9    1
    75    12    13    1
    76    69    70    1
    77    79    80    1
    78    79    78    1
    79    76    75    2
    80    77    78    1
    81    77    74    1
    82     9     8    1
    83    81    80    2
    84    81    82    1
    85    75    74    1
    86    75    84   am
    87    85    84    1
    88    85    88    1
    89    73    74    1
    90    73    71   am
    91    13    14    1
    92    70    71    1
    93     8    14    1
    94     8     3   am
    95    71    72    2
    96     4     3    2
    97    88    89    1
    98    88    90    1
    99    91    89    1
   100     6     5    1
   101     3     2    1
   102     5     2    1
   103     5     7    1
   104     2     1    1
   105    60    59    1
   106    46    45    2
   107    59    58    1
   108    58    57    1
   109    47    48    1
   110    47    44    1
   111    45    44    1
   112    45    52   am
   113    42    41   ar
   114    42    40   ar
   115    48    49    1
   116    44    43    1
   117    53    52    1
   118    53    54    1
   119    53    56    1
   120    41    39   ar
   121    55    54    2
   122    40    38   ar
   123    57    56    1
   124    49    51   am
   125    49    50    2
   126    39    37   ar
   127    38    37   ar
   128    37    36    1
   129    36    33    1
   130    33    32    1
   131    33    34    1
   132    34    35    2
