@<TRIPOS>MOLECULE
tmp/4ecmA01.pdb
 80 76 0 0 0
SMALL
GASTEIGER

@<TRIPOS>ATOM
      1  N         60.2130  -10.2270   29.6130 N.3    10  GLY10      -0.1210
      2  CA        59.1650   -9.4950   30.3220 C.3    10  GLY10       0.1956
      3  C         58.2940  -10.4000   31.1720 C.2    10  GLY10       0.2612
      4  O         58.7570  -11.4010   31.7180 O.2    10  GLY10      -0.2717
      5  N         57.0230  -10.0410   31.2980 N.am   11  GLY11      -0.1942
      6  CA        56.0910  -10.8190   32.1200 C.3    11  GLY11       0.2014
      7  C         56.0870  -10.4060   33.5830 C.2    11  GLY11       0.2640
      8  O         56.9850   -9.7250   34.0480 O.2    11  GLY11      -0.2714
      9  N         55.0690  -10.8490   34.3100 N.am   12  THR12      -0.1936
     10  CA        54.8970  -10.4870   35.7210 C.3    12  THR12       0.2028
     11  C         55.6480  -11.4020   36.6930 C.2    12  THR12       0.2643
     12  O         56.0210  -10.9760   37.7740 O.2    12  THR12      -0.2714
     13  CB        53.4010  -10.5230   36.1030 C.3    12  THR12       0.1808
     14  OG1       52.9350  -11.8750   36.0620 O.3    12  THR12      -0.2208
     15  CG2       52.5500   -9.6560   35.1310 C.3    12  THR12       0.0379
     16  N         55.8610  -12.6570   36.3120 N.am   13  GLY13      -0.1939
     17  CA        56.5080  -13.6310   37.1950 C.3    13  GLY13       0.2014
     18  C         55.5850  -14.0810   38.3290 C.2    13  GLY13       0.2640
     19  O         56.0490  -14.6830   39.3110 O.2    13  GLY13      -0.2714
     20  N         54.2790  -13.8110   38.1770 N.am   14  SER14      -0.1935
     21  CA        53.2860  -14.1200   39.2090 C.3    14  SER14       0.2055
     22  C         53.2980  -15.5770   39.6430 C.2    14  SER14       0.2643
     23  O         53.1550  -15.8560   40.8240 O.2    14  SER14      -0.2714
     24  CB        51.8640  -13.7080   38.7670 C.3    14  SER14       0.2130
     25  OG        51.4380  -14.4440   37.6270 O.3    14  SER14      -0.2179
     26  N         53.4700  -16.5050   38.7060 N.am   15  ARG15      -0.1963
     27  CA        53.5180  -17.9310   39.0620 C.3    15  ARG15       0.1729
     28  C         54.6080  -18.2760   40.0750 C.2    15  ARG15       0.2616
     29  O         54.4490  -19.2020   40.8540 O.2    15  ARG15      -0.2715
     30  CB        53.7030  -18.8070   37.8210 C.3    15  ARG15       0.0348
     31  CG        52.4090  -19.1630   37.1010 C.3    15  ARG15       0.0492
     32  CD        52.6760  -19.9150   35.8130 C.3    15  ARG15       0.2205
     33  NE        53.2590  -19.0260   34.8130 N.pl3  15  ARG15      -0.0865
     34  CZ        53.7480  -19.4100   33.6340 C.cat  15  ARG15       0.5346
     35  NH1       53.7580  -20.6990   33.2880 N.pl3  15  ARG15       0.1354
     36  NH2       54.2540  -18.4960   32.8020 N.pl3  15  ARG15       0.1354
     37  N         55.7180  -17.5440   40.0470 N.am   16  LEU16      -0.1977
     38  CA        56.8250  -17.7890   40.9620 C.3    16  LEU16       0.1596
     39  C         56.7950  -16.9110   42.2260 C.2    16  LEU16       0.2287
     40  O         57.6820  -17.0060   43.0620 O.2    16  LEU16      -0.2864
     41  CB        58.1490  -17.5840   40.2300 C.3    16  LEU16       0.0297
     42  CG        58.4240  -18.5340   39.0660 C.3    16  LEU16       0.0022
     43  CD1       59.7120  -18.1490   38.3360 C.3    16  LEU16       0.0001
     44  CD2       58.4890  -19.9640   39.5670 C.3    16  LEU16       0.0001
     45  N         62.0740  -12.8600   37.0330 N.3    25  LYS25      -0.1231
     46  CA        62.3190  -14.2930   36.8370 C.3    25  LYS25       0.1693
     47  C         63.6080  -14.6340   36.1000 C.2    25  LYS25       0.2592
     48  O         64.3280  -15.5140   36.5140 O.2    25  LYS25      -0.2718
     49  CB        61.1210  -14.9030   36.0960 C.3    25  LYS25       0.0285
     50  CG        61.3500  -16.3000   35.5690 C.3    25  LYS25       0.0035
     51  CD        60.0870  -16.9430   35.0000 C.3    25  LYS25       0.0206
     52  CE        59.4990  -16.1950   33.8430 C.3    25  LYS25       0.1093
     53  NZ        58.4770  -17.0290   33.1170 N.3    25  LYS25      -0.1314
     54  N         63.9180  -13.8650   35.0610 N.am   26  HIS26      -0.1976
     55  CA        65.0520  -14.1320   34.2110 C.3    26  HIS26       0.1656
     56  C         66.3900  -13.7870   34.8240 C.2    26  HIS26       0.2291
     57  O         67.4080  -13.9690   34.1810 O.2    26  HIS26      -0.2864
     58  CB        64.8520  -13.4440   32.8610 C.3    26  HIS26       0.0771
     59  CG        63.4940  -13.6900   32.2920 C.ar   26  HIS26       0.0820
     60  ND1       62.4560  -12.7940   32.4370 N.ar   26  HIS26      -0.2267
     61  CD2       62.9740  -14.7740   31.6690 C.ar   26  HIS26       0.1154
     62  CE1       61.3660  -13.3060   31.8920 C.ar   26  HIS26       0.1986
     63  NE2       61.6570  -14.5020   31.4110 N.ar   26  HIS26      -0.2212
     64  N         52.4190   -6.7370   30.6650 N.3    85  ALA85      -0.1245
     65  CA        52.6250   -8.1120   30.2010 C.3    85  ALA85       0.1562
     66  C         51.5260   -8.5050   29.1890 C.2    85  ALA85       0.2260
     67  O         50.7870   -9.4780   29.3890 O.2    85  ALA85      -0.2867
     68  CB        52.6470   -9.0730   31.3940 C.3    85  ALA85       0.0290
     69  N         62.7520  -17.7240   29.5580 N.3   110  ASP110     -0.1239
     70  CA        62.6290  -18.8430   30.5040 C.3   110  ASP110      0.1674
     71  C         62.7480  -20.2210   29.8520 C.2   110  ASP110      0.2266
     72  O         62.4450  -21.2100   30.4950 O.2   110  ASP110     -0.2867
     73  CB        61.3290  -18.7250   31.3360 C.3   110  ASP110      0.1410
     74  CG        60.0500  -18.9740   30.5140 C.2   110  ASP110      0.3668
     75  OD1       60.1470  -19.1990   29.2970 O.co2 110  ASP110     -0.2456
     76  OD2       58.9440  -18.9400   31.1070 O.co2 110  ASP110     -0.2456
     77  N         59.3090  -21.4820   34.2080 N.3   223  GLY223     -0.1225
     78  CA        58.2890  -20.5490   34.7260 C.3   223  GLY223      0.1811
     79  C         57.3990  -21.0190   35.8690 C.2   223  GLY223      0.2280
     80  O         56.4940  -20.2900   36.2730 O.2   223  GLY223     -0.2866
@<TRIPOS>BOND
     1    66    67    2
     2    66    65    1
     3    75    74   ar
     4    69    70    1
     5     1     2    1
     6    71    72    2
     7    71    70    1
     8    65    64    1
     9    65    68    1
    10     2     3    1
    11    70    73    1
    12    74    76   ar
    13    74    73    1
    14     3     5   am
    15     3     4    2
    16     5     6    1
    17    63    61   ar
    18    63    62   ar
    19    61    59   ar
    20    62    60   ar
    21     6     7    1
    22    59    60   ar
    23    59    58    1
    24    36    34    1
    25    58    55    1
    26    53    52    1
    27    35    34    1
    28     7     8    2
    29     7     9   am
    30    34    33    2
    31    52    51    1
    32    57    56    2
    33    77    78    1
    34    55    56    1
    35    55    54    1
    36     9    10    1
    37    78    79    1
    38    33    32    1
    39    51    50    1
    40    54    47   am
    41    15    13    1
    42    50    49    1
    43    10    13    1
    44    10    11    1
    45    32    31    1
    46    79    80    2
    47    14    13    1
    48    49    46    1
    49    47    48    2
    50    47    46    1
    51    16    11   am
    52    16    17    1
    53    11    12    2
    54    46    45    1
    55    31    30    1
    56    17    18    1
    57    25    24    1
    58    30    27    1
    59    20    18   am
    60    20    21    1
    61    18    19    2
    62    43    42    1
    63    26    27    1
    64    26    22   am
    65    24    21    1
    66    27    28    1
    67    42    44    1
    68    42    41    1
    69    21    22    1
    70    22    23    2
    71    37    28   am
    72    37    38    1
    73    28    29    2
    74    41    38    1
    75    38    39    1
    76    39    40    2
