@<TRIPOS>MOLECULE
tmp/4ecwA01.pdb
 108 104 0 0 0
SMALL
GASTEIGER

@<TRIPOS>ATOM
      1  N         59.0300    0.1610    0.0110 N.3    16  ASP16      -0.1225
      2  CA        57.8860    0.7240    0.7800 C.3    16  ASP16       0.1805
      3  C         58.2960    2.1170    1.3400 C.2    16  ASP16       0.2598
      4  O         59.2200    2.1930    2.1320 O.2    16  ASP16      -0.2718
      5  CB        57.5810   -0.2430    1.9270 C.3    16  ASP16       0.1424
      6  CG        56.1490   -0.1760    2.3870 C.2    16  ASP16       0.3668
      7  OD1       55.7130    0.9160    2.7750 O.co2  16  ASP16      -0.2456
      8  OD2       55.4580   -1.2190    2.3540 O.co2  16  ASP16      -0.2456
      9  N         57.5830    3.1940    0.9760 N.am   17  MET17      -0.1965
     10  CA        57.9340    4.5430    1.4810 C.3    17  MET17       0.1736
     11  C         57.6790    4.5670    2.9780 C.2    17  MET17       0.2616
     12  O         56.7140    3.9960    3.4410 O.2    17  MET17      -0.2715
     13  CB        57.0980    5.6410    0.8050 C.3    17  MET17       0.0427
     14  CG        57.1420    5.6140   -0.7210 C.3    17  MET17       0.0599
     15  SD        58.8410    5.5610   -1.3370 S.3    17  MET17      -0.1393
     16  CE        59.4840    7.1270   -0.7950 C.3    17  MET17       0.0692
     17  N         58.5420    5.2190    3.7410 N.am   18  ASP18      -0.1957
     18  CA        58.3280    5.3050    5.1780 C.3    18  ASP18       0.1840
     19  C         57.2450    6.3490    5.4760 C.2    18  ASP18       0.2622
     20  O         57.2430    7.4230    4.8730 O.2    18  ASP18      -0.2715
     21  CB        59.6150    5.7260    5.8870 C.3    18  ASP18       0.1450
     22  CG        60.7340    4.6880    5.7770 C.2    18  ASP18       0.3671
     23  OD1       60.4660    3.4730    5.6950 O.co2  18  ASP18      -0.2456
     24  OD2       61.9010    5.1000    5.8200 O.co2  18  ASP18      -0.2456
     25  N         56.3550    6.0440    6.4180 N.am   19  CYS19      -0.1954
     26  CA        55.2500    6.9350    6.7930 C.3    19  CYS19       0.1843
     27  C         54.9040    7.9110    5.6710 C.2    19  CYS19       0.2625
     28  O         55.0760    9.1200    5.8120 O.2    19  CYS19      -0.2714
     29  CB        55.5630    7.6910    8.0980 C.3    19  CYS19       0.0997
     30  SG        57.1070    8.6070    8.1690 S.3    19  CYS19      -0.0797
     31  N         54.3980    7.3770    4.5680 N.am   20  PHE20      -0.1960
     32  CA        54.3980    8.1030    3.3050 C.3    20  PHE20       0.1771
     33  C         53.6800    9.4570    3.3310 C.2    20  PHE20       0.2619
     34  O         54.2740   10.4770    2.9980 O.2    20  PHE20      -0.2715
     35  CB        53.8910    7.2210    2.1590 C.3    20  PHE20       0.0574
     36  CG        53.9420    7.8890    0.8220 C.ar   20  PHE20      -0.0200
     37  CD1       55.1070    8.5140    0.3880 C.ar   20  PHE20      -0.0042
     38  CD2       52.8260    7.9100    0.0030 C.ar   20  PHE20      -0.0042
     39  CE1       55.1590    9.1430   -0.8560 C.ar   20  PHE20      -0.0003
     40  CE2       52.8660    8.5330   -1.2350 C.ar   20  PHE20      -0.0003
     41  CZ        54.0320    9.1470   -1.6690 C.ar   20  PHE20      -0.0000
     42  N         52.4180    9.4850    3.7350 N.am   21  PHE21      -0.1974
     43  CA        51.6830   10.7470    3.6760 C.3    21  PHE21       0.1639
     44  C         52.3380   11.8160    4.5560 C.2    21  PHE21       0.2290
     45  O         52.2900   13.0030    4.2490 O.2    21  PHE21      -0.2864
     46  CB        50.2310   10.5740    4.1100 C.3    21  PHE21       0.0560
     47  CG        49.3590    9.8840    3.1010 C.ar   21  PHE21      -0.0200
     48  CD1       49.9080    9.1980    2.0280 C.ar   21  PHE21      -0.0042
     49  CD2       47.9790    9.9200    3.2360 C.ar   21  PHE21      -0.0042
     50  CE1       49.0970    8.5630    1.1030 C.ar   21  PHE21      -0.0003
     51  CE2       47.1520    9.2960    2.3030 C.ar   21  PHE21      -0.0003
     52  CZ        47.7210    8.6120    1.2320 C.ar   21  PHE21      -0.0000
     53  N         48.2790    8.4330    8.9140 N.3    52  ALA52      -0.1245
     54  CA        49.7320    8.1980    8.8190 C.3    52  ALA52       0.1562
     55  C         50.4500    8.8300   10.0030 C.2    52  ALA52       0.2260
     56  O         50.0260    9.8740   10.4870 O.2    52  ALA52      -0.2867
     57  CB        50.2790    8.7510    7.5090 C.3    52  ALA52       0.0290
     58  N         57.6940    8.3310   12.5870 N.3    55  TYR55      -0.1241
     59  CA        58.3410    7.4260   13.5260 C.3    55  TYR55       0.1605
     60  C         58.5450    8.0500   14.9170 C.2    55  TYR55       0.2264
     61  O         58.4230    7.3600   15.9170 O.2    55  TYR55      -0.2867
     62  CB        59.6170    6.8110   12.9210 C.3    55  TYR55       0.0534
     63  CG        59.2400    5.7170   11.9480 C.ar   55  TYR55      -0.0201
     64  CD1       58.7860    6.0220   10.6650 C.ar   55  TYR55      -0.0009
     65  CD2       59.2570    4.3870   12.3340 C.ar   55  TYR55      -0.0009
     66  CE1       58.3870    5.0170    9.7880 C.ar   55  TYR55       0.0417
     67  CE2       58.8720    3.3840   11.4750 C.ar   55  TYR55       0.0417
     68  CZ        58.4400    3.6940   10.2040 C.ar   55  TYR55       0.1957
     69  OH        58.0620    2.6770    9.3580 O.3    55  TYR55      -0.2866
     70  N         55.1700    7.6030   16.6500 N.3    58  ARG58      -0.1245
     71  CA        54.9210    6.1950   17.0010 C.3    58  ARG58       0.1563
     72  C         55.5440    5.8050   18.3370 C.2    58  ARG58       0.2260
     73  O         55.0010    4.9630   19.0610 O.2    58  ARG58      -0.2867
     74  CB        55.4460    5.2710   15.9150 C.3    58  ARG58       0.0307
     75  CG        54.7850    5.4750   14.5740 C.3    58  ARG58       0.0489
     76  CD        55.2950    4.4910   13.5400 C.3    58  ARG58       0.2205
     77  NE        54.9130    4.9470   12.2080 N.pl3  58  ARG58      -0.0865
     78  CZ        54.9910    4.2220   11.1000 C.cat  58  ARG58       0.5346
     79  NH1       55.4390    2.9740   11.1450 N.pl3  58  ARG58       0.1354
     80  NH2       54.6080    4.7560    9.9400 N.pl3  58  ARG58       0.1354
     81  N         47.7970    4.6330   13.3970 N.3    64  ARG64      -0.1245
     82  CA        46.7020    4.8250   12.4690 C.3    64  ARG64       0.1563
     83  C         45.3680    4.3800   13.0590 C.2    64  ARG64       0.2260
     84  O         45.3370    3.5300   13.9460 O.2    64  ARG64      -0.2867
     85  CB        47.0460    4.1070   11.1490 C.3    64  ARG64       0.0307
     86  CG        46.0100    3.1680   10.5970 C.3    64  ARG64       0.0489
     87  CD        46.5640    2.5330    9.3290 C.3    64  ARG64       0.2205
     88  NE        47.3390    3.5050    8.5620 N.pl3  64  ARG64      -0.0865
     89  CZ        48.5040    3.2490    7.9740 C.cat  64  ARG64       0.5346
     90  NH1       49.0390    2.0380    8.0520 N.pl3  64  ARG64       0.1354
     91  NH2       49.1340    4.2030    7.2990 N.pl3  64  ARG64       0.1354
     92  N         52.0190    3.5460   -2.0420 N.3   118  ASP118     -0.1239
     93  CA        53.3970    3.7990   -1.6500 C.3   118  ASP118      0.1674
     94  C         54.3480    2.5970   -1.6690 C.2   118  ASP118      0.2266
     95  O         55.4100    2.6320   -1.0490 O.2   118  ASP118     -0.2867
     96  CB        53.4290    4.4480   -0.2740 C.3   118  ASP118      0.1410
     97  CG        53.5530    3.4390    0.8350 C.2   118  ASP118      0.3668
     98  OD1       54.3340    3.7370    1.7560 O.co2 118  ASP118     -0.2456
     99  OD2       52.9070    2.3520    0.7810 O.co2 118  ASP118     -0.2456
    100  N         62.7410   -1.1150    9.7290 N.3   231  LYS231     -0.1245
    101  CA        62.2130    0.1580    9.2480 C.3   231  LYS231      0.1561
    102  C         62.5140    1.1560   10.3520 C.2   231  LYS231      0.2260
    103  O         62.6560    0.7580   11.5070 O.2   231  LYS231     -0.2867
    104  CB        60.6890    0.0730    9.0120 C.3   231  LYS231      0.0271
    105  CG        60.2230   -0.4450    7.6280 C.3   231  LYS231      0.0035
    106  CD        58.7850    0.0630    7.2970 C.3   231  LYS231      0.0206
    107  CE        58.4770    0.1740    5.7810 C.3   231  LYS231      0.1093
    108  NZ        58.3000    1.6100    5.2560 N.3   231  LYS231     -0.1314
@<TRIPOS>BOND
     1    92    93    1
     2    41    40   ar
     3    41    39   ar
     4    94    93    1
     5    94    95    2
     6    93    96    1
     7    15    16    1
     8    15    14    1
     9    40    38   ar
    10    39    37   ar
    11    14    13    1
    12    96    97    1
    13    38    36   ar
    14     1     2    1
    15    37    36   ar
    16     2     3    1
    17     2     5    1
    18    99    97   ar
    19    13    10    1
    20    36    35    1
    21    97    98   ar
    22     9     3   am
    23     9    10    1
    24    50    52   ar
    25    50    48   ar
    26    52    51   ar
    27     3     4    2
    28    10    11    1
    29     5     6    1
    30    48    47   ar
    31    35    32    1
    32    51    49   ar
    33     8     6   ar
    34     6     7   ar
    35    11    12    2
    36    11    17   am
    37    34    33    2
    38    47    49   ar
    39    47    46    1
    40    32    33    1
    41    32    31    1
    42    33    42   am
    43    43    42    1
    44    43    46    1
    45    43    44    1
    46    17    18    1
    47    45    44    2
    48    31    27   am
    49    20    19    2
    50    18    19    1
    51    18    21    1
    52   108   107    1
    53    19    25   am
    54    27    28    2
    55    27    26    1
    56    23    22   ar
    57    22    24   ar
    58    22    21    1
    59   107   106    1
    60    25    26    1
    61    26    29    1
    62   106   105    1
    63    91    89    1
    64    57    54    1
    65   105   104    1
    66    89    90    1
    67    89    88    2
    68    29    30    1
    69    88    87    1
    70    54    53    1
    71    54    55    1
    72   104   101    1
    73   101   100    1
    74   101   102    1
    75    87    86    1
    76    69    68    1
    77    66    68   ar
    78    66    64   ar
    79    80    78    1
    80    55    56    2
    81    68    67   ar
    82   102   103    2
    83    86    85    1
    84    64    63   ar
    85    78    79    1
    86    78    77    2
    87    85    82    1
    88    67    65   ar
    89    63    65   ar
    90    63    62    1
    91    77    76    1
    92    82    83    1
    93    82    81    1
    94    58    59    1
    95    62    59    1
    96    83    84    2
    97    59    60    1
    98    76    75    1
    99    75    74    1
   100    60    61    2
   101    74    71    1
   102    70    71    1
   103    71    72    1
   104    72    73    2
