@<TRIPOS>MOLECULE
tmp/4ecwA00.pdb
 156 150 0 0 0
SMALL
GASTEIGER

@<TRIPOS>ATOM
      1  N         59.0300    0.1610    0.0110 N.3    16  ASP16      -0.1225
      2  CA        57.8860    0.7240    0.7800 C.3    16  ASP16       0.1805
      3  C         58.2960    2.1170    1.3400 C.2    16  ASP16       0.2598
      4  O         59.2200    2.1930    2.1320 O.2    16  ASP16      -0.2718
      5  CB        57.5810   -0.2430    1.9270 C.3    16  ASP16       0.1424
      6  CG        56.1490   -0.1760    2.3870 C.2    16  ASP16       0.3668
      7  OD1       55.7130    0.9160    2.7750 O.co2  16  ASP16      -0.2456
      8  OD2       55.4580   -1.2190    2.3540 O.co2  16  ASP16      -0.2456
      9  N         57.5830    3.1940    0.9760 N.am   17  MET17      -0.1965
     10  CA        57.9340    4.5430    1.4810 C.3    17  MET17       0.1736
     11  C         57.6790    4.5670    2.9780 C.2    17  MET17       0.2616
     12  O         56.7140    3.9960    3.4410 O.2    17  MET17      -0.2715
     13  CB        57.0980    5.6410    0.8050 C.3    17  MET17       0.0427
     14  CG        57.1420    5.6140   -0.7210 C.3    17  MET17       0.0599
     15  SD        58.8410    5.5610   -1.3370 S.3    17  MET17      -0.1393
     16  CE        59.4840    7.1270   -0.7950 C.3    17  MET17       0.0692
     17  N         58.5420    5.2190    3.7410 N.am   18  ASP18      -0.1957
     18  CA        58.3280    5.3050    5.1780 C.3    18  ASP18       0.1840
     19  C         57.2450    6.3490    5.4760 C.2    18  ASP18       0.2622
     20  O         57.2430    7.4230    4.8730 O.2    18  ASP18      -0.2715
     21  CB        59.6150    5.7260    5.8870 C.3    18  ASP18       0.1450
     22  CG        60.7340    4.6880    5.7770 C.2    18  ASP18       0.3671
     23  OD1       60.4660    3.4730    5.6950 O.co2  18  ASP18      -0.2456
     24  OD2       61.9010    5.1000    5.8200 O.co2  18  ASP18      -0.2456
     25  N         56.3550    6.0440    6.4180 N.am   19  CYS19      -0.1954
     26  CA        55.2500    6.9350    6.7930 C.3    19  CYS19       0.1843
     27  C         54.9040    7.9110    5.6710 C.2    19  CYS19       0.2625
     28  O         55.0760    9.1200    5.8120 O.2    19  CYS19      -0.2714
     29  CB        55.5630    7.6910    8.0980 C.3    19  CYS19       0.0997
     30  SG        57.1070    8.6070    8.1690 S.3    19  CYS19      -0.0797
     31  N         54.3980    7.3770    4.5680 N.am   20  PHE20      -0.1960
     32  CA        54.3980    8.1030    3.3050 C.3    20  PHE20       0.1771
     33  C         53.6800    9.4570    3.3310 C.2    20  PHE20       0.2619
     34  O         54.2740   10.4770    2.9980 O.2    20  PHE20      -0.2715
     35  CB        53.8910    7.2210    2.1590 C.3    20  PHE20       0.0574
     36  CG        53.9420    7.8890    0.8220 C.ar   20  PHE20      -0.0200
     37  CD1       55.1070    8.5140    0.3880 C.ar   20  PHE20      -0.0042
     38  CD2       52.8260    7.9100    0.0030 C.ar   20  PHE20      -0.0042
     39  CE1       55.1590    9.1430   -0.8560 C.ar   20  PHE20      -0.0003
     40  CE2       52.8660    8.5330   -1.2350 C.ar   20  PHE20      -0.0003
     41  CZ        54.0320    9.1470   -1.6690 C.ar   20  PHE20      -0.0000
     42  N         52.4180    9.4850    3.7350 N.am   21  PHE21      -0.1974
     43  CA        51.6830   10.7470    3.6760 C.3    21  PHE21       0.1639
     44  C         52.3380   11.8160    4.5560 C.2    21  PHE21       0.2290
     45  O         52.2900   13.0030    4.2490 O.2    21  PHE21      -0.2864
     46  CB        50.2310   10.5740    4.1100 C.3    21  PHE21       0.0560
     47  CG        49.3590    9.8840    3.1010 C.ar   21  PHE21      -0.0200
     48  CD1       49.9080    9.1980    2.0280 C.ar   21  PHE21      -0.0042
     49  CD2       47.9790    9.9200    3.2360 C.ar   21  PHE21      -0.0042
     50  CE1       49.0970    8.5630    1.1030 C.ar   21  PHE21      -0.0003
     51  CE2       47.1520    9.2960    2.3030 C.ar   21  PHE21      -0.0003
     52  CZ        47.7210    8.6120    1.2320 C.ar   21  PHE21      -0.0000
     53  N         42.4330   13.0980    8.5840 N.3    41  GLN41      -0.1245
     54  CA        41.3480   13.5570    7.7040 C.3    41  GLN41       0.1566
     55  C         40.0980   13.9360    8.4870 C.2    41  GLN41       0.2260
     56  O         39.7130   13.2440    9.4320 O.2    41  GLN41      -0.2867
     57  CB        41.0460   12.5800    6.5460 C.3    41  GLN41       0.0367
     58  CG        40.9380   11.1230    6.9120 C.3    41  GLN41       0.0905
     59  CD        40.8160   10.1870    5.6880 C.2    41  GLN41       0.2608
     60  OE1       41.1480   10.5470    4.5520 O.2    41  GLN41      -0.2717
     61  NE2       40.3410    8.9800    5.9360 N.am   41  GLN41      -0.0878
     62  N         45.6320    8.8820    9.7020 N.3    51  ILE51      -0.1231
     63  CA        45.8980    7.8800    8.6660 C.3    51  ILE51       0.1692
     64  C         47.3860    7.5930    8.3880 C.2    51  ILE51       0.2591
     65  O         47.7090    6.6120    7.7200 O.2    51  ILE51      -0.2718
     66  CB        45.1510    8.1840    7.3610 C.3    51  ILE51       0.0266
     67  CG1       45.5550    9.5390    6.7850 C.3    51  ILE51       0.0019
     68  CG2       43.6400    8.1140    7.5830 C.3    51  ILE51       0.0020
     69  CD1       45.0790    9.7010    5.3390 C.3    51  ILE51       0.0001
     70  N         48.2790    8.4330    8.9140 N.am   52  ALA52      -0.1980
     71  CA        49.7320    8.1980    8.8190 C.3    52  ALA52       0.1597
     72  C         50.4500    8.8300   10.0030 C.2    52  ALA52       0.2287
     73  O         50.0260    9.8740   10.4870 O.2    52  ALA52      -0.2864
     74  CB        50.2790    8.7510    7.5090 C.3    52  ALA52       0.0319
     75  N         57.6940    8.3310   12.5870 N.3    55  TYR55      -0.1241
     76  CA        58.3410    7.4260   13.5260 C.3    55  TYR55       0.1605
     77  C         58.5450    8.0500   14.9170 C.2    55  TYR55       0.2264
     78  O         58.4230    7.3600   15.9170 O.2    55  TYR55      -0.2867
     79  CB        59.6170    6.8110   12.9210 C.3    55  TYR55       0.0534
     80  CG        59.2400    5.7170   11.9480 C.ar   55  TYR55      -0.0201
     81  CD1       58.7860    6.0220   10.6650 C.ar   55  TYR55      -0.0009
     82  CD2       59.2570    4.3870   12.3340 C.ar   55  TYR55      -0.0009
     83  CE1       58.3870    5.0170    9.7880 C.ar   55  TYR55       0.0417
     84  CE2       58.8720    3.3840   11.4750 C.ar   55  TYR55       0.0417
     85  CZ        58.4400    3.6940   10.2040 C.ar   55  TYR55       0.1957
     86  OH        58.0620    2.6770    9.3580 O.3    55  TYR55      -0.2866
     87  N         55.1700    7.6030   16.6500 N.3    58  ARG58      -0.1245
     88  CA        54.9210    6.1950   17.0010 C.3    58  ARG58       0.1563
     89  C         55.5440    5.8050   18.3370 C.2    58  ARG58       0.2260
     90  O         55.0010    4.9630   19.0610 O.2    58  ARG58      -0.2867
     91  CB        55.4460    5.2710   15.9150 C.3    58  ARG58       0.0307
     92  CG        54.7850    5.4750   14.5740 C.3    58  ARG58       0.0489
     93  CD        55.2950    4.4910   13.5400 C.3    58  ARG58       0.2205
     94  NE        54.9130    4.9470   12.2080 N.pl3  58  ARG58      -0.0865
     95  CZ        54.9910    4.2220   11.1000 C.cat  58  ARG58       0.5346
     96  NH1       55.4390    2.9740   11.1450 N.pl3  58  ARG58       0.1354
     97  NH2       54.6080    4.7560    9.9400 N.pl3  58  ARG58       0.1354
     98  N         47.7970    4.6330   13.3970 N.3    64  ARG64      -0.1245
     99  CA        46.7020    4.8250   12.4690 C.3    64  ARG64       0.1563
    100  C         45.3680    4.3800   13.0590 C.2    64  ARG64       0.2260
    101  O         45.3370    3.5300   13.9460 O.2    64  ARG64      -0.2867
    102  CB        47.0460    4.1070   11.1490 C.3    64  ARG64       0.0307
    103  CG        46.0100    3.1680   10.5970 C.3    64  ARG64       0.0489
    104  CD        46.5640    2.5330    9.3290 C.3    64  ARG64       0.2205
    105  NE        47.3390    3.5050    8.5620 N.pl3  64  ARG64      -0.0865
    106  CZ        48.5040    3.2490    7.9740 C.cat  64  ARG64       0.5346
    107  NH1       49.0390    2.0380    8.0520 N.pl3  64  ARG64       0.1354
    108  NH2       49.1340    4.2030    7.2990 N.pl3  64  ARG64       0.1354
    109  N         42.7130   13.0440   -2.1010 N.3    92  LEU92      -0.1245
    110  CA        44.0500   12.4810   -1.9190 C.3    92  LEU92       0.1561
    111  C         45.0080   12.7440   -3.0840 C.2    92  LEU92       0.2260
    112  O         46.0480   12.0880   -3.2050 O.2    92  LEU92      -0.2867
    113  CB        43.9570   10.9700   -1.6660 C.3    92  LEU92       0.0270
    114  CG        43.0230   10.5200   -0.5380 C.3    92  LEU92       0.0019
    115  CD1       42.8870    9.0120   -0.5520 C.3    92  LEU92       0.0001
    116  CD2       43.5610   11.0040    0.8090 C.3    92  LEU92       0.0001
    117  N         50.5230   -0.5940   -4.1610 N.3   116  SER116     -0.1202
    118  CA        49.6850    0.3490   -3.4300 C.3   116  SER116      0.2020
    119  C         50.2200    1.7430   -3.6950 C.2   116  SER116      0.2619
    120  O         51.2240    1.9010   -4.3870 O.2   116  SER116     -0.2717
    121  CB        49.7330    0.0800   -1.9240 C.3   116  SER116      0.2103
    122  OG        50.9840    0.4910   -1.3830 O.3   116  SER116     -0.2182
    123  N         49.5650    2.7560   -3.1320 N.am  117  ILE117     -0.1965
    124  CA        50.0070    4.1330   -3.3260 C.3   117  ILE117      0.1727
    125  C         51.4760    4.3550   -2.9470 C.2   117  ILE117      0.2616
    126  O         52.1300    5.2490   -3.4800 O.2   117  ILE117     -0.2715
    127  CB        49.1310    5.1300   -2.5350 C.3   117  ILE117      0.0290
    128  CG1       49.3310    6.5500   -3.0460 C.3   117  ILE117      0.0022
    129  CG2       49.4450    5.0600   -1.0600 C.3   117  ILE117      0.0023
    130  CD1       48.1950    7.4900   -2.6280 C.3   117  ILE117      0.0001
    131  N         52.0190    3.5460   -2.0420 N.am  118  ASP118     -0.1957
    132  CA        53.3970    3.7990   -1.6500 C.3   118  ASP118      0.1840
    133  C         54.3480    2.5970   -1.6690 C.2   118  ASP118      0.2621
    134  O         55.4100    2.6320   -1.0490 O.2   118  ASP118     -0.2715
    135  CB        53.4290    4.4480   -0.2740 C.3   118  ASP118      0.1450
    136  CG        53.5530    3.4390    0.8350 C.2   118  ASP118      0.3671
    137  OD1       54.3340    3.7370    1.7560 O.co2 118  ASP118     -0.2456
    138  OD2       52.9070    2.3520    0.7810 O.co2 118  ASP118     -0.2456
    139  N         53.9950    1.5450   -2.3840 N.am  119  GLU119     -0.1977
    140  CA        54.9320    0.4390   -2.5190 C.3   119  GLU119      0.1602
    141  C         54.8600   -0.2220   -3.8840 C.2   119  GLU119      0.2287
    142  O         53.8130   -0.2250   -4.5430 O.2   119  GLU119     -0.2864
    143  CB        54.7520   -0.5860   -1.4060 C.3   119  GLU119      0.0415
    144  CG        53.4530   -1.3130   -1.4280 C.3   119  GLU119      0.1163
    145  CD        53.0880   -1.8400   -0.0560 C.2   119  GLU119      0.3649
    146  OE1       53.4910   -2.9750    0.2740 O.co2 119  GLU119     -0.2457
    147  OE2       52.4200   -1.1050    0.6980 O.co2 119  GLU119     -0.2457
    148  N         62.7410   -1.1150    9.7290 N.3   231  LYS231     -0.1245
    149  CA        62.2130    0.1580    9.2480 C.3   231  LYS231      0.1561
    150  C         62.5140    1.1560   10.3520 C.2   231  LYS231      0.2260
    151  O         62.6560    0.7580   11.5070 O.2   231  LYS231     -0.2867
    152  CB        60.6890    0.0730    9.0120 C.3   231  LYS231      0.0271
    153  CG        60.2230   -0.4450    7.6280 C.3   231  LYS231      0.0035
    154  CD        58.7850    0.0630    7.2970 C.3   231  LYS231      0.0206
    155  CE        58.4770    0.1740    5.7810 C.3   231  LYS231      0.1093
    156  NZ        58.3000    1.6100    5.2560 N.3   231  LYS231     -0.1314
@<TRIPOS>BOND
     1   142   141    2
     2   120   119    2
     3   117   118    1
     4   141   140    1
     5   119   118    1
     6   119   123   am
     7   126   125    2
     8   118   121    1
     9   124   123    1
    10   124   125    1
    11   124   127    1
    12   112   111    2
    13   111   110    1
    14   128   130    1
    15   128   127    1
    16   125   131   am
    17   127   129    1
    18   140   139    1
    19   140   143    1
    20   139   133   am
    21   109   110    1
    22   131   132    1
    23   121   122    1
    24   110   113    1
    25    41    40   ar
    26    41    39   ar
    27   133   132    1
    28   133   134    2
    29   113   114    1
    30   132   135    1
    31   144   143    1
    32   144   145    1
    33    15    16    1
    34    15    14    1
    35    40    38   ar
    36    39    37   ar
    37    14    13    1
    38   115   114    1
    39   114   116    1
    40   135   136    1
    41   145   146   ar
    42   145   147   ar
    43    38    36   ar
    44     1     2    1
    45    37    36   ar
    46     2     3    1
    47     2     5    1
    48   138   136   ar
    49    13    10    1
    50    36    35    1
    51   136   137   ar
    52     9     3   am
    53     9    10    1
    54    50    52   ar
    55    50    48   ar
    56    52    51   ar
    57     3     4    2
    58    10    11    1
    59     5     6    1
    60    48    47   ar
    61    35    32    1
    62    51    49   ar
    63     8     6   ar
    64     6     7   ar
    65    11    12    2
    66    11    17   am
    67    34    33    2
    68    47    49   ar
    69    47    46    1
    70    32    33    1
    71    32    31    1
    72    33    42   am
    73    43    42    1
    74    43    46    1
    75    43    44    1
    76    17    18    1
    77    45    44    2
    78    60    59    2
    79    31    27   am
    80    20    19    2
    81    18    19    1
    82    18    21    1
    83   156   155    1
    84    69    67    1
    85    19    25   am
    86    27    28    2
    87    27    26    1
    88    59    61   am
    89    59    58    1
    90    23    22   ar
    91    22    24   ar
    92    22    21    1
    93   155   154    1
    94    25    26    1
    95    57    58    1
    96    57    54    1
    97    67    66    1
    98    26    29    1
    99   154   153    1
   100   108   106    1
   101    66    68    1
   102    66    63    1
   103    74    71    1
   104   153   152    1
   105    54    55    1
   106    54    53    1
   107    65    64    2
   108   106   107    1
   109   106   105    2
   110    29    30    1
   111    64    63    1
   112    64    70   am
   113    55    56    2
   114   105   104    1
   115    63    62    1
   116    71    70    1
   117    71    72    1
   118   152   149    1
   119   149   148    1
   120   149   150    1
   121   104   103    1
   122    86    85    1
   123    83    85   ar
   124    83    81   ar
   125    97    95    1
   126    72    73    2
   127    85    84   ar
   128   150   151    2
   129   103   102    1
   130    81    80   ar
   131    95    96    1
   132    95    94    2
   133   102    99    1
   134    84    82   ar
   135    80    82   ar
   136    80    79    1
   137    94    93    1
   138    99   100    1
   139    99    98    1
   140    75    76    1
   141    79    76    1
   142   100   101    2
   143    76    77    1
   144    93    92    1
   145    92    91    1
   146    77    78    2
   147    91    88    1
   148    87    88    1
   149    88    89    1
   150    89    90    2
