@<TRIPOS>MOLECULE
tmp/4ed0A00.pdb
 122 118 0 0 0
SMALL
GASTEIGER

@<TRIPOS>ATOM
      1  N         50.0040  -15.0060   10.7590 N.3   251  ARG251     -0.1245
      2  CA        49.3090  -13.7990   10.3060 C.3   251  ARG251      0.1563
      3  C         50.2420  -12.7490    9.7040 C.2   251  ARG251      0.2260
      4  O         49.7850  -11.7810    9.0760 O.2   251  ARG251     -0.2867
      5  CB        48.5300  -13.1580   11.4520 C.3   251  ARG251      0.0307
      6  CG        49.4140  -12.6330   12.5430 C.3   251  ARG251      0.0489
      7  CD        48.5960  -11.9620   13.6560 C.3   251  ARG251      0.2205
      8  NE        49.4740  -11.4710   14.7190 N.pl3 251  ARG251     -0.0865
      9  CZ        49.8650  -12.2000   15.7580 C.cat 251  ARG251      0.5346
     10  NH1       49.4490  -13.4570   15.8860 N.pl3 251  ARG251      0.1354
     11  NH2       50.6690  -11.6690   16.6700 N.pl3 251  ARG251      0.1354
     12  N         52.3790  -13.1810    7.3220 N.3   253  ILE253     -0.1231
     13  CA        52.6790  -13.4350    5.9120 C.3   253  ILE253      0.1692
     14  C         51.5550  -12.8550    5.0740 C.2   253  ILE253      0.2592
     15  O         50.3850  -13.0420    5.3940 O.2   253  ILE253     -0.2718
     16  CB        52.8260  -14.9470    5.6430 C.3   253  ILE253      0.0266
     17  CG1       54.1900  -15.4400    6.1360 C.3   253  ILE253      0.0019
     18  CG2       52.6910  -15.2760    4.1520 C.3   253  ILE253      0.0020
     19  CD1       54.4010  -15.2840    7.6170 C.3   253  ILE253      0.0001
     20  N         51.8990  -12.1450    4.0060 N.am  254  ARG254     -0.1966
     21  CA        50.8750  -11.4790    3.2050 C.3   254  ARG254      0.1729
     22  C         49.8530  -12.4790    2.6520 C.2   254  ARG254      0.2616
     23  O         50.2260  -13.4920    2.0350 O.2   254  ARG254     -0.2715
     24  CB        51.5050  -10.6690    2.0640 C.3   254  ARG254      0.0348
     25  CG        50.5180   -9.7810    1.3220 C.3   254  ARG254      0.0492
     26  CD        51.1630   -9.1110    0.1080 C.3   254  ARG254      0.2205
     27  NE        50.2550   -8.1390   -0.5050 N.pl3 254  ARG254     -0.0865
     28  CZ        49.2830   -8.4640   -1.3550 C.cat 254  ARG254      0.5346
     29  NH1       49.0950   -9.7350   -1.6930 N.pl3 254  ARG254      0.1354
     30  NH2       48.4990   -7.5210   -1.8620 N.pl3 254  ARG254      0.1354
     31  N         48.5760  -12.1730    2.8990 N.am  255  SER255     -0.1950
     32  CA        47.3950  -12.9710    2.5040 C.3   255  SER255      0.1924
     33  C         46.8810  -13.8830    3.6240 C.2   255  SER255      0.2314
     34  O         45.7870  -14.4450    3.5260 O.2   255  SER255     -0.2863
     35  CB        47.6160  -13.7710    1.2090 C.3   255  SER255      0.2116
     36  OG        48.2020  -15.0380    1.4580 O.3   255  SER255     -0.2180
     37  N         46.6580  -12.7150    6.8750 N.3   257  GLY257     -0.1210
     38  CA        46.3480  -11.8520    8.0020 C.3   257  GLY257      0.1956
     39  C         44.8830  -11.8210    8.4040 C.2   257  GLY257      0.2612
     40  O         44.5230  -11.1400    9.3660 O.2   257  GLY257     -0.2717
     41  N         44.0450  -12.5460    7.6660 N.am  258  GLY258     -0.1942
     42  CA        42.6090  -12.5370    7.8970 C.3   258  GLY258      0.2014
     43  C         42.0260  -13.8940    8.2380 C.2   258  GLY258      0.2639
     44  O         42.6110  -14.6630    9.0100 O.2   258  GLY258     -0.2714
     45  N         40.8710  -14.2030    7.6500 N.am  259  LYS259     -0.1963
     46  CA        40.1570  -15.4310    7.9850 C.3   259  LYS259      0.1728
     47  C         40.8910  -16.7160    7.5960 C.2   259  LYS259      0.2616
     48  O         40.8770  -17.6790    8.3640 O.2   259  LYS259     -0.2715
     49  CB        38.7340  -15.4110    7.4020 C.3   259  LYS259      0.0311
     50  CG        37.8300  -14.3810    8.0670 C.3   259  LYS259      0.0038
     51  CD        36.4860  -14.2520    7.3540 C.3   259  LYS259      0.0206
     52  CE        35.5800  -13.2600    8.0770 C.3   259  LYS259      0.1093
     53  NZ        34.2740  -13.0730    7.3760 N.3   259  LYS259     -0.1314
     54  N         41.5270  -16.7470    6.4260 N.am  260  LEU260     -0.1977
     55  CA        42.2640  -17.9440    6.0330 C.3   260  LEU260      0.1596
     56  C         43.3530  -18.2430    7.0650 C.2   260  LEU260      0.2287
     57  O         43.4590  -19.3740    7.5580 O.2   260  LEU260     -0.2864
     58  CB        42.8910  -17.7950    4.6500 C.3   260  LEU260      0.0297
     59  CG        43.7920  -18.9390    4.1680 C.3   260  LEU260      0.0022
     60  CD1       43.0220  -20.2500    4.1470 C.3   260  LEU260      0.0001
     61  CD2       44.3520  -18.6320    2.7780 C.3   260  LEU260      0.0001
     62  N         28.2040   -5.2750    6.6490 N.3   375  ARG375     -0.1231
     63  CA        29.0910   -5.3460    5.4930 C.3   375  ARG375      0.1694
     64  C         29.4440   -3.9480    5.0060 C.2   375  ARG375      0.2592
     65  O         28.5960   -3.0540    5.0070 O.2   375  ARG375     -0.2718
     66  CB        28.4240   -6.1250    4.3630 C.3   375  ARG375      0.0321
     67  CG        28.0250   -7.5400    4.7340 C.3   375  ARG375      0.0489
     68  CD        27.2300   -8.1760    3.6120 C.3   375  ARG375      0.2205
     69  NE        25.9730   -7.4740    3.3650 N.pl3 375  ARG375     -0.0865
     70  CZ        25.2300   -7.6480    2.2770 C.cat 375  ARG375      0.5346
     71  NH1       25.6270   -8.4930    1.3350 N.pl3 375  ARG375      0.1354
     72  NH2       24.0960   -6.9760    2.1250 N.pl3 375  ARG375      0.1354
     73  N         30.6930   -3.7610    4.5880 N.am  376  LEU376     -0.1966
     74  CA        31.1380   -2.4640    4.0900 C.3   376  LEU376      0.1728
     75  C         30.3520   -2.0230    2.8550 C.2   376  LEU376      0.2617
     76  O         30.0870   -0.8360    2.6730 O.2   376  LEU376     -0.2715
     77  CB        32.6430   -2.4680    3.8060 C.3   376  LEU376      0.0311
     78  CG        33.5650   -2.1900    4.9990 C.3   376  LEU376      0.0022
     79  CD1       33.4620   -3.2920    6.0440 C.3   376  LEU376      0.0001
     80  CD2       35.0090   -2.0150    4.5420 C.3   376  LEU376      0.0001
     81  N         29.9810   -2.9750    2.0060 N.am  377  SER377     -0.1936
     82  CA        29.1360   -2.6630    0.8560 C.3   377  SER377      0.2055
     83  C         27.8620   -3.4810    0.8650 C.2   377  SER377      0.2644
     84  O         27.8900   -4.6860    1.1060 O.2   377  SER377     -0.2714
     85  CB        29.8680   -2.8950   -0.4640 C.3   377  SER377      0.2130
     86  OG        28.9400   -2.8810   -1.5430 O.3   377  SER377     -0.2179
     87  N         26.7450   -2.8220    0.5770 N.am  378  SER378     -0.1935
     88  CA        25.4470   -3.4870    0.5810 C.3   378  SER378      0.2055
     89  C         25.0090   -3.8870   -0.8220 C.2   378  SER378      0.2643
     90  O         24.4040   -4.9410   -1.0140 O.2   378  SER378     -0.2714
     91  CB        24.3820   -2.5850    1.2190 C.3   378  SER378      0.2130
     92  OG        24.6610   -2.3520    2.5900 O.3   378  SER378     -0.2179
     93  N         25.3170   -3.0410   -1.8000 N.am  379  LEU379     -0.1963
     94  CA        24.8570   -3.2500   -3.1660 C.3   379  LEU379      0.1728
     95  C         25.8230   -2.6430   -4.1770 C.2   379  LEU379      0.2616
     96  O         26.3090   -1.5280   -3.9940 O.2   379  LEU379     -0.2715
     97  CB        23.4630   -2.6510   -3.3520 C.3   379  LEU379      0.0311
     98  CG        22.8390   -2.7590   -4.7450 C.3   379  LEU379      0.0022
     99  CD1       21.3900   -3.2070   -4.6510 C.3   379  LEU379      0.0001
    100  CD2       22.9470   -1.4430   -5.4930 C.3   379  LEU379      0.0001
    101  N         26.0990   -3.3820   -5.2440 N.am  380  ARG380     -0.1963
    102  CA        27.0050   -2.8990   -6.2730 C.3   380  ARG380      0.1729
    103  C         26.3920   -3.1750   -7.6370 C.2   380  ARG380      0.2616
    104  O         25.9900   -4.3020   -7.9330 O.2   380  ARG380     -0.2715
    105  CB        28.3630   -3.5880   -6.1610 C.3   380  ARG380      0.0348
    106  CG        29.5080   -2.7820   -6.7360 C.3   380  ARG380      0.0492
    107  CD        30.5910   -3.6770   -7.3170 C.3   380  ARG380      0.2205
    108  NE        30.1430   -4.3410   -8.5380 N.pl3 380  ARG380     -0.0865
    109  CZ        30.9560   -4.7910   -9.4900 C.cat 380  ARG380      0.5346
    110  NH1       30.4530   -5.3790  -10.5640 N.pl3 380  ARG380      0.1354
    111  NH2       32.2700   -4.6460   -9.3740 N.pl3 380  ARG380      0.1354
    112  N         26.2910   -2.1350   -8.4520 N.am  381  ARG381     -0.1977
    113  CA        25.7250   -2.2690   -9.7870 C.3   381  ARG381      0.1597
    114  C         26.6130   -1.5470  -10.7910 C.2   381  ARG381      0.2287
    115  O         27.2110   -0.5200  -10.4780 O.2   381  ARG381     -0.2864
    116  CB        24.3210   -1.6780   -9.8300 C.3   381  ARG381      0.0334
    117  CG        23.3180   -2.3530   -8.9190 C.3   381  ARG381      0.0492
    118  CD        22.8430   -3.6610   -9.5090 C.3   381  ARG381      0.2205
    119  NE        21.6800   -4.1910   -8.8040 N.pl3 381  ARG381     -0.0865
    120  CZ        21.7390   -5.0650   -7.8070 C.cat 381  ARG381      0.5346
    121  NH1       22.9140   -5.5210   -7.3860 N.pl3 381  ARG381      0.1354
    122  NH2       20.6190   -5.4910   -7.2350 N.pl3 381  ARG381      0.1354
@<TRIPOS>BOND
     1   114   115    2
     2   114   113    1
     3   110   109    1
     4   116   113    1
     5   116   117    1
     6   113   112    1
     7   118   117    1
     8   118   119    1
     9   109   111    1
    10   109   108    2
    11   119   120    2
    12   108   107    1
    13   112   103   am
    14   104   103    2
    15   120   121    1
    16   120   122    1
    17   103   102    1
    18   107   106    1
    19   106   105    1
    20   102   105    1
    21   102   101    1
    22   100    98    1
    23   101    95   am
    24    98    99    1
    25    98    97    1
    26    95    96    2
    27    95    94    1
    28    97    94    1
    29    94    93    1
    30    30    28    1
    31    93    89   am
    32    29    28    1
    33    86    85    1
    34    28    27    2
    35    90    89    2
    36    89    88    1
    37    27    26    1
    38    85    82    1
    39    26    25    1
    40    87    88    1
    41    87    83   am
    42    88    91    1
    43    82    83    1
    44    82    81    1
    45    83    84    2
    46    35    36    1
    47    35    32    1
    48    91    92    1
    49    25    24    1
    50    71    70    1
    51    81    75   am
    52    23    22    2
    53    24    21    1
    54    72    70    1
    55    70    69    2
    56    32    31    1
    57    32    33    1
    58    22    31   am
    59    22    21    1
    60    76    75    2
    61    61    59    1
    62    75    74    1
    63    21    20    1
    64    69    68    1
    65    34    33    2
    66    68    67    1
    67    77    74    1
    68    77    78    1
    69    20    14   am
    70    74    73    1
    71    60    59    1
    72    18    16    1
    73    59    58    1
    74    66    67    1
    75    66    63    1
    76    80    78    1
    77    73    64   am
    78    58    55    1
    79    78    79    1
    80    64    65    2
    81    64    63    1
    82    14    15    2
    83    14    13    1
    84    63    62    1
    85    16    13    1
    86    16    17    1
    87    13    12    1
    88    55    54    1
    89    55    56    1
    90    17    19    1
    91    54    47   am
    92    37    38    1
    93    56    57    2
    94    51    50    1
    95    51    52    1
    96    53    52    1
    97    49    46    1
    98    49    50    1
    99    47    46    1
   100    47    48    2
   101    45    46    1
   102    45    43   am
   103    41    42    1
   104    41    39   am
   105    42    43    1
   106    38    39    1
   107    43    44    2
   108    39    40    2
   109     4     3    2
   110     3     2    1
   111     2     1    1
   112     2     5    1
   113     5     6    1
   114     6     7    1
   115     7     8    1
   116     8     9    2
   117     9    10    1
   118     9    11    1
