@<TRIPOS>MOLECULE
tmp/4ed5A00.pdb
 81 79 0 0 0
SMALL
GASTEIGER

@<TRIPOS>ATOM
      1  N        -11.9950   -6.5980    1.1780 N.3     9  TYR9       -0.1241
      2  CA       -10.7060   -7.3050    1.0670 C.3     9  TYR9        0.1605
      3  C        -10.3560   -8.0570    2.3540 C.2     9  TYR9        0.2264
      4  O         -9.2150   -8.0500    2.8060 O.2     9  TYR9       -0.2867
      5  CB        -9.5700   -6.3680    0.6180 C.3     9  TYR9        0.0534
      6  CG       -10.0020   -5.5120   -0.5450 C.ar    9  TYR9       -0.0201
      7  CD1      -10.3440   -6.1030   -1.7640 C.ar    9  TYR9       -0.0009
      8  CD2      -10.1540   -4.1340   -0.4090 C.ar    9  TYR9       -0.0009
      9  CE1      -10.7850   -5.3420   -2.8270 C.ar    9  TYR9        0.0417
     10  CE2      -10.5880   -3.3470   -1.4840 C.ar    9  TYR9        0.0417
     11  CZ       -10.8940   -3.9720   -2.6880 C.ar    9  TYR9        0.1957
     12  OH       -11.3350   -3.2320   -3.7600 O.3     9  TYR9       -0.2866
     13  N        -11.8120    3.9360   10.8020 N.3    61  ILE61      -0.1245
     14  CA       -11.3580    4.2170    9.4410 C.3    61  ILE61       0.1561
     15  C         -9.8820    4.6430    9.4550 C.2    61  ILE61       0.2260
     16  O         -9.0620    4.0850    8.7280 O.2    61  ILE61      -0.2867
     17  CB       -12.2020    5.3100    8.7530 C.3    61  ILE61       0.0252
     18  CG1      -13.6430    4.8300    8.5340 C.3    61  ILE61       0.0019
     19  CG2      -11.5490    5.7400    7.4070 C.3    61  ILE61       0.0019
     20  CD1      -14.5580    5.9260    8.0120 C.3    61  ILE61       0.0001
     21  N         -8.2030    1.1790    8.1650 N.3    65  ASN65      -0.1225
     22  CA        -8.0960    1.2470    6.7020 C.3    65  ASN65       0.1785
     23  C         -6.6570    0.9310    6.2750 C.2    65  ASN65       0.2597
     24  O         -5.7040    1.4870    6.8220 O.2    65  ASN65      -0.2718
     25  CB        -8.5060    2.6230    6.1750 C.3    65  ASN65       0.1169
     26  CG        -8.5980    2.6600    4.6640 C.2    65  ASN65       0.2627
     27  OD1       -9.1190    1.7410    4.0420 O.2    65  ASN65      -0.2716
     28  ND2       -8.1260    3.7470    4.0680 N.am   65  ASN65      -0.0877
     29  N         -6.5030    0.0250    5.3240 N.am   66  GLY66      -0.1957
     30  CA        -5.1670   -0.3920    4.9120 C.3    66  GLY66       0.1869
     31  C         -4.4710   -1.4320    5.7830 C.2    66  GLY66       0.2309
     32  O         -3.3450   -1.8140    5.4860 O.2    66  GLY66      -0.2863
     33  N         -4.9970   -6.4890    2.0660 N.3    73  THR73      -0.1203
     34  CA        -4.9040   -5.1430    2.6210 C.3    73  THR73       0.1994
     35  C         -6.3350   -4.6380    2.7070 C.2    73  THR73       0.2618
     36  O         -6.9490   -4.3380    1.6780 O.2    73  THR73      -0.2717
     37  CB        -4.0370   -4.2490    1.7200 C.3    73  THR73       0.1784
     38  OG1       -2.7580   -4.8750    1.5540 O.3    73  THR73      -0.2211
     39  CG2       -3.8290   -2.8810    2.3660 C.3    73  THR73       0.0376
     40  N         -6.8910   -4.5830    3.9180 N.am   74  ILE74      -0.1965
     41  CA        -8.3230   -4.2960    4.0330 C.3    74  ILE74       0.1727
     42  C         -8.6360   -2.8450    3.6740 C.2    74  ILE74       0.2616
     43  O         -7.7840   -1.9780    3.7780 O.2    74  ILE74      -0.2715
     44  CB        -8.9310   -4.6610    5.4150 C.3    74  ILE74       0.0290
     45  CG1       -8.3730   -3.7790    6.5300 C.3    74  ILE74       0.0022
     46  CG2       -8.7730   -6.1620    5.7160 C.3    74  ILE74       0.0023
     47  CD1       -9.1230   -3.9430    7.8720 C.3    74  ILE74       0.0001
     48  N         -9.8620   -2.6100    3.2310 N.am   75  LYS75      -0.1963
     49  CA       -10.3650   -1.2680    3.0530 C.3    75  LYS75       0.1728
     50  C        -11.4830   -1.0770    4.0630 C.2    75  LYS75       0.2616
     51  O        -12.3430   -1.9570    4.2290 O.2    75  LYS75      -0.2715
     52  CB       -10.9110   -1.0430    1.6440 C.3    75  LYS75       0.0311
     53  CG       -11.4000    0.4010    1.4410 C.3    75  LYS75       0.0038
     54  CD       -11.9850    0.6540    0.0610 C.3    75  LYS75       0.0206
     55  CE       -12.5420    2.0800   -0.0270 C.3    75  LYS75       0.1093
     56  NZ       -12.8370    2.4490   -1.4260 N.3    75  LYS75      -0.1314
     57  N        -11.4360    0.0520    4.7570 N.am   76  VAL76      -0.1963
     58  CA       -12.4630    0.4340    5.7070 C.3    76  VAL76       0.1727
     59  C        -12.9550    1.8110    5.3080 C.2    76  VAL76       0.2617
     60  O        -12.1570    2.7500    5.2510 O.2    76  VAL76      -0.2715
     61  CB       -11.9050    0.5130    7.1350 C.3    76  VAL76       0.0290
     62  CG1      -13.0130    0.9230    8.1130 C.3    76  VAL76       0.0023
     63  CG2      -11.2900   -0.8200    7.5290 C.3    76  VAL76       0.0023
     64  N        -14.2530    1.9220    5.0380 N.am   77  SER77      -0.1936
     65  CA       -14.8580    3.1660    4.5900 C.3    77  SER77       0.2055
     66  C        -16.3040    3.2440    5.0850 C.2    77  SER77       0.2643
     67  O        -16.8680    2.2410    5.4870 O.2    77  SER77      -0.2714
     68  CB       -14.7890    3.2890    3.0440 C.3    77  SER77       0.2130
     69  OG       -15.4660    2.2170    2.3970 O.3    77  SER77      -0.2179
     70  N        -16.8880    4.4370    5.0910 N.am   78  TYR78      -0.1973
     71  CA       -18.2940    4.5770    5.4560 C.3    78  TYR78       0.1639
     72  C        -19.1800    3.8290    4.4760 C.2    78  TYR78       0.2290
     73  O        -19.0220    3.9750    3.2750 O.2    78  TYR78      -0.2864
     74  CB       -18.7160    6.0560    5.5370 C.3    78  TYR78       0.0560
     75  CG       -18.1360    6.7850    6.7310 C.ar   78  TYR78      -0.0198
     76  CD1      -18.4490    6.4020    8.0400 C.ar   78  TYR78      -0.0009
     77  CD2      -17.2620    7.8590    6.5530 C.ar   78  TYR78      -0.0009
     78  CE1      -17.8900    7.0870    9.1580 C.ar   78  TYR78       0.0417
     79  CE2      -16.7180    8.5500    7.6550 C.ar   78  TYR78       0.0417
     80  CZ       -17.0230    8.1560    8.9420 C.ar   78  TYR78       0.1957
     81  OH       -16.4650    8.8570   10.0010 O.3    78  TYR78      -0.2866
@<TRIPOS>BOND
     1    12    11    1
     2     9    11   ar
     3     9     7   ar
     4    11    10   ar
     5     7     6   ar
     6    10     8   ar
     7    56    55    1
     8     6     8   ar
     9     6     5    1
    10    55    54    1
    11    54    53    1
    12     5     2    1
    13     2     1    1
    14     2     3    1
    15    53    52    1
    16    38    37    1
    17    52    49    1
    18    36    35    2
    19    37    39    1
    20    37    34    1
    21    33    34    1
    22     3     4    2
    23    69    68    1
    24    34    35    1
    25    35    40   am
    26    68    65    1
    27    49    48    1
    28    49    50    1
    29    48    42   am
    30    73    72    2
    31    42    43    2
    32    42    41    1
    33    40    41    1
    34    41    44    1
    35    27    26    2
    36    50    51    2
    37    50    57   am
    38    28    26   am
    39    72    71    1
    40    65    64    1
    41    65    66    1
    42    26    25    1
    43    57    58    1
    44    30    29    1
    45    30    31    1
    46    64    59   am
    47    66    70   am
    48    66    67    2
    49    70    71    1
    50    60    59    2
    51    59    58    1
    52    29    23   am
    53    44    46    1
    54    44    45    1
    55    71    74    1
    56    32    31    2
    57    74    75    1
    58    58    61    1
    59    25    22    1
    60    23    22    1
    61    23    24    2
    62    45    47    1
    63    77    75   ar
    64    77    79   ar
    65    22    21    1
    66    75    76   ar
    67    61    63    1
    68    61    62    1
    69    19    17    1
    70    79    80   ar
    71    20    18    1
    72    76    78   ar
    73    18    17    1
    74    16    15    2
    75    17    14    1
    76    80    78   ar
    77    80    81    1
    78    14    15    1
    79    14    13    1
