@<TRIPOS>MOLECULE
tmp/4edhB01.pdb
 103 99 0 0 0
SMALL
GASTEIGER

@<TRIPOS>ATOM
      1  N         -1.9080   32.1600  -23.6890 N.3    15  GLU15      -0.1231
      2  CA        -2.1140   33.1110  -22.6090 C.3    15  GLU15       0.1699
      3  C         -2.4440   34.5010  -23.1350 C.2    15  GLU15       0.2593
      4  O         -1.7640   35.0150  -24.0390 O.2    15  GLU15      -0.2718
      5  CB        -0.8740   33.1890  -21.7170 C.3    15  GLU15       0.0402
      6  CG        -0.3770   31.8400  -21.2070 C.3    15  GLU15       0.1161
      7  CD        -1.3400   31.1890  -20.2260 C.2    15  GLU15       0.3649
      8  OE1       -1.9930   31.9180  -19.4510 O.co2  15  GLU15      -0.2457
      9  OE2       -1.4430   29.9450  -20.2370 O.co2  15  GLU15      -0.2457
     10  N         -3.4720   35.1050  -22.5600 N.am   16  GLY16      -0.1942
     11  CA        -3.8580   36.4580  -22.8990 C.3    16  GLY16       0.2014
     12  C         -4.5750   36.6160  -24.2230 C.2    16  GLY16       0.2639
     13  O         -4.7750   37.7460  -24.6650 O.2    16  GLY16      -0.2714
     14  N         -4.9740   35.5130  -24.8510 N.am   17  ALA17      -0.1963
     15  CA        -5.6570   35.5850  -26.1370 C.3    17  ALA17       0.1728
     16  C         -7.0220   36.2520  -26.0430 C.2    17  ALA17       0.2617
     17  O         -7.4790   36.8730  -27.0140 O.2    17  ALA17      -0.2715
     18  CB        -5.7940   34.2000  -26.7430 C.3    17  ALA17       0.0334
     19  N         -7.6730   36.1250  -24.8910 N.am   18  GLY18      -0.1940
     20  CA        -9.0050   36.6630  -24.7010 C.3    18  GLY18       0.2014
     21  C        -10.0810   35.6070  -24.4680 C.2    18  GLY18       0.2639
     22  O        -11.2590   35.8640  -24.7100 O.2    18  GLY18      -0.2714
     23  N         -9.7050   34.4120  -24.0190 N.am   19  LYS19      -0.1963
     24  CA       -10.6950   33.3480  -23.8090 C.3    19  LYS19       0.1728
     25  C        -11.7440   33.7370  -22.7690 C.2    19  LYS19       0.2617
     26  O        -12.9470   33.5730  -22.9980 O.2    19  LYS19      -0.2715
     27  CB       -10.0150   32.0520  -23.3580 C.3    19  LYS19       0.0311
     28  CG        -8.9720   31.5150  -24.3240 C.3    19  LYS19       0.0038
     29  CD        -8.1180   30.4210  -23.6720 C.3    19  LYS19       0.0206
     30  CE        -7.3160   30.9320  -22.4820 C.3    19  LYS19       0.1093
     31  NZ        -6.0970   31.7430  -22.8500 N.3    19  LYS19      -0.1314
     32  N        -11.2960   34.2140  -21.6190 N.am   20  SER20      -0.1936
     33  CA       -12.2250   34.4990  -20.5320 C.3    20  SER20       0.2055
     34  C        -13.1190   35.6880  -20.8640 C.2    20  SER20       0.2644
     35  O        -14.3270   35.6550  -20.6390 O.2    20  SER20      -0.2714
     36  CB       -11.4660   34.7210  -19.2330 C.3    20  SER20       0.2130
     37  OG       -10.7040   33.5670  -18.9230 O.3    20  SER20      -0.2179
     38  N        -12.5310   36.7220  -21.4460 N.am   21  THR21      -0.1936
     39  CA       -13.2970   37.8940  -21.8420 C.3    21  THR21       0.2028
     40  C        -14.3780   37.5020  -22.8320 C.2    21  THR21       0.2642
     41  O        -15.5320   37.9180  -22.7250 O.2    21  THR21      -0.2714
     42  CB       -12.3710   38.9300  -22.4960 C.3    21  THR21       0.1808
     43  OG1      -11.3810   39.3400  -21.5450 O.3    21  THR21      -0.2208
     44  CG2      -13.1580   40.1750  -22.9600 C.3    21  THR21       0.0379
     45  N        -14.0020   36.6910  -23.8060 N.am   22  ASN22      -0.1971
     46  CA       -14.9450   36.3530  -24.8540 C.3    22  ASN22       0.1688
     47  C        -15.9620   35.2910  -24.4630 C.2    22  ASN22       0.2292
     48  O        -17.0510   35.2280  -25.0410 O.2    22  ASN22      -0.2864
     49  CB       -14.2050   36.0500  -26.1500 C.3    22  ASN22       0.1181
     50  CG       -13.6460   37.3170  -26.7630 C.2    22  ASN22       0.2629
     51  OD1      -14.3720   38.2960  -26.9410 O.2    22  ASN22      -0.2716
     52  ND2      -12.3470   37.3370  -27.0320 N.am   22  ASN22      -0.0877
     53  N         -0.3410   41.3040  -22.9510 N.3   148  ARG148     -0.1231
     54  CA        -1.6120   41.6680  -22.3410 C.3   148  ARG148      0.1694
     55  C         -1.6210   41.1420  -20.9160 C.2   148  ARG148      0.2591
     56  O         -1.8390   41.8890  -19.9640 O.2   148  ARG148     -0.2718
     57  CB        -2.7810   41.0400  -23.0950 C.3   148  ARG148      0.0321
     58  CG        -2.9680   41.5520  -24.5040 C.3   148  ARG148      0.0489
     59  CD        -4.1020   40.8030  -25.1630 C.3   148  ARG148      0.2205
     60  NE        -4.2170   41.1720  -26.5620 N.pl3 148  ARG148     -0.0865
     61  CZ        -4.9080   40.4850  -27.4620 C.cat 148  ARG148      0.5346
     62  NH1       -5.5570   39.3790  -27.1120 N.pl3 148  ARG148      0.1354
     63  NH2       -4.9440   40.9170  -28.7140 N.pl3 148  ARG148      0.1354
     64  N         -1.3740   39.8420  -20.7920 N.am  149  ALA149     -0.1980
     65  CA        -1.3810   39.1560  -19.5060 C.3   149  ALA149      0.1597
     66  C         -0.4530   39.8200  -18.4920 C.2   149  ALA149      0.2287
     67  O         -0.4030   39.4150  -17.3310 O.2   149  ALA149     -0.2864
     68  CB        -1.0050   37.6920  -19.6950 C.3   149  ALA149      0.0319
     69  N         -7.1980   36.4650  -32.6830 N.3   185  ALA185     -0.1245
     70  CA        -7.3260   37.1440  -31.4120 C.3   185  ALA185      0.1562
     71  C         -6.3550   38.3230  -31.2910 C.2   185  ALA185      0.2260
     72  O         -6.3330   39.0050  -30.2630 O.2   185  ALA185     -0.2867
     73  CB        -7.1380   36.1380  -30.2510 C.3   185  ALA185      0.0290
     74  N         -6.5660   40.8020  -33.3890 N.3   187  LEU187     -0.1231
     75  CA        -7.3550   41.9580  -33.7910 C.3   187  LEU187      0.1678
     76  C         -7.8230   42.7100  -32.5500 C.2   187  LEU187      0.2434
     77  O         -7.8370   42.1480  -31.4510 O.2   187  LEU187     -0.2733
     78  CB        -8.5690   41.5040  -34.6100 C.3   187  LEU187      0.0284
     79  CG        -8.2330   40.7090  -35.8720 C.3   187  LEU187      0.0019
     80  CD1       -9.5070   40.2400  -36.5900 C.3   187  LEU187      0.0001
     81  CD2       -7.3560   41.5270  -36.8050 C.3   187  LEU187      0.0001
     82  N         -8.2460   43.9680  -32.7190 N.am  188  PRO188     -0.2718
     83  CA        -8.8850   44.6730  -31.6020 C.3   188  PRO188      0.1535
     84  C        -10.0490   43.8590  -31.0490 C.2   188  PRO188      0.2598
     85  O        -10.7080   43.1230  -31.7940 O.2   188  PRO188     -0.2715
     86  CB        -9.4120   45.9530  -32.2510 C.3   188  PRO188      0.0310
     87  CG        -8.5330   46.1650  -33.4430 C.3   188  PRO188      0.0237
     88  CD        -8.1480   44.8060  -33.9290 C.3   188  PRO188      0.0939
     89  N        -10.3160   43.9940  -29.7550 N.am  189  LEU189     -0.1978
     90  CA       -11.3610   43.2080  -29.1170 C.3   189  LEU189      0.1596
     91  C        -12.6870   43.3730  -29.8520 C.2   189  LEU189      0.2287
     92  O        -13.4190   42.3930  -30.0720 O.2   189  LEU189     -0.2864
     93  CB       -11.5090   43.6110  -27.6520 C.3   189  LEU189      0.0297
     94  CG       -12.4820   42.7370  -26.8550 C.3   189  LEU189      0.0022
     95  CD1      -12.1050   41.2540  -26.9260 C.3   189  LEU189      0.0001
     96  CD2      -12.5150   43.1830  -25.4130 C.3   189  LEU189      0.0001
     97  N        -12.6390   41.0830  -32.7980 N.3   192  VAL192     -0.1245
     98  CA       -12.7930   39.7010  -32.3620 C.3   192  VAL192      0.1561
     99  C        -14.2700   39.4380  -32.0840 C.2   192  VAL192      0.2260
    100  O        -14.8270   38.4350  -32.5340 O.2   192  VAL192     -0.2867
    101  CB       -11.9300   39.3790  -31.1340 C.3   192  VAL192      0.0252
    102  CG1      -12.1870   37.9380  -30.6700 C.3   192  VAL192      0.0019
    103  CG2      -10.4590   39.5650  -31.4620 C.3   192  VAL192      0.0019
@<TRIPOS>BOND
     1    81    79    1
     2    80    79    1
     3    79    78    1
     4    78    75    1
     5    88    87    1
     6    88    82    1
     7    75    74    1
     8    75    76    1
     9    87    86    1
    10    97    98    1
    11    82    76   am
    12    82    83    1
    13    69    70    1
    14    76    77    2
    15   100    99    2
    16    98    99    1
    17    98   101    1
    18    86    83    1
    19    85    84    2
    20    83    84    1
    21   103   101    1
    22    70    71    1
    23    70    73    1
    24    71    72    2
    25   101   102    1
    26    84    89   am
    27    92    91    2
    28    91    90    1
    29    89    90    1
    30    90    93    1
    31    63    61    1
    32    93    94    1
    33    61    62    1
    34    61    60    2
    35    52    50   am
    36    17    16    2
    37    51    50    2
    38    95    94    1
    39    94    96    1
    40    50    49    1
    41    18    15    1
    42    60    59    1
    43    49    46    1
    44    15    16    1
    45    15    14    1
    46    16    19   am
    47    59    58    1
    48    48    47    2
    49    19    20    1
    50    46    47    1
    51    46    45    1
    52    14    12   am
    53    22    21    2
    54    20    21    1
    55    13    12    2
    56    58    57    1
    57    21    23   am
    58    28    29    1
    59    28    27    1
    60    12    11    1
    61     4     3    2
    62    23    24    1
    63    24    27    1
    64    24    25    1
    65    45    40   am
    66     1     2    1
    67    29    30    1
    68     3     2    1
    69     3    10   am
    70    57    54    1
    71    26    25    2
    72    44    42    1
    73    53    54    1
    74    11    10    1
    75    31    30    1
    76    40    41    2
    77    40    39    1
    78    25    32   am
    79     2     5    1
    80    42    39    1
    81    42    43    1
    82    54    55    1
    83    39    38    1
    84     5     6    1
    85    32    33    1
    86    38    34   am
    87     6     7    1
    88    55    64   am
    89    55    56    2
    90    34    35    2
    91    34    33    1
    92    64    65    1
    93    33    36    1
    94     9     7   ar
    95     7     8   ar
    96    68    65    1
    97    65    66    1
    98    36    37    1
    99    66    67    2
