@<TRIPOS>MOLECULE
tmp/4edhB00.pdb
 180 172 0 0 0
SMALL
GASTEIGER

@<TRIPOS>ATOM
      1  N         -1.9080   32.1600  -23.6890 N.3    15  GLU15      -0.1245
      2  CA        -2.1140   33.1110  -22.6090 C.3    15  GLU15       0.1567
      3  C         -2.4440   34.5010  -23.1350 C.2    15  GLU15       0.2260
      4  O         -1.7640   35.0150  -24.0390 O.2    15  GLU15      -0.2867
      5  CB        -0.8740   33.1890  -21.7170 C.3    15  GLU15       0.0388
      6  CG        -0.3770   31.8400  -21.2070 C.3    15  GLU15       0.1160
      7  CD        -1.3400   31.1890  -20.2260 C.2    15  GLU15       0.3649
      8  OE1       -1.9930   31.9180  -19.4510 O.co2  15  GLU15      -0.2457
      9  OE2       -1.4430   29.9450  -20.2370 O.co2  15  GLU15      -0.2457
     10  N         -9.7050   34.4120  -24.0190 N.3    19  LYS19      -0.1231
     11  CA       -10.6950   33.3480  -23.8090 C.3    19  LYS19       0.1693
     12  C        -11.7440   33.7370  -22.7690 C.2    19  LYS19       0.2592
     13  O        -12.9470   33.5730  -22.9980 O.2    19  LYS19      -0.2718
     14  CB       -10.0150   32.0520  -23.3580 C.3    19  LYS19       0.0285
     15  CG        -8.9720   31.5150  -24.3240 C.3    19  LYS19       0.0035
     16  CD        -8.1180   30.4210  -23.6720 C.3    19  LYS19       0.0206
     17  CE        -7.3160   30.9320  -22.4820 C.3    19  LYS19       0.1093
     18  NZ        -6.0970   31.7430  -22.8500 N.3    19  LYS19      -0.1314
     19  N        -11.2960   34.2140  -21.6190 N.am   20  SER20      -0.1952
     20  CA       -12.2250   34.4990  -20.5320 C.3    20  SER20       0.1924
     21  C        -13.1190   35.6880  -20.8640 C.2    20  SER20       0.2314
     22  O        -14.3270   35.6550  -20.6390 O.2    20  SER20      -0.2863
     23  CB       -11.4660   34.7210  -19.2330 C.3    20  SER20       0.2116
     24  OG       -10.7040   33.5670  -18.9230 O.3    20  SER20      -0.2180
     25  N        -15.2810   26.8140  -16.4190 N.3    41  ARG41      -0.1231
     26  CA       -13.8750   26.9220  -16.8030 C.3    41  ARG41       0.1694
     27  C        -13.0740   25.7560  -16.2520 C.2    41  ARG41       0.2592
     28  O        -13.4920   25.1190  -15.2760 O.2    41  ARG41      -0.2718
     29  CB       -13.2700   28.2530  -16.3250 C.3    41  ARG41       0.0321
     30  CG       -13.2730   28.4680  -14.8010 C.3    41  ARG41       0.0489
     31  CD       -11.9630   28.0130  -14.1480 C.3    41  ARG41       0.2205
     32  NE       -11.8460   28.3950  -12.7370 N.pl3  41  ARG41      -0.0865
     33  CZ       -11.3360   29.5430  -12.2990 C.cat  41  ARG41       0.5346
     34  NH1      -10.8680   30.4560  -13.1480 N.pl3  41  ARG41       0.1354
     35  NH2      -11.2770   29.7790  -11.0020 N.pl3  41  ARG41       0.1354
     36  N        -11.9250   25.5000  -16.8790 N.am   42  GLU42      -0.1966
     37  CA       -11.0130   24.4410  -16.4400 C.3    42  GLU42       0.1718
     38  C         -9.5690   24.8960  -16.3780 C.2    42  GLU42       0.2458
     39  O         -9.1560   25.7740  -17.1300 O.2    42  GLU42      -0.2730
     40  CB       -11.0580   23.2360  -17.3690 C.3    42  GLU42       0.0428
     41  CG       -12.4030   22.5570  -17.4190 C.3    42  GLU42       0.1163
     42  CD       -12.2880   21.1050  -17.7810 C.2    42  GLU42       0.3649
     43  OE1      -11.2400   20.7070  -18.3290 O.co2  42  GLU42      -0.2457
     44  OE2      -13.2660   20.3620  -17.5340 O.co2  42  GLU42      -0.2457
     45  N         -8.7830   24.2690  -15.4940 N.am   43  PRO43      -0.2727
     46  CA        -9.2750   23.3330  -14.4850 C.3    43  PRO43       0.1402
     47  C        -10.1120   24.0870  -13.4690 C.2    43  PRO43       0.2269
     48  O         -9.8080   25.2380  -13.1270 O.2    43  PRO43      -0.2865
     49  CB        -7.9810   22.8300  -13.8290 C.3    43  PRO43       0.0296
     50  CG        -6.9990   23.9400  -14.0220 C.3    43  PRO43       0.0237
     51  CD        -7.3290   24.4870  -15.3870 C.3    43  PRO43       0.0939
     52  N         -7.4520   22.8710   -9.1440 N.3    53  ARG53      -0.1245
     53  CA        -6.8820   24.0170   -9.8640 C.3    53  ARG53       0.1563
     54  C         -5.8330   24.7160   -9.0060 C.2    53  ARG53       0.2260
     55  O         -4.7510   25.0800   -9.4870 O.2    53  ARG53      -0.2867
     56  CB        -7.9780   25.0230  -10.2340 C.3    53  ARG53       0.0307
     57  CG        -7.4660   26.2960  -10.9170 C.3    53  ARG53       0.0489
     58  CD        -8.5810   27.3260  -11.0820 C.3    53  ARG53       0.2205
     59  NE        -8.0800   28.5240  -11.7590 N.pl3  53  ARG53      -0.0865
     60  CZ        -8.0310   28.6870  -13.0790 C.cat  53  ARG53       0.5346
     61  NH1       -8.4710   27.7380  -13.8910 N.pl3  53  ARG53       0.1354
     62  NH2       -7.5450   29.8110  -13.5840 N.pl3  53  ARG53       0.1354
     63  N         -1.8980   25.3540  -10.1630 N.3    57  LEU57      -0.1245
     64  CA        -1.3960   26.6770  -10.5420 C.3    57  LEU57       0.1561
     65  C         -0.4120   27.3000   -9.5650 C.2    57  LEU57       0.2260
     66  O          0.3440   28.1830   -9.9490 O.2    57  LEU57      -0.2867
     67  CB        -2.5500   27.6450  -10.7810 C.3    57  LEU57       0.0270
     68  CG        -3.5030   27.2170  -11.8850 C.3    57  LEU57       0.0019
     69  CD1       -4.4930   28.3220  -12.1950 C.3    57  LEU57       0.0001
     70  CD2       -2.6940   26.8230  -13.1150 C.3    57  LEU57       0.0001
     71  N         -5.0450   17.3480  -13.9730 N.3    73  MET73      -0.1245
     72  CA        -5.9000   17.9980  -14.9600 C.3    73  MET73       0.1570
     73  C         -7.0870   17.1120  -15.2900 C.2    73  MET73       0.2261
     74  O         -8.2230   17.5850  -15.3790 O.2    73  MET73      -0.2867
     75  CB        -5.1140   18.3230  -16.2350 C.3    73  MET73       0.0387
     76  CG        -4.2400   19.5580  -16.1150 C.3    73  MET73       0.0595
     77  SD        -5.1810   21.1020  -16.0210 S.3    73  MET73      -0.1393
     78  CE        -3.8440   22.2560  -15.6930 C.3    73  MET73       0.0692
     79  N        -11.1610   17.3920  -14.4980 N.3    77  ARG77      -0.1245
     80  CA       -12.0910   17.2690  -15.6140 C.3    77  ARG77       0.1563
     81  C        -13.1690   16.2250  -15.3460 C.2    77  ARG77       0.2260
     82  O        -14.3410   16.4480  -15.6560 O.2    77  ARG77      -0.2867
     83  CB       -11.3200   16.9140  -16.8810 C.3    77  ARG77       0.0307
     84  CG       -12.1510   16.9130  -18.1600 C.3    77  ARG77       0.0489
     85  CD       -11.2370   17.0440  -19.3880 C.3    77  ARG77       0.2205
     86  NE       -10.5450   18.3250  -19.3010 N.pl3  77  ARG77      -0.0865
     87  CZ        -9.2550   18.5200  -19.5380 C.cat  77  ARG77       0.5346
     88  NH1       -8.7540   19.7310  -19.3550 N.pl3  77  ARG77       0.1354
     89  NH2       -8.4650   17.5300  -19.9440 N.pl3  77  ARG77       0.1354
     90  N        -14.4210   27.6920  -20.6140 N.3    98  ASP98      -0.1225
     91  CA       -13.1150   28.3450  -20.7740 C.3    98  ASP98       0.1805
     92  C        -12.0240   27.2940  -20.4840 C.2    98  ASP98       0.2598
     93  O        -11.7030   27.0170  -19.3150 O.2    98  ASP98      -0.2718
     94  CB       -13.1320   29.5090  -19.7770 C.3    98  ASP98       0.1424
     95  CG       -11.8970   30.3920  -19.8090 C.2    98  ASP98       0.3668
     96  OD1      -10.8800   30.0780  -20.4650 O.co2  98  ASP98      -0.2456
     97  OD2      -11.9710   31.4290  -19.1150 O.co2  98  ASP98      -0.2456
     98  N        -11.5020   26.7030  -21.5690 N.am   99  ARG99      -0.1966
     99  CA       -10.5140   25.6090  -21.5980 C.3    99  ARG99       0.1729
    100  C        -11.0970   24.2280  -21.3750 C.2    99  ARG99       0.2616
    101  O        -12.0110   24.0470  -20.5620 O.2    99  ARG99      -0.2715
    102  CB        -9.3640   25.8110  -20.6230 C.3    99  ARG99       0.0348
    103  CG        -8.5950   27.1070  -20.8420 C.3    99  ARG99       0.0492
    104  CD        -7.2920   27.0450  -20.0900 C.3    99  ARG99       0.2205
    105  NE        -6.3480   28.1160  -20.4150 N.pl3  99  ARG99      -0.0865
    106  CZ        -5.5500   28.1040  -21.4750 C.cat  99  ARG99       0.5346
    107  NH1       -5.6240   27.1050  -22.3490 N.pl3  99  ARG99       0.1354
    108  NH2       -4.6910   29.0940  -21.6600 N.pl3  99  ARG99       0.1354
    109  N        -10.5480   23.2530  -22.0910 N.am  100  PHE100     -0.1974
    110  CA       -10.9420   21.8630  -21.9420 C.3   100  PHE100      0.1639
    111  C         -9.7660   21.0210  -22.4390 C.2   100  PHE100      0.2290
    112  O         -8.6100   21.4410  -22.3090 O.2   100  PHE100     -0.2864
    113  CB       -12.2470   21.6130  -22.7070 C.3   100  PHE100      0.0560
    114  CG       -12.9480   20.3070  -22.3560 C.ar  100  PHE100     -0.0200
    115  CD1      -13.3910   20.0390  -21.0610 C.ar  100  PHE100     -0.0042
    116  CD2      -13.2000   19.3720  -23.3510 C.ar  100  PHE100     -0.0042
    117  CE1      -14.0440   18.8250  -20.7790 C.ar  100  PHE100     -0.0003
    118  CE2      -13.8420   18.1760  -23.0700 C.ar  100  PHE100     -0.0003
    119  CZ       -14.2510   17.9110  -21.7900 C.ar  100  PHE100     -0.0000
    120  N         -6.5590   22.1130  -24.3540 N.3   103  ALA103     -0.1231
    121  CA        -5.5000   22.7150  -23.5580 C.3   103  ALA103      0.1694
    122  C         -4.5540   21.6400  -23.0440 C.2   103  ALA103      0.2592
    123  O         -3.3640   21.8870  -22.8880 O.2   103  ALA103     -0.2718
    124  CB        -6.0730   23.5220  -22.4270 C.3   103  ALA103      0.0304
    125  N         -5.0670   20.4500  -22.7510 N.am  104  THR104     -0.1953
    126  CA        -4.1910   19.3810  -22.2740 C.3   104  THR104      0.1897
    127  C         -3.2320   18.9550  -23.3850 C.2   104  THR104      0.2313
    128  O         -2.0190   18.8270  -23.1720 O.2   104  THR104     -0.2863
    129  CB        -4.9890   18.1840  -21.7660 C.3   104  THR104      0.1794
    130  OG1       -6.0010   18.6570  -20.8680 O.3   104  THR104     -0.2208
    131  CG2       -4.0600   17.2080  -21.0440 C.3   104  THR104      0.0378
    132  N         -0.6970   22.1100  -23.6720 N.3   107  TYR107     -0.1227
    133  CA         0.2030   22.3940  -22.5470 C.3   107  TYR107      0.1736
    134  C          0.9560   21.1490  -22.0960 C.2   107  TYR107      0.2595
    135  O          2.1870   21.1610  -22.0010 O.2   107  TYR107     -0.2718
    136  CB        -0.5790   23.0180  -21.3810 C.3   107  TYR107      0.0548
    137  CG        -0.9420   24.4590  -21.6360 C.ar  107  TYR107     -0.0200
    138  CD1       -0.2310   25.4820  -21.0260 C.ar  107  TYR107     -0.0009
    139  CD2       -1.9560   24.8050  -22.5280 C.ar  107  TYR107     -0.0009
    140  CE1       -0.5280   26.8230  -21.2820 C.ar  107  TYR107      0.0417
    141  CE2       -2.2510   26.1520  -22.7920 C.ar  107  TYR107      0.0417
    142  CZ        -1.5280   27.1440  -22.1600 C.ar  107  TYR107      0.1957
    143  OH        -1.8090   28.4810  -22.4210 O.3   107  TYR107     -0.2866
    144  N          0.2290   20.0740  -21.8170 N.am  108  GLN108     -0.1979
    145  CA         0.8780   18.8460  -21.3750 C.3   108  GLN108      0.1601
    146  C          1.5480   18.0810  -22.5170 C.2   108  GLN108      0.2287
    147  O          2.5760   17.4370  -22.3130 O.2   108  GLN108     -0.2864
    148  CB        -0.0960   17.9530  -20.5990 C.3   108  GLN108      0.0394
    149  CG        -0.3400   18.4250  -19.1640 C.3   108  GLN108      0.0908
    150  CD        -1.1040   19.7330  -19.0750 C.2   108  GLN108      0.2608
    151  OE1       -2.2000   19.8530  -19.6280 O.2   108  GLN108     -0.2717
    152  NE2       -0.5260   20.7260  -18.3950 N.am  108  GLN108     -0.0878
    153  N          1.4960   32.3290  -12.2930 N.3   152  ASP152     -0.1239
    154  CA         1.2430   30.9540  -11.8770 C.3   152  ASP152      0.1674
    155  C          2.2410   30.0050  -12.5400 C.2   152  ASP152      0.2266
    156  O          3.0930   30.4350  -13.3220 O.2   152  ASP152     -0.2867
    157  CB        -0.2130   30.5520  -12.1430 C.3   152  ASP152      0.1410
    158  CG        -0.5670   30.4930  -13.6190 C.2   152  ASP152      0.3668
    159  OD1        0.2800   30.1070  -14.4560 O.co2 152  ASP152     -0.2456
    160  OD2       -1.7320   30.8020  -13.9510 O.co2 152  ASP152     -0.2456
    161  N          2.2270   27.9230  -14.9390 N.3   154  PHE154     -0.1227
    162  CA         2.3160   27.8820  -16.3980 C.3   154  PHE154      0.1736
    163  C          2.8030   29.2020  -16.9660 C.2   154  PHE154      0.2595
    164  O          3.5280   29.2330  -17.9650 O.2   154  PHE154     -0.2718
    165  CB         0.9790   27.4890  -17.0160 C.3   154  PHE154      0.0547
    166  CG         0.5590   26.1010  -16.6570 C.ar  154  PHE154     -0.0202
    167  CD1        1.1450   25.0100  -17.2770 C.ar  154  PHE154     -0.0042
    168  CD2       -0.3840   25.8850  -15.6670 C.ar  154  PHE154     -0.0042
    169  CE1        0.7770   23.7140  -16.9220 C.ar  154  PHE154     -0.0003
    170  CE2       -0.7600   24.5900  -15.3070 C.ar  154  PHE154     -0.0003
    171  CZ        -0.1810   23.5100  -15.9410 C.ar  154  PHE154     -0.0000
    172  N          2.4150   30.2920  -16.3180 N.am  155  GLU155     -0.1979
    173  CA         2.8400   31.6160  -16.7550 C.3   155  GLU155      0.1602
    174  C          4.3600   31.8020  -16.6160 C.2   155  GLU155      0.2287
    175  O          4.9350   32.6770  -17.2710 O.2   155  GLU155     -0.2864
    176  CB         2.0410   32.6880  -16.0020 C.3   155  GLU155      0.0415
    177  CG         0.5820   32.7570  -16.4630 C.3   155  GLU155      0.1163
    178  CD        -0.3350   33.5200  -15.5160 C.2   155  GLU155      0.3649
    179  OE1       -1.5000   33.7730  -15.9000 O.co2 155  GLU155     -0.2457
    180  OE2        0.0910   33.8470  -14.3920 O.co2 155  GLU155     -0.2457
@<TRIPOS>BOND
     1   120   121    1
     2    15    16    1
     3    15    14    1
     4     4     3    2
     5    10    11    1
     6    11    14    1
     7    11    12    1
     8     1     2    1
     9   132   133    1
    10    16    17    1
    11   121   122    1
    12   121   124    1
    13   127   128    2
    14   127   126    1
    15   116   118   ar
    16   116   114   ar
    17     3     2    1
    18   118   119   ar
    19   122   123    2
    20   122   125   am
    21    13    12    2
    22    18    17    1
    23   141   139   ar
    24   141   142   ar
    25    12    19   am
    26   125   126    1
    27   113   114    1
    28   113   110    1
    29     2     5    1
    30   133   134    1
    31   133   136    1
    32   139   137   ar
    33   146   147    2
    34   146   145    1
    35   111   112    2
    36   111   110    1
    37   143   142    1
    38   114   115   ar
    39   107   106    1
    40   126   129    1
    41   142   140   ar
    42   134   135    2
    43   134   144   am
    44   109   110    1
    45   109   100   am
    46   144   145    1
    47   119   117   ar
    48   129   131    1
    49   129   130    1
    50     5     6    1
    51   108   106    1
    52   137   136    1
    53   137   138   ar
    54    19    20    1
    55    99    98    1
    56    99   100    1
    57    99   102    1
    58    98    92   am
    59   106   105    2
    60   100   101    2
    61   145   148    1
    62   140   138   ar
    63     6     7    1
    64   115   117   ar
    65    21    22    2
    66    21    20    1
    67   103   102    1
    68   103   104    1
    69    91    90    1
    70    91    92    1
    71    91    94    1
    72   148   149    1
    73    20    23    1
    74    92    93    2
    75    96    95   ar
    76   105   104    1
    77     9     7   ar
    78     7     8   ar
    79    89    87    1
    80    95    94    1
    81    95    97   ar
    82   151   150    2
    83    87    88    1
    84    87    86    2
    85    85    86    1
    86    85    84    1
    87    23    24    1
    88   149   150    1
    89   150   152   am
    90    43    42   ar
    91    84    83    1
    92   164   163    2
    93    42    44   ar
    94    42    41    1
    95    41    40    1
    96    40    37    1
    97   167   169   ar
    98   167   166   ar
    99   175   174    2
   100    39    38    2
   101   165   166    1
   102   165   162    1
   103   163   162    1
   104   163   172   am
   105   169   171   ar
   106    83    80    1
   107    36    37    1
   108    36    27   am
   109    26    25    1
   110    26    29    1
   111    26    27    1
   112   173   174    1
   113   173   172    1
   114   173   176    1
   115   166   168   ar
   116   177   176    1
   117   177   178    1
   118    37    38    1
   119   162   161    1
   120    38    45   am
   121    29    30    1
   122    27    28    2
   123    75    76    1
   124    75    72    1
   125    76    77    1
   126    77    78    1
   127   171   170   ar
   128   179   178   ar
   129   168   170   ar
   130    82    81    2
   131    80    81    1
   132    80    79    1
   133   178   180   ar
   134    45    51    1
   135    45    46    1
   136    51    50    1
   137    74    73    2
   138    73    72    1
   139    72    71    1
   140    30    31    1
   141    46    49    1
   142    46    47    1
   143   159   158   ar
   144    31    32    1
   145    50    49    1
   146   160   158   ar
   147    61    60    1
   148   158   157    1
   149    62    60    1
   150    47    48    2
   151   156   155    2
   152    34    33    1
   153    70    68    1
   154    60    59    2
   155    32    33    2
   156   155   154    1
   157    33    35    1
   158   153   154    1
   159    69    68    1
   160   157   154    1
   161    68    67    1
   162    59    58    1
   163    58    57    1
   164    57    56    1
   165    67    64    1
   166    64    63    1
   167    64    65    1
   168    56    53    1
   169    66    65    2
   170    53    52    1
   171    53    54    1
   172    55    54    2
