@<TRIPOS>MOLECULE
tmp/4edkA01.pdb
 141 135 0 0 0
SMALL
GASTEIGER

@<TRIPOS>ATOM
      1  N        -26.8730  -46.6710  -15.3180 N.3    39  ARG39      -0.1245
      2  CA       -26.6030  -45.6690  -14.2890 C.3    39  ARG39       0.1563
      3  C        -25.4320  -46.0890  -13.4120 C.2    39  ARG39       0.2260
      4  O        -25.2080  -45.5100  -12.3510 O.2    39  ARG39      -0.2867
      5  CB       -27.8320  -45.4130  -13.4110 C.3    39  ARG39       0.0307
      6  CG       -28.9330  -44.6390  -14.0960 C.3    39  ARG39       0.0489
      7  CD       -29.9690  -44.1570  -13.1000 C.3    39  ARG39       0.2205
      8  NE       -29.4520  -43.0980  -12.2350 N.pl3  39  ARG39      -0.0865
      9  CZ       -30.2210  -42.3360  -11.4640 C.cat  39  ARG39       0.5346
     10  NH1      -31.5360  -42.5200  -11.4630 N.pl3  39  ARG39       0.1354
     11  NH2      -29.6820  -41.3950  -10.6960 N.pl3  39  ARG39       0.1354
     12  N        -38.9210  -46.4440   -8.0610 N.3   115  ARG115     -0.1245
     13  CA       -38.6480  -45.4670   -9.1160 C.3   115  ARG115      0.1563
     14  C        -39.1570  -45.9430  -10.4670 C.2   115  ARG115      0.2260
     15  O        -38.9960  -47.1070  -10.8270 O.2   115  ARG115     -0.2867
     16  CB       -37.1540  -45.1600   -9.2320 C.3   115  ARG115      0.0307
     17  CG       -36.8610  -43.8410   -9.9620 C.3   115  ARG115      0.0489
     18  CD       -35.4520  -43.8160  -10.5350 C.3   115  ARG115      0.2205
     19  NE       -35.0820  -42.4980  -11.0540 N.pl3 115  ARG115     -0.0865
     20  CZ       -35.4210  -42.0370  -12.2580 C.cat 115  ARG115      0.5346
     21  NH1      -36.1490  -42.7810  -13.0860 N.pl3 115  ARG115      0.1354
     22  NH2      -35.0240  -40.8310  -12.6410 N.pl3 115  ARG115      0.1354
     23  N        -45.6210  -40.3900  -10.4000 N.3   122  PRO122     -0.2102
     24  CA       -44.4590  -39.6960   -9.8260 C.3   122  PRO122      0.1504
     25  C        -43.1580  -40.4340  -10.1280 C.2   122  PRO122      0.2576
     26  O        -43.1880  -41.6580  -10.2750 O.2   122  PRO122     -0.2718
     27  CB       -44.7420  -39.7400   -8.3230 C.3   122  PRO122      0.0282
     28  CG       -45.5500  -40.9920   -8.1390 C.3   122  PRO122      0.0208
     29  CD       -46.4260  -41.0680   -9.3670 C.3   122  PRO122      0.0893
     30  N        -42.0480  -39.7060  -10.2390 N.am  123  LYS123     -0.1966
     31  CA       -40.7520  -40.3380  -10.4770 C.3   123  LYS123      0.1728
     32  C        -40.4650  -41.4060   -9.4200 C.2   123  LYS123      0.2616
     33  O        -40.0910  -42.5320   -9.7510 O.2   123  LYS123     -0.2715
     34  CB       -39.6250  -39.3000  -10.5020 C.3   123  LYS123      0.0311
     35  CG       -38.2420  -39.9090  -10.6980 C.3   123  LYS123      0.0038
     36  CD       -37.2490  -38.9080  -11.2860 C.3   123  LYS123      0.0206
     37  CE       -36.6620  -37.9890  -10.2210 C.3   123  LYS123      0.1093
     38  NZ       -35.5800  -37.1100  -10.7750 N.3   123  LYS123     -0.1314
     39  N        -40.6430  -41.0400   -8.1520 N.am  124  TYR124     -0.1974
     40  CA       -40.5160  -41.9890   -7.0440 C.3   124  TYR124      0.1639
     41  C        -41.8510  -42.1310   -6.3360 C.2   124  TYR124      0.2290
     42  O        -42.5560  -41.1420   -6.1080 O.2   124  TYR124     -0.2864
     43  CB       -39.4720  -41.5290   -6.0200 C.3   124  TYR124      0.0560
     44  CG       -38.0260  -41.6470   -6.4640 C.ar  124  TYR124     -0.0198
     45  CD1      -37.3300  -42.8360   -6.3050 C.ar  124  TYR124     -0.0009
     46  CD2      -37.3520  -40.5590   -7.0210 C.ar  124  TYR124     -0.0009
     47  CE1      -36.0000  -42.9520   -6.6940 C.ar  124  TYR124      0.0417
     48  CE2      -36.0190  -40.6670   -7.4220 C.ar  124  TYR124      0.0417
     49  CZ       -35.3500  -41.8710   -7.2450 C.ar  124  TYR124      0.1957
     50  OH       -34.0330  -42.0090   -7.6250 O.3   124  TYR124     -0.2866
     51  N        -43.1360  -43.7860   -2.7770 N.3   126  ASN126     -0.1240
     52  CA       -42.7830  -44.4060   -1.5110 C.3   126  ASN126      0.1653
     53  C        -43.9420  -45.1470   -0.8620 C.2   126  ASN126      0.2266
     54  O        -45.1100  -44.9320   -1.2010 O.2   126  ASN126     -0.2867
     55  CB       -42.2820  -43.3490   -0.5200 C.3   126  ASN126      0.1155
     56  CG       -41.0630  -42.6210   -1.0250 C.2   126  ASN126      0.2627
     57  OD1      -40.2200  -43.2050   -1.7070 O.2   126  ASN126     -0.2716
     58  ND2      -40.9610  -41.3380   -0.7020 N.am  126  ASN126     -0.0877
     59  N        -29.7040  -34.7630   -0.5620 N.3   159  GLU159     -0.1231
     60  CA       -31.1270  -34.6800   -0.9120 C.3   159  GLU159      0.1699
     61  C        -31.7370  -36.0360   -1.2230 C.2   159  GLU159      0.2593
     62  O        -32.8600  -36.3380   -0.8180 O.2   159  GLU159     -0.2718
     63  CB       -31.3290  -33.8140   -2.1580 C.3   159  GLU159      0.0402
     64  CG       -31.3040  -32.3440   -1.9170 C.3   159  GLU159      0.1161
     65  CD       -31.8810  -31.5760   -3.0850 C.2   159  GLU159      0.3649
     66  OE1      -31.2310  -30.6150   -3.5340 O.co2 159  GLU159     -0.2457
     67  OE2      -32.9860  -31.9330   -3.5510 O.co2 159  GLU159     -0.2457
     68  N        -31.0050  -36.8360   -1.9840 N.am  160  GLY160     -0.1942
     69  CA       -31.5750  -38.0330   -2.5650 C.3   160  GLY160      0.2014
     70  C        -30.9310  -39.3020   -2.0700 C.2   160  GLY160      0.2639
     71  O        -29.7120  -39.3680   -1.9130 O.2   160  GLY160     -0.2714
     72  N        -31.7460  -40.3220   -1.8180 N.am  161  PHE161     -0.1959
     73  CA       -31.1820  -41.5960   -1.3950 C.3   161  PHE161      0.1771
     74  C        -30.3000  -42.2100   -2.4970 C.2   161  PHE161      0.2619
     75  O        -29.3340  -42.9060   -2.2050 O.2   161  PHE161     -0.2715
     76  CB       -32.2580  -42.5610   -0.8680 C.3   161  PHE161      0.0574
     77  CG       -33.1570  -43.1290   -1.9320 C.ar  161  PHE161     -0.0200
     78  CD1      -32.8110  -44.2940   -2.5910 C.ar  161  PHE161     -0.0042
     79  CD2      -34.3530  -42.5080   -2.2570 C.ar  161  PHE161     -0.0042
     80  CE1      -33.6370  -44.8330   -3.5690 C.ar  161  PHE161     -0.0003
     81  CE2      -35.1910  -43.0430   -3.2260 C.ar  161  PHE161     -0.0003
     82  CZ       -34.8250  -44.2100   -3.8840 C.ar  161  PHE161     -0.0000
     83  N        -30.6090  -41.9220   -3.7590 N.am  162  MET162     -0.1963
     84  CA       -29.7400  -42.3500   -4.8610 C.3   162  MET162      0.1736
     85  C        -28.3400  -41.7330   -4.7360 C.2   162  MET162      0.2616
     86  O        -27.3240  -42.3810   -5.0050 O.2   162  MET162     -0.2715
     87  CB       -30.3480  -41.9700   -6.2150 C.3   162  MET162      0.0427
     88  CG       -29.4550  -42.3080   -7.4010 C.3   162  MET162      0.0599
     89  SD       -29.3790  -44.0920   -7.6720 S.3   162  MET162     -0.1393
     90  CE       -31.1360  -44.4420   -7.7430 C.3   162  MET162      0.0692
     91  N        -28.2910  -40.4720   -4.3330 N.am  163  ASP163     -0.1971
     92  CA       -27.0150  -39.8070   -4.0890 C.3   163  ASP163      0.1709
     93  C        -26.2500  -40.4990   -2.9740 C.2   163  ASP163      0.2293
     94  O        -25.0320  -40.6510   -3.0410 O.2   163  ASP163     -0.2864
     95  CB       -27.2550  -38.3400   -3.7450 C.3   163  ASP163      0.1436
     96  CG       -27.9540  -37.6030   -4.8670 C.2   163  ASP163      0.3671
     97  OD1      -27.4430  -37.6570   -6.0040 O.co2 163  ASP163     -0.2456
     98  OD2      -29.0140  -36.9950   -4.6200 O.co2 163  ASP163     -0.2456
     99  N        -33.1510  -37.8450    3.8620 N.3   178  THR178     -0.1203
    100  CA       -34.5470  -38.0700    4.2060 C.3   178  THR178      0.1994
    101  C        -35.2390  -38.6160    2.9670 C.2   178  THR178      0.2618
    102  O        -34.6960  -38.5400    1.8630 O.2   178  THR178     -0.2717
    103  CB       -35.2700  -36.7760    4.5850 C.3   178  THR178      0.1784
    104  OG1      -35.4440  -35.9680    3.4120 O.3   178  THR178     -0.2211
    105  CG2      -34.4870  -35.9960    5.6520 C.3   178  THR178      0.0376
    106  N        -36.4450  -39.1420    3.1460 N.am  179  MET179     -0.1965
    107  CA       -37.2380  -39.6220    2.0210 C.3   179  MET179      0.1736
    108  C        -38.0690  -38.4970    1.4120 C.2   179  MET179      0.2617
    109  O        -39.3030  -38.5140    1.4720 O.2   179  MET179     -0.2715
    110  CB       -38.1300  -40.7930    2.4510 C.3   179  MET179      0.0427
    111  CG       -37.3430  -42.0170    2.9230 C.3   179  MET179      0.0599
    112  SD       -36.0730  -42.5180    1.7250 S.3   179  MET179     -0.1393
    113  CE       -37.0690  -42.8250    0.2590 C.3   179  MET179      0.0692
    114  N        -37.3790  -37.5070    0.8510 N.am  180  GLY180     -0.1955
    115  CA       -38.0250  -36.4410    0.1040 C.3   180  GLY180      0.1869
    116  C        -38.6830  -35.3860    0.9780 C.2   180  GLY180      0.2309
    117  O        -39.5030  -34.5970    0.5040 O.2   180  GLY180     -0.2863
    118  N        -28.4350  -30.5980   -3.8840 N.3   203  ASP203     -0.1239
    119  CA       -28.1900  -30.4360   -5.3130 C.3   203  ASP203      0.1674
    120  C        -27.7550  -29.0070   -5.6430 C.2   203  ASP203      0.2266
    121  O        -28.1400  -28.0510   -4.9610 O.2   203  ASP203     -0.2867
    122  CB       -29.4360  -30.7870   -6.1340 C.3   203  ASP203      0.1410
    123  CG       -29.8500  -32.2460   -6.0020 C.2   203  ASP203      0.3668
    124  OD1      -29.2870  -32.9940   -5.1710 O.co2 203  ASP203     -0.2456
    125  OD2      -30.7700  -32.6300   -6.7430 O.co2 203  ASP203     -0.2456
    126  N        -25.9810  -32.8860   -9.0000 N.3   236  ASP236     -0.1239
    127  CA       -26.1140  -33.5340   -7.7010 C.3   236  ASP236      0.1674
    128  C        -24.9650  -34.5410   -7.5150 C.2   236  ASP236      0.2266
    129  O        -24.1940  -34.7490   -8.4540 O.2   236  ASP236     -0.2867
    130  CB       -27.5170  -34.1390   -7.5170 C.3   236  ASP236      0.1410
    131  CG       -27.8320  -35.2710   -8.4770 C.2   236  ASP236      0.3668
    132  OD1      -26.9370  -35.9150   -9.0650 O.co2 236  ASP236     -0.2456
    133  OD2      -29.0330  -35.5090   -8.6320 O.co2 236  ASP236     -0.2456
    134  N        -24.6140  -37.8030   -7.4030 N.3   238  ASP238     -0.1239
    135  CA       -24.6130  -38.8780   -8.3880 C.3   238  ASP238      0.1674
    136  C        -24.0870  -38.3730   -9.7240 C.2   238  ASP238      0.2266
    137  O        -23.2880  -39.0380  -10.3770 O.2   238  ASP238     -0.2867
    138  CB       -26.0240  -39.4470   -8.5660 C.3   238  ASP238      0.1410
    139  CG       -26.1000  -40.4920   -9.6680 C.2   238  ASP238      0.3668
    140  OD1      -25.1700  -41.3190   -9.7770 O.co2 238  ASP238     -0.2456
    141  OD2      -27.0920  -40.4850  -10.4280 O.co2 238  ASP238     -0.2456
@<TRIPOS>BOND
     1     1     2    1
     2     2     3    1
     3     2     5    1
     4     6     5    1
     5     6     7    1
     6     3     4    2
     7     7     8    1
     8    21    20    1
     9    22    20    1
    10    20    19    2
    11     8     9    2
    12     9    10    1
    13     9    11    1
    14    36    35    1
    15    36    37    1
    16    19    18    1
    17    15    14    2
    18    38    37    1
    19    35    34    1
    20    18    17    1
    21    34    31    1
    22    31    30    1
    23    31    32    1
    24    14    13    1
    25   141   139   ar
    26    23    24    1
    27    23    29    1
    28   137   136    2
    29    26    25    2
    30    30    25   am
    31    25    24    1
    32    17    16    1
    33    24    27    1
    34   140   139   ar
    35    33    32    2
    36   136   135    1
    37   139   138    1
    38    32    39   am
    39    29    28    1
    40    16    13    1
    41    13    12    1
    42   132   131   ar
    43   126   127    1
    44   133   131   ar
    45   138   135    1
    46   131   130    1
    47   129   128    2
    48   135   134    1
    49    27    28    1
    50    39    40    1
    51    90    89    1
    52   127   130    1
    53   127   128    1
    54    89    88    1
    55    50    49    1
    56    48    49   ar
    57    48    46   ar
    58    88    87    1
    59    49    47   ar
    60    40    41    1
    61    40    43    1
    62    46    44   ar
    63   125   123   ar
    64    47    45   ar
    65    44    45   ar
    66    44    43    1
    67    41    42    2
    68    87    84    1
    69   122   123    1
    70   122   119    1
    71    97    96   ar
    72   123   124   ar
    73   120   119    1
    74   120   121    2
    75   119   118    1
    76    86    85    2
    77    96    98   ar
    78    96    95    1
    79    84    85    1
    80    84    83    1
    81    85    91   am
    82    91    92    1
    83    92    95    1
    84    92    93    1
    85    82    80   ar
    86    82    81   ar
    87    83    74   am
    88    80    78   ar
    89    67    65   ar
    90    66    65   ar
    91    81    79   ar
    92    65    64    1
    93    94    93    2
    94    51    52    1
    95    78    77   ar
    96    69    70    1
    97    69    68    1
    98    74    75    2
    99    74    73    1
   100    79    77   ar
   101    63    64    1
   102    63    60    1
   103    70    71    2
   104    70    72   am
   105    68    61   am
   106    77    76    1
   107    72    73    1
   108    57    56    2
   109    52    53    1
   110    52    55    1
   111    73    76    1
   112    61    60    1
   113    61    62    2
   114    54    53    2
   115    56    58   am
   116    56    55    1
   117    60    59    1
   118   115   114    1
   119   115   116    1
   120   113   112    1
   121   117   116    2
   122   114   108   am
   123   108   109    2
   124   108   107    1
   125   112   111    1
   126   102   101    2
   127   107   110    1
   128   107   106    1
   129   110   111    1
   130   101   106   am
   131   101   100    1
   132   104   103    1
   133    99   100    1
   134   100   103    1
   135   103   105    1
