@<TRIPOS>MOLECULE
tmp/4ednE00.pdb
 141 136 0 0 0
SMALL
GASTEIGER

@<TRIPOS>ATOM
      1  N         86.6030   12.0290    2.9070 N.3     2  ARG2       -0.1231
      2  CA        86.3700   12.7590    1.6620 C.3     2  ARG2        0.1694
      3  C         86.5370   11.8600    0.4360 C.2     2  ARG2        0.2592
      4  O         87.5470   11.1660    0.2950 O.2     2  ARG2       -0.2718
      5  CB        87.3010   13.9720    1.5590 C.3     2  ARG2        0.0321
      6  CG        86.9770   14.8990    0.3940 C.3     2  ARG2        0.0489
      7  CD        88.1530   15.7850    0.0130 C.3     2  ARG2        0.2205
      8  NE        89.3280   15.0170   -0.4080 N.pl3   2  ARG2       -0.0865
      9  CZ        89.5490   14.5770   -1.6450 C.cat   2  ARG2        0.5346
     10  NH1       88.6760   14.8150   -2.6170 N.pl3   2  ARG2        0.1354
     11  NH2       90.6510   13.8900   -1.9110 N.pl3   2  ARG2        0.1354
     12  N         85.5370   11.8810   -0.4430 N.am    3  ASP3       -0.1960
     13  CA        85.6040   11.1680   -1.7200 C.3     3  ASP3        0.1840
     14  C         85.2570   12.0820   -2.9020 C.2     3  ASP3        0.2622
     15  O         85.2460   13.3080   -2.7630 O.2     3  ASP3       -0.2715
     16  CB        84.7320    9.9000   -1.6990 C.3     3  ASP3        0.1450
     17  CG        83.2550   10.1970   -1.4890 C.2     3  ASP3        0.3671
     18  OD1       82.6340   10.8340   -2.3670 O.co2   3  ASP3       -0.2456
     19  OD2       82.7080    9.7710   -0.4500 O.co2   3  ASP3       -0.2456
     20  N         84.9710   11.4740   -4.0520 N.am    4  ALA4       -0.1963
     21  CA        84.7400   12.1990   -5.3040 C.3     4  ALA4        0.1728
     22  C         83.5130   13.1180   -5.2930 C.2     4  ALA4        0.2616
     23  O         83.4930   14.1370   -5.9860 O.2     4  ALA4       -0.2715
     24  CB        84.6610   11.2210   -6.4670 C.3     4  ALA4        0.0334
     25  N         82.5000   12.7560   -4.5100 N.am    5  PHE5       -0.1974
     26  CA        81.2480   13.5150   -4.4670 C.3     5  PHE5        0.1639
     27  C         81.3490   14.8130   -3.6650 C.2     5  PHE5        0.2290
     28  O         80.5600   15.7380   -3.8720 O.2     5  PHE5       -0.2864
     29  CB        80.1010   12.6410   -3.9480 C.3     5  PHE5        0.0560
     30  CG        79.7570   11.4960   -4.8570 C.ar    5  PHE5       -0.0200
     31  CD1       78.8840   11.6760   -5.9230 C.ar    5  PHE5       -0.0042
     32  CD2       80.3120   10.2370   -4.6510 C.ar    5  PHE5       -0.0042
     33  CE1       78.5700   10.6220   -6.7660 C.ar    5  PHE5       -0.0003
     34  CE2       80.0000    9.1790   -5.4910 C.ar    5  PHE5       -0.0003
     35  CZ        79.1280    9.3730   -6.5490 C.ar    5  PHE5       -0.0000
     36  N         84.0900   16.7150   -3.8200 N.3     7  THR7       -0.1203
     37  CA        84.7330   17.5980   -4.7940 C.3     7  THR7        0.1994
     38  C         83.7310   18.0300   -5.8690 C.2     7  THR7        0.2617
     39  O         83.8200   19.1380   -6.4030 O.2     7  THR7       -0.2717
     40  CB        85.9510   16.9180   -5.4600 C.3     7  THR7        0.1784
     41  OG1       86.6910   16.1790   -4.4800 O.3     7  THR7       -0.2211
     42  CG2       86.8690   17.9510   -6.1030 C.3     7  THR7        0.0376
     43  N         82.7770   17.1480   -6.1650 N.am    8  LEU8       -0.1979
     44  CA        81.7530   17.3930   -7.1820 C.3     8  LEU8        0.1596
     45  C         80.8470   18.5830   -6.8530 C.2     8  LEU8        0.2287
     46  O         80.4340   19.3170   -7.7490 O.2     8  LEU8       -0.2864
     47  CB        80.9130   16.1270   -7.4060 C.3     8  LEU8        0.0297
     48  CG        79.8880   16.0830   -8.5470 C.3     8  LEU8        0.0022
     49  CD1       80.5530   16.1930   -9.9120 C.3     8  LEU8        0.0001
     50  CD2       79.0600   14.8110   -8.4630 C.3     8  LEU8        0.0001
     51  N         83.6480   22.1940   -5.5420 N.3    11  HIS11      -0.1226
     52  CA        84.6410   22.7720   -6.4520 C.3    11  HIS11       0.1752
     53  C         84.2580   22.7960   -7.9090 C.2    11  HIS11       0.2595
     54  O         84.5630   23.7590   -8.6140 O.2    11  HIS11      -0.2718
     55  CB        86.0000   22.1080   -6.2500 C.3    11  HIS11       0.0759
     56  CG        86.6020   22.3680   -4.8890 C.ar   11  HIS11       0.0818
     57  ND1       87.3960   23.4270   -4.6380 N.ar   11  HIS11      -0.2268
     58  CD2       86.4860   21.6700   -3.6870 C.ar   11  HIS11       0.1154
     59  CE1       87.7750   23.4060   -3.3460 C.ar   11  HIS11       0.1986
     60  NE2       87.2170   22.3300   -2.7650 N.ar   11  HIS11      -0.2212
     61  N         83.5910   21.7420   -8.3740 N.am   12  ALA12      -0.1980
     62  CA        83.1570   21.6600   -9.7690 C.3    12  ALA12       0.1597
     63  C         81.6680   21.3060   -9.8970 C.2    12  ALA12       0.2287
     64  O         81.3280   20.1890  -10.3000 O.2    12  ALA12      -0.2864
     65  CB        84.0220   20.6690  -10.5370 C.3    12  ALA12       0.0319
     66  N         79.6230   20.1160  -13.4560 N.3    15  LYS15      -0.1245
     67  CA        79.6230   18.7550  -13.9930 C.3    15  LYS15       0.1561
     68  C         78.6480   17.8400  -13.2450 C.2    15  LYS15       0.2260
     69  O         78.7430   16.6140  -13.3310 O.2    15  LYS15      -0.2867
     70  CB        81.0410   18.1720  -13.9620 C.3    15  LYS15       0.0271
     71  CG        82.0320   18.8890  -14.8670 C.3    15  LYS15       0.0035
     72  CD        83.4600   18.4640  -14.5670 C.3    15  LYS15       0.0206
     73  CE        84.4630   19.3270  -15.3140 C.3    15  LYS15       0.1093
     74  NZ        85.8640   19.0020  -14.9280 N.3    15  LYS15      -0.1314
     75  N         75.8880   15.8910  -15.7090 N.3    18  VAL18      -0.1231
     76  CA        76.4110   14.7020  -16.3900 C.3    18  VAL18       0.1692
     77  C         76.4100   13.4930  -15.4490 C.2    18  VAL18       0.2591
     78  O         76.0650   12.3830  -15.8590 O.2    18  VAL18      -0.2718
     79  CB        77.8340   14.9390  -16.9570 C.3    18  VAL18       0.0266
     80  CG1       78.2940   13.7490  -17.7890 C.3    18  VAL18       0.0020
     81  CG2       77.8800   16.2110  -17.7950 C.3    18  VAL18       0.0020
     82  N         76.7900   13.7240  -14.1920 N.am   19  VAL19      -0.1980
     83  CA        76.7990   12.6840  -13.1590 C.3    19  VAL19       0.1595
     84  C         75.3790   12.1960  -12.8590 C.2    19  VAL19       0.2287
     85  O         75.1400   10.9900  -12.7410 O.2    19  VAL19      -0.2864
     86  CB        77.4910   13.1740  -11.8640 C.3    19  VAL19       0.0276
     87  CG1       77.3910   12.1360  -10.7550 C.3    19  VAL19       0.0022
     88  CG2       78.9490   13.5080  -12.1340 C.3    19  VAL19       0.0022
     89  N         73.8890   10.1490  -16.1680 N.3    22  SER22      -0.1202
     90  CA        74.4750    8.8180  -16.3400 C.3    22  SER22       0.2020
     91  C         74.0340    7.8410  -15.2500 C.2    22  SER22       0.2618
     92  O         73.9520    6.6340  -15.4900 O.2    22  SER22      -0.2717
     93  CB        76.0020    8.8960  -16.4250 C.3    22  SER22       0.2103
     94  OG        76.5370    9.7250  -15.4090 O.3    22  SER22      -0.2182
     95  N         73.7460    8.3670  -14.0610 N.am   23  LEU23      -0.1979
     96  CA        73.1840    7.5650  -12.9760 C.3    23  LEU23       0.1596
     97  C         71.6890    7.3180  -13.1790 C.2    23  LEU23       0.2287
     98  O         71.1810    6.2540  -12.8240 O.2    23  LEU23      -0.2864
     99  CB        73.4480    8.2180  -11.6150 C.3    23  LEU23       0.0297
    100  CG        74.8460    8.0350  -11.0120 C.3    23  LEU23       0.0022
    101  CD1       75.0720    9.0150   -9.8710 C.3    23  LEU23       0.0001
    102  CD2       75.0780    6.6050  -10.5420 C.3    23  LEU23       0.0001
    103  N         75.9680    5.0430   -6.8360 N.3   117  TYR117     -0.1241
    104  CA        77.2750    4.7880   -7.4440 C.3   117  TYR117      0.1605
    105  C         77.8480    3.4280   -7.0490 C.2   117  TYR117      0.2264
    106  O         78.5280    2.7840   -7.8510 O.2   117  TYR117     -0.2867
    107  CB        78.2670    5.9050   -7.1100 C.3   117  TYR117      0.0534
    108  CG        79.6090    5.7570   -7.7970 C.ar  117  TYR117     -0.0201
    109  CD1       79.7400    5.9700   -9.1700 C.ar  117  TYR117     -0.0009
    110  CD2       80.7470    5.4000   -7.0740 C.ar  117  TYR117     -0.0009
    111  CE1       80.9640    5.8300   -9.8030 C.ar  117  TYR117      0.0417
    112  CE2       81.9760    5.2600   -7.6990 C.ar  117  TYR117      0.0417
    113  CZ        82.0790    5.4770   -9.0620 C.ar  117  TYR117      0.1957
    114  OH        83.2960    5.3400   -9.6870 O.3   117  TYR117     -0.2866
    115  N         76.2050    1.1180   -9.2280 N.3   120  PHE120     -0.1227
    116  CA        76.7710    1.2740  -10.5640 C.3   120  PHE120      0.1736
    117  C         78.0680    0.4840  -10.7220 C.2   120  PHE120      0.2596
    118  O         78.2710   -0.1700  -11.7420 O.2   120  PHE120     -0.2718
    119  CB        77.0000    2.7540  -10.8960 C.3   120  PHE120      0.0547
    120  CG        77.4740    2.9940  -12.3050 C.ar  120  PHE120     -0.0202
    121  CD1       76.5650    3.0890  -13.3530 C.ar  120  PHE120     -0.0042
    122  CD2       78.8320    3.1230  -12.5850 C.ar  120  PHE120     -0.0042
    123  CE1       76.9990    3.3060  -14.6530 C.ar  120  PHE120     -0.0003
    124  CE2       79.2710    3.3390  -13.8820 C.ar  120  PHE120     -0.0003
    125  CZ        78.3530    3.4320  -14.9170 C.ar  120  PHE120     -0.0000
    126  N         78.9320    0.5470   -9.7090 N.am  121  THR121     -0.1953
    127  CA        80.2490   -0.0980   -9.7620 C.3   121  THR121      0.1897
    128  C         80.1750   -1.6190   -9.8880 C.2   121  THR121      0.2313
    129  O         80.9730   -2.2230  -10.6080 O.2   121  THR121     -0.2863
    130  CB        81.1300    0.2700   -8.5460 C.3   121  THR121      0.1794
    131  OG1       80.3740    0.1270   -7.3370 O.3   121  THR121     -0.2208
    132  CG2       81.6410    1.7000   -8.6610 C.3   121  THR121      0.0378
    133  N         77.5860   -2.6880  -13.3340 N.3   124  LYS124     -0.1245
    134  CA        77.9160   -1.8680  -14.4990 C.3   124  LYS124      0.1561
    135  C         77.5610   -2.5510  -15.8200 C.2   124  LYS124      0.2260
    136  O         76.9900   -1.9260  -16.7160 O.2   124  LYS124     -0.2867
    137  CB        79.4140   -1.5420  -14.4860 C.3   124  LYS124      0.0271
    138  CG        79.8040   -0.2680  -15.2220 C.3   124  LYS124      0.0035
    139  CD        81.2490   -0.3060  -15.7120 C.3   124  LYS124      0.0206
    140  CE        82.2670   -0.4460  -14.5840 C.3   124  LYS124      0.1093
    141  NZ        82.3150    0.7400  -13.6830 N.3   124  LYS124     -0.1314
@<TRIPOS>BOND
     1    81    79    1
     2    80    79    1
     3    79    76    1
     4   136   135    2
     5    93    90    1
     6    93    94    1
     7    76    75    1
     8    76    77    1
     9    90    89    1
    10    90    91    1
    11    78    77    2
    12   135   134    1
    13   139   138    1
    14   139   140    1
    15    92    91    2
    16    77    82   am
    17    73    74    1
    18    73    72    1
    19    91    95   am
    20   138   137    1
    21   125   123   ar
    22   125   124   ar
    23    71    72    1
    24    71    70    1
    25   123   121   ar
    26   140   141    1
    27   134   137    1
    28   134   133    1
    29    82    83    1
    30    95    96    1
    31    67    70    1
    32    67    66    1
    33    67    68    1
    34   124   122   ar
    35   121   120   ar
    36    69    68    2
    37    97    96    1
    38    97    98    2
    39    83    84    1
    40    83    86    1
    41    96    99    1
    42    84    85    2
    43   122   120   ar
    44   120   119    1
    45    88    86    1
    46    86    87    1
    47   118   117    2
    48    99   100    1
    49   100   102    1
    50   100   101    1
    51   119   116    1
    52   117   116    1
    53   117   126   am
    54   129   128    2
    55   116   115    1
    56    65    62    1
    57    64    63    2
    58    49    48    1
    59    63    62    1
    60   128   127    1
    61   111   109   ar
    62   111   113   ar
    63    62    61    1
    64   127   126    1
    65   127   130    1
    66   114   113    1
    67   109   108   ar
    68   113   112   ar
    69   132   130    1
    70    54    53    2
    71    48    50    1
    72    48    47    1
    73   130   131    1
    74    61    53   am
    75    53    52    1
    76   106   105    2
    77   108   107    1
    78   108   110   ar
    79    46    45    2
    80   112   110   ar
    81   104   107    1
    82   104   105    1
    83   104   103    1
    84    47    44    1
    85    44    45    1
    86    44    43    1
    87    33    35   ar
    88    33    31   ar
    89    35    34   ar
    90    24    21    1
    91    52    55    1
    92    52    51    1
    93    39    38    2
    94    55    56    1
    95    43    38   am
    96    42    40    1
    97    23    22    2
    98    31    30   ar
    99    38    37    1
   100    34    32   ar
   101    40    37    1
   102    40    41    1
   103    21    22    1
   104    21    20    1
   105    22    25   am
   106    56    57   ar
   107    56    58   ar
   108    30    32   ar
   109    30    29    1
   110    37    36    1
   111    57    59   ar
   112    25    26    1
   113    26    29    1
   114    26    27    1
   115    20    14   am
   116    28    27    2
   117    58    60   ar
   118    59    60   ar
   119    14    15    2
   120    14    13    1
   121    10     9    1
   122    18    17   ar
   123    11     9    1
   124    13    16    1
   125    13    12    1
   126    16    17    1
   127     9     8    2
   128    17    19   ar
   129    12     3   am
   130     8     7    1
   131     7     6    1
   132     4     3    2
   133     6     5    1
   134     3     2    1
   135     5     2    1
   136     2     1    1
