@<TRIPOS>MOLECULE
tmp/4ednD00.pdb
 120 114 0 0 0
SMALL
GASTEIGER

@<TRIPOS>ATOM
      1  N         36.0970   23.2820    9.4990 N.3     2  ALA2       -0.1231
      2  CA        34.9070   23.8220   10.1620 C.3     2  ALA2        0.1694
      3  C         33.7400   22.8330   10.1440 C.2     2  ALA2        0.2592
      4  O         32.9180   22.8170   11.0630 O.2     2  ALA2       -0.2718
      5  CB        34.5000   25.1440    9.5280 C.3     2  ALA2        0.0304
      6  N         33.6810   22.0150    9.0940 N.am    3  PHE3       -0.1976
      7  CA        32.6580   20.9800    8.9540 C.3     3  PHE3        0.1639
      8  C         33.0740   19.6450    9.5750 C.2     3  PHE3        0.2290
      9  O         32.2600   18.7260    9.6860 O.2     3  PHE3       -0.2864
     10  CB        32.2900   20.7890    7.4800 C.3     3  PHE3        0.0560
     11  CG        31.3440   21.8280    6.9540 C.ar    3  PHE3       -0.0200
     12  CD1       31.8220   23.0250    6.4290 C.ar    3  PHE3       -0.0042
     13  CD2       29.9710   21.6120    6.9840 C.ar    3  PHE3       -0.0042
     14  CE1       30.9480   23.9850    5.9440 C.ar    3  PHE3       -0.0003
     15  CE2       29.0920   22.5690    6.5010 C.ar    3  PHE3       -0.0003
     16  CZ        29.5810   23.7570    5.9820 C.ar    3  PHE3       -0.0000
     17  N         34.1360   19.3750   12.7080 N.3     5  THR5       -0.1203
     18  CA        33.6020   19.4330   14.0690 C.3     5  THR5        0.1994
     19  C         32.1170   19.0710   14.0730 C.2     5  THR5        0.2617
     20  O         31.6080   18.4960   15.0400 O.2     5  THR5       -0.2717
     21  CB        33.7880   20.8360   14.6890 C.3     5  THR5        0.1784
     22  OG1       35.0900   21.3400   14.3680 O.3     5  THR5       -0.2211
     23  CG2       33.6290   20.7900   16.2070 C.3     5  THR5        0.0376
     24  N         31.4390   19.4060   12.9770 N.am    6  LEU6       -0.1979
     25  CA        30.0000   19.1990   12.8320 C.3     6  LEU6        0.1596
     26  C         29.6180   17.7250   12.6580 C.2     6  LEU6        0.2287
     27  O         28.4760   17.3420   12.9170 O.2     6  LEU6       -0.2864
     28  CB        29.4750   20.0310   11.6530 C.3     6  LEU6        0.0297
     29  CG        27.9740   20.2960   11.4930 C.3     6  LEU6        0.0022
     30  CD1       27.4480   21.2250   12.5790 C.3     6  LEU6        0.0001
     31  CD2       27.6970   20.8790   10.1160 C.3     6  LEU6        0.0001
     32  N         30.0350   17.4120   17.3950 N.3    10  ALA10      -0.1245
     33  CA        28.6760   17.9200   17.5820 C.3    10  ALA10       0.1562
     34  C         27.7080   17.4400   16.4930 C.2    10  ALA10       0.2260
     35  O         27.4370   18.1710   15.5370 O.2    10  ALA10      -0.2867
     36  CB        28.6860   19.4420   17.6710 C.3    10  ALA10       0.0290
     37  N         24.0840   19.5390   16.0960 N.3    13  LYS13      -0.1245
     38  CA        23.9960   20.8030   15.3610 C.3    13  LYS13       0.1561
     39  C         24.0450   20.6100   13.8420 C.2    13  LYS13       0.2260
     40  O         23.9900   21.5810   13.0840 O.2    13  LYS13      -0.2867
     41  CB        25.1050   21.7600   15.8140 C.3    13  LYS13       0.0271
     42  CG        24.9750   22.2280   17.2560 C.3    13  LYS13       0.0035
     43  CD        26.2140   22.9810   17.7090 C.3    13  LYS13       0.0206
     44  CE        26.1520   23.3020   19.1940 C.3    13  LYS13       0.1093
     45  NZ        27.4080   23.9390   19.6780 N.3    13  LYS13      -0.1314
     46  N         20.6790   21.5540   12.2200 N.3    16  VAL16      -0.1231
     47  CA        20.5040   23.0090   12.2210 C.3    16  VAL16       0.1692
     48  C         21.1420   23.6290   10.9750 C.2    16  VAL16       0.2591
     49  O         20.5650   24.5260   10.3550 O.2    16  VAL16      -0.2718
     50  CB        21.0920   23.6580   13.4970 C.3    16  VAL16       0.0266
     51  CG1       20.6530   25.1120   13.6160 C.3    16  VAL16       0.0020
     52  CG2       20.6780   22.8810   14.7400 C.3    16  VAL16       0.0020
     53  N         22.3260   23.1360   10.6140 N.am   17  VAL17      -0.1980
     54  CA        23.0340   23.5950    9.4180 C.3    17  VAL17       0.1595
     55  C         22.3250   23.1050    8.1530 C.2    17  VAL17       0.2287
     56  O         22.1920   23.8550    7.1840 O.2    17  VAL17      -0.2864
     57  CB        24.5200   23.1600    9.4260 C.3    17  VAL17       0.0276
     58  CG1       25.2400   23.6450    8.1740 C.3    17  VAL17       0.0022
     59  CG2       25.2230   23.6910   10.6670 C.3    17  VAL17       0.0022
     60  N         18.9010   25.1030    7.6130 N.3    20  SER20      -0.1202
     61  CA        19.1930   26.4790    7.2140 C.3    20  SER20       0.2020
     62  C         19.7380   26.5660    5.7890 C.2    20  SER20       0.2618
     63  O         19.4860   27.5470    5.0880 O.2    20  SER20      -0.2717
     64  CB        20.1610   27.1360    8.2000 C.3    20  SER20       0.2103
     65  OG        21.3480   26.3760    8.3350 O.3    20  SER20      -0.2182
     66  N         20.4820   25.5430    5.3680 N.am   21  LEU21      -0.1979
     67  CA        20.9820   25.4700    3.9920 C.3    21  LEU21       0.1596
     68  C         19.8870   25.0770    3.0040 C.2    21  LEU21       0.2287
     69  O         19.8960   25.5270    1.8580 O.2    21  LEU21      -0.2864
     70  CB        22.1780   24.5170    3.8760 C.3    21  LEU21       0.0297
     71  CG        23.5550   25.0200    4.3270 C.3    21  LEU21       0.0022
     72  CD1       24.5770   23.8980    4.2440 C.3    21  LEU21       0.0001
     73  CD2       24.0240   26.2220    3.5190 C.3    21  LEU21       0.0001
     74  N         27.5630   25.6510    1.3590 N.3   115  TYR115     -0.1241
     75  CA        27.8980   26.7000    2.3240 C.3   115  TYR115      0.1605
     76  C         28.7210   27.8160    1.6850 C.2   115  TYR115      0.2264
     77  O         28.5600   28.9880    2.0360 O.2   115  TYR115     -0.2867
     78  CB        28.6330   26.1170    3.5360 C.3   115  TYR115      0.0534
     79  CG        29.0050   27.1390    4.5890 C.ar  115  TYR115     -0.0201
     80  CD1       28.0340   27.6950    5.4220 C.ar  115  TYR115     -0.0009
     81  CD2       30.3260   27.5510    4.7510 C.ar  115  TYR115     -0.0009
     82  CE1       28.3690   28.6340    6.3840 C.ar  115  TYR115      0.0417
     83  CE2       30.6710   28.4890    5.7120 C.ar  115  TYR115      0.0417
     84  CZ        29.6890   29.0260    6.5250 C.ar  115  TYR115      0.1957
     85  OH        30.0240   29.9580    7.4810 O.3   115  TYR115     -0.2866
     86  N         26.3510   29.9780    0.0890 N.3   118  PHE118     -0.1227
     87  CA        25.6150   30.7240    1.1080 C.3   118  PHE118      0.1736
     88  C         26.3730   31.9620    1.5870 C.2   118  PHE118      0.2596
     89  O         25.7700   33.0140    1.7980 O.2   118  PHE118     -0.2718
     90  CB        25.2560   29.8180    2.2930 C.3   118  PHE118      0.0547
     91  CG        24.5240   30.5270    3.4000 C.ar  118  PHE118     -0.0202
     92  CD1       23.1590   30.7820    3.3000 C.ar  118  PHE118     -0.0042
     93  CD2       25.2000   30.9430    4.5450 C.ar  118  PHE118     -0.0042
     94  CE1       22.4840   31.4400    4.3180 C.ar  118  PHE118     -0.0003
     95  CE2       24.5300   31.6000    5.5650 C.ar  118  PHE118     -0.0003
     96  CZ        23.1700   31.8480    5.4510 C.ar  118  PHE118     -0.0000
     97  N         27.6880   31.8290    1.7560 N.am  119  THR119     -0.1953
     98  CA        28.5290   32.9390    2.2150 C.3   119  THR119      0.1897
     99  C         28.5810   34.0790    1.1990 C.2   119  THR119      0.2313
    100  O         28.6030   35.2510    1.5790 O.2   119  THR119     -0.2863
    101  CB        29.9670   32.4860    2.5500 C.3   119  THR119      0.1794
    102  OG1       30.5330   31.7970    1.4280 O.3   119  THR119     -0.2208
    103  CG2       29.9790   31.5730    3.7710 C.3   119  THR119      0.0378
    104  N         24.4030   35.3200    0.3680 N.3   122  LYS122     -0.1231
    105  CA        23.6120   35.4260    1.5950 C.3   122  LYS122      0.1693
    106  C         22.3530   36.2740    1.4060 C.2   122  LYS122      0.2592
    107  O         21.2370   35.7660    1.5200 O.2   122  LYS122     -0.2718
    108  CB        24.4790   36.0060    2.7250 C.3   122  LYS122      0.0285
    109  CG        23.7660   36.2120    4.0560 C.3   122  LYS122      0.0035
    110  CD        24.3850   37.3570    4.8500 C.3   122  LYS122      0.0206
    111  CE        25.5950   36.9240    5.6650 C.3   122  LYS122      0.1093
    112  NZ        25.2040   36.2320    6.9250 N.3   122  LYS122     -0.1314
    113  N         22.5470   37.5560    1.1030 N.am  123  ASN123     -0.1974
    114  CA        21.4540   38.5280    1.0580 C.3   123  ASN123      0.1688
    115  C         20.8220   38.7270   -0.3220 C.2   123  ASN123      0.2292
    116  O         20.2080   39.7650   -0.5870 O.2   123  ASN123     -0.2864
    117  CB        21.9140   39.8690    1.6440 C.3   123  ASN123      0.1181
    118  CG        22.2140   39.7860    3.1300 C.2   123  ASN123      0.2629
    119  OD1       21.6100   38.9950    3.8580 O.2   123  ASN123     -0.2716
    120  ND2       23.1480   40.6100    3.5910 N.am  123  ASN123     -0.0877
@<TRIPOS>BOND
     1   116   115    2
     2   115   114    1
     3    86    87    1
     4   104   105    1
     5   114   113    1
     6   114   117    1
     7   113   106   am
     8    87    88    1
     9    87    90    1
    10    99   100    2
    11    99    98    1
    12    74    75    1
    13   106   107    2
    14   106   105    1
    15   102   101    1
    16    88    97   am
    17    88    89    2
    18   105   108    1
    19   117   118    1
    20    76    77    2
    21    76    75    1
    22    97    98    1
    23    69    68    2
    24    98   101    1
    25    90    91    1
    26    75    78    1
    27   101   103    1
    28   108   109    1
    29    68    67    1
    30   118   120   am
    31   118   119    2
    32    92    91   ar
    33    92    94   ar
    34    91    93   ar
    35    73    71    1
    36    78    79    1
    37    70    67    1
    38    70    71    1
    39    67    66    1
    40   109   110    1
    41    72    71    1
    42    94    96   ar
    43    93    95   ar
    44    79    81   ar
    45    79    80   ar
    46    81    83   ar
    47   110   111    1
    48    63    62    2
    49    66    62   am
    50    80    82   ar
    51    96    95   ar
    52   111   112    1
    53    83    84   ar
    54    62    61    1
    55    14    16   ar
    56    14    12   ar
    57    16    15   ar
    58    82    84   ar
    59    12    11   ar
    60    15    13   ar
    61    84    85    1
    62    11    13   ar
    63    11    10    1
    64    56    55    2
    65    61    60    1
    66    61    64    1
    67    10     7    1
    68    55    54    1
    69    58    57    1
    70    64    65    1
    71     7     6    1
    72     7     8    1
    73     6     3   am
    74    54    57    1
    75    54    53    1
    76    57    59    1
    77     1     2    1
    78     5     2    1
    79     8     9    2
    80    31    29    1
    81     3     2    1
    82     3     4    2
    83    49    48    2
    84    53    48   am
    85    48    47    1
    86    29    28    1
    87    29    30    1
    88    28    25    1
    89    46    47    1
    90    47    50    1
    91    26    25    1
    92    26    27    2
    93    17    18    1
    94    25    24    1
    95    24    19   am
    96    40    39    2
    97    50    51    1
    98    50    52    1
    99    39    38    1
   100    18    19    1
   101    18    21    1
   102    19    20    2
   103    22    21    1
   104    21    23    1
   105    38    41    1
   106    38    37    1
   107    35    34    2
   108    41    42    1
   109    34    33    1
   110    42    43    1
   111    32    33    1
   112    33    36    1
   113    43    44    1
   114    44    45    1
