@<TRIPOS>MOLECULE
tmp/4edqB00.pdb
 215 210 0 0 0
SMALL
GASTEIGER

@<TRIPOS>ATOM
      1  N         23.4570   44.7370   42.0610 N.3     9  ASN9       -0.1240
      2  CA        22.5270   45.7670   41.6120 C.3     9  ASN9        0.1653
      3  C         22.8260   46.2720   40.2230 C.2     9  ASN9        0.2266
      4  O         23.9830   46.3300   39.7890 O.2     9  ASN9       -0.2867
      5  CB        22.4710   46.9490   42.5710 C.3     9  ASN9        0.1155
      6  CG        21.1900   47.7740   42.4180 C.2     9  ASN9        0.2627
      7  OD1       20.0890   47.2330   42.2900 O.2     9  ASN9       -0.2716
      8  ND2       21.3380   49.0830   42.4230 N.am    9  ASN9       -0.0877
      9  N         23.0420   49.0340   38.9740 N.3    11  ASP11      -0.1225
     10  CA        23.8270   50.2450   38.7600 C.3    11  ASP11       0.1805
     11  C         25.3200   50.0250   38.8790 C.2    11  ASP11       0.2597
     12  O         26.1110   50.9510   38.6590 O.2    11  ASP11      -0.2718
     13  CB        23.3650   51.4100   39.6530 C.3    11  ASP11       0.1424
     14  CG        23.4780   51.1140   41.1330 C.2    11  ASP11       0.3668
     15  OD1       23.9890   50.0510   41.5160 O.co2  11  ASP11      -0.2456
     16  OD2       23.0370   51.9620   41.9270 O.co2  11  ASP11      -0.2456
     17  N         25.7050   48.7880   39.1750 N.am   12  LYS12      -0.1979
     18  CA        27.0980   48.4280   39.3750 C.3    12  LYS12       0.1596
     19  C         27.6510   47.7350   38.1200 C.2    12  LYS12       0.2287
     20  O         26.9030   47.4520   37.1570 O.2    12  LYS12      -0.2864
     21  CB        27.2380   47.5060   40.5950 C.3    12  LYS12       0.0298
     22  CG        26.7480   48.0820   41.9410 C.3    12  LYS12       0.0038
     23  CD        27.3400   49.4480   42.1570 C.3    12  LYS12       0.0206
     24  CE        27.1900   49.9280   43.5130 C.3    12  LYS12       0.1093
     25  NZ        25.7410   50.1680   43.8050 N.3    12  LYS12      -0.1314
     26  N         14.9010   44.7960   42.6350 N.3    39  LYS39      -0.1245
     27  CA        14.5830   44.5590   44.0360 C.3    39  LYS39       0.1561
     28  C         15.2330   43.2770   44.6030 C.2    39  LYS39       0.2260
     29  O         14.6360   42.5860   45.4420 O.2    39  LYS39      -0.2867
     30  CB        13.0630   44.4860   44.2050 C.3    39  LYS39       0.0271
     31  CG        12.3190   45.7470   43.7830 C.3    39  LYS39       0.0035
     32  CD        10.8370   45.5820   44.0280 C.3    39  LYS39       0.0206
     33  CE        10.0300   46.7470   43.4770 C.3    39  LYS39       0.1093
     34  NZ         8.5660   46.4680   43.5210 N.3    39  LYS39      -0.1314
     35  N         17.4290   42.8470   46.6690 N.3    41  GLU41      -0.1231
     36  CA        17.6990   42.8930   48.0970 C.3    41  GLU41       0.1699
     37  C         16.4530   42.5580   48.8690 C.2    41  GLU41       0.2592
     38  O         16.5350   42.1650   50.0350 O.2    41  GLU41      -0.2718
     39  CB        18.2710   44.2610   48.5230 C.3    41  GLU41       0.0402
     40  CG        17.2990   45.4000   48.7000 C.3    41  GLU41       0.1161
     41  CD        16.5890   45.8750   47.4240 C.2    41  GLU41       0.3649
     42  OE1       16.8560   45.3440   46.3220 O.co2  41  GLU41      -0.2457
     43  OE2       15.7410   46.7910   47.5470 O.co2  41  GLU41      -0.2457
     44  N         15.3000   42.7690   48.2450 N.am   42  GLU42      -0.1979
     45  CA        14.0310   42.4150   48.8630 C.3    42  GLU42       0.1602
     46  C         13.6760   40.9560   48.5910 C.2    42  GLU42       0.2287
     47  O         13.1310   40.2770   49.4380 O.2    42  GLU42      -0.2864
     48  CB        12.9270   43.3460   48.3560 C.3    42  GLU42       0.0415
     49  CG        12.9770   44.6750   49.0200 C.3    42  GLU42       0.1163
     50  CD        11.8840   45.6260   48.5820 C.2    42  GLU42       0.3649
     51  OE1       11.2040   45.3640   47.5660 O.co2  42  GLU42      -0.2457
     52  OE2       11.7380   46.6600   49.2700 O.co2  42  GLU42      -0.2457
     53  N         25.6500   43.8520   47.8570 N.3    59  TRP59      -0.1227
     54  CA        24.9110   45.0530   48.2490 C.3    59  TRP59       0.1737
     55  C         25.8020   45.8900   49.1350 C.2    59  TRP59       0.2595
     56  O         26.7920   45.3970   49.6350 O.2    59  TRP59      -0.2718
     57  CB        23.6310   44.6760   49.0050 C.3    59  TRP59       0.0564
     58  CG        22.5590   45.7970   49.0070 C.ar   59  TRP59       0.0003
     59  CD1       22.2740   46.6620   50.0170 C.ar   59  TRP59       0.0946
     60  CD2       21.7170   46.1670   47.9070 C.ar   59  TRP59       0.0152
     61  NE1       21.2660   47.5270   49.6350 N.ar   59  TRP59      -0.2442
     62  CE2       20.9100   47.2370   48.3390 C.ar   59  TRP59       0.0810
     63  CE3       21.5350   45.6690   46.6110 C.ar   59  TRP59       0.0012
     64  CZ2       19.9640   47.8340   47.5110 C.ar   59  TRP59       0.0191
     65  CZ3       20.6010   46.2410   45.8070 C.ar   59  TRP59       0.0001
     66  CH2       19.8250   47.3300   46.2450 C.ar   59  TRP59       0.0015
     67  N         25.4170   47.1360   49.3980 N.am   60  ALA60      -0.1980
     68  CA        26.0850   47.8710   50.4570 C.3    60  ALA60       0.1597
     69  C         25.8600   47.1290   51.7610 C.2    60  ALA60       0.2287
     70  O         24.8570   46.4260   51.9580 O.2    60  ALA60      -0.2864
     71  CB        25.5390   49.2810   50.5670 C.3    60  ALA60       0.0319
     72  N         24.8390   47.9130   54.6280 N.3    62  ASP62      -0.1225
     73  CA        23.7140   48.2200   55.5140 C.3    62  ASP62       0.1805
     74  C         22.6630   47.1040   55.5650 C.2    62  ASP62       0.2597
     75  O         22.0260   46.8910   56.5890 O.2    62  ASP62      -0.2718
     76  CB        23.0890   49.5950   55.2000 C.3    62  ASP62       0.1424
     77  CG        22.3760   49.6530   53.8660 C.2    62  ASP62       0.3668
     78  OD1       23.0660   49.4450   52.8460 O.co2  62  ASP62      -0.2456
     79  OD2       21.1280   49.9590   53.8270 O.co2  62  ASP62      -0.2456
     80  N         22.4880   46.3670   54.4850 N.am   63  ARG63      -0.1979
     81  CA        21.4400   45.3510   54.4650 C.3    63  ARG63       0.1597
     82  C         21.8380   44.0860   55.1800 C.2    63  ARG63       0.2287
     83  O         20.9980   43.2200   55.4380 O.2    63  ARG63      -0.2864
     84  CB        21.1190   44.9680   53.0060 C.3    63  ARG63       0.0334
     85  CG        19.9220   45.6680   52.4050 C.3    63  ARG63       0.0492
     86  CD        18.6780   45.0940   53.0110 C.3    63  ARG63       0.2205
     87  NE        17.4620   45.5340   52.3340 N.pl3  63  ARG63      -0.0865
     88  CZ        16.2770   44.9860   52.5560 C.cat  63  ARG63       0.5346
     89  NH1       16.1820   43.9870   53.4190 N.pl3  63  ARG63       0.1354
     90  NH2       15.1990   45.4240   51.9150 N.pl3  63  ARG63       0.1354
     91  N         31.9110   53.6650   49.1010 N.3   108  GLU108     -0.1245
     92  CA        31.1750   54.5760   48.2320 C.3   108  GLU108      0.1567
     93  C         30.6060   55.7090   49.0590 C.2   108  GLU108      0.2260
     94  O         30.1930   55.4780   50.1650 O.2   108  GLU108     -0.2867
     95  CB        29.9520   53.8710   47.6070 C.3   108  GLU108      0.0388
     96  CG        30.1240   52.4220   47.1680 C.3   108  GLU108      0.1160
     97  CD        28.7810   51.7340   46.8640 C.2   108  GLU108      0.3649
     98  OE1       27.7240   52.1910   47.3320 O.co2 108  GLU108     -0.2457
     99  OE2       28.7790   50.7530   46.1350 O.co2 108  GLU108     -0.2457
    100  N         18.1550   62.0260   41.8840 N.3   147  ASN147     -0.1240
    101  CA        17.0830   61.0820   42.1990 C.3   147  ASN147      0.1653
    102  C         16.3460   61.4590   43.4780 C.2   147  ASN147      0.2266
    103  O         16.9100   61.3980   44.5520 O.2   147  ASN147     -0.2867
    104  CB        17.7040   59.7120   42.3640 C.3   147  ASN147      0.1155
    105  CG        16.6740   58.6210   42.5830 C.2   147  ASN147      0.2627
    106  OD1       15.4680   58.8510   42.5030 O.2   147  ASN147     -0.2716
    107  ND2       17.1600   57.4250   42.8020 N.am  147  ASN147     -0.0877
    108  N         14.6500   57.9200   46.0240 N.3   150  GLU150     -0.1231
    109  CA        15.3630   57.0960   46.9990 C.3   150  GLU150      0.1684
    110  C         15.9690   57.9920   48.0490 C.2   150  GLU150      0.2434
    111  O         16.7410   58.9040   47.7370 O.2   150  GLU150     -0.2733
    112  CB        16.4860   56.2780   46.3130 C.3   150  GLU150      0.0402
    113  CG        15.9770   55.0650   45.5030 C.3   150  GLU150      0.1161
    114  CD        15.3770   53.9560   46.3800 C.2   150  GLU150      0.3649
    115  OE1       15.6240   53.9010   47.6270 O.co2 150  GLU150     -0.2457
    116  OE2       14.6360   53.1340   45.7980 O.co2 150  GLU150     -0.2457
    117  N         15.6390   57.7460   49.3290 N.am  151  PRO151     -0.2718
    118  CA        16.1230   58.6110   50.4100 C.3   151  PRO151      0.1535
    119  C         17.6690   58.7150   50.5370 C.2   151  PRO151      0.2599
    120  O         18.1450   59.6640   51.1230 O.2   151  PRO151     -0.2715
    121  CB        15.5070   57.9780   51.6580 C.3   151  PRO151      0.0310
    122  CG        15.1660   56.5980   51.2700 C.3   151  PRO151      0.0237
    123  CD        14.7640   56.6830   49.8250 C.3   151  PRO151      0.0939
    124  N         18.4210   57.7520   50.0160 N.am  152  TYR152     -0.1960
    125  CA        19.8660   57.8300   50.0000 C.3   152  TYR152      0.1771
    126  C         20.3870   59.1320   49.4160 C.2   152  TYR152      0.2619
    127  O         21.3790   59.6750   49.9070 O.2   152  TYR152     -0.2715
    128  CB        20.3740   56.6470   49.2160 C.3   152  TYR152      0.0574
    129  CG        21.8490   56.5220   49.0390 C.ar  152  TYR152     -0.0198
    130  CD1       22.6400   56.0450   50.0500 C.ar  152  TYR152     -0.0009
    131  CD2       22.4340   56.8470   47.8380 C.ar  152  TYR152     -0.0009
    132  CE1       24.0130   55.8720   49.8720 C.ar  152  TYR152      0.0417
    133  CE2       23.7990   56.6780   47.6360 C.ar  152  TYR152      0.0417
    134  CZ        24.5740   56.1970   48.6670 C.ar  152  TYR152      0.1957
    135  OH        25.9260   56.0250   48.5040 O.3   152  TYR152     -0.2866
    136  N         19.7370   59.6410   48.3630 N.am  153  PHE153     -0.1974
    137  CA        20.2200   60.8390   47.6900 C.3   153  PHE153      0.1639
    138  C         19.8300   62.1340   48.3890 C.2   153  PHE153      0.2290
    139  O         20.5190   63.1400   48.2570 O.2   153  PHE153     -0.2864
    140  CB        19.7340   60.8560   46.2140 C.3   153  PHE153      0.0560
    141  CG        20.2690   59.7200   45.4080 C.ar  153  PHE153     -0.0200
    142  CD1       19.6710   58.4690   45.4590 C.ar  153  PHE153     -0.0042
    143  CD2       21.3530   59.9060   44.5670 C.ar  153  PHE153     -0.0042
    144  CE1       20.1760   57.4050   44.7270 C.ar  153  PHE153     -0.0003
    145  CE2       21.8740   58.8430   43.8250 C.ar  153  PHE153     -0.0003
    146  CZ        21.2850   57.5940   43.9150 C.ar  153  PHE153     -0.0000
    147  N         29.8390   54.8420   40.6370 N.3   227  TRP227     -0.1241
    148  CA        29.2250   53.9730   39.6180 C.3   227  TRP227      0.1605
    149  C         28.7010   54.7540   38.4280 C.2   227  TRP227      0.2264
    150  O         28.5990   54.2040   37.3010 O.2   227  TRP227     -0.2867
    151  CB        28.1320   53.0970   40.2380 C.3   227  TRP227      0.0550
    152  CG        27.0640   53.9310   40.8840 C.ar  227  TRP227      0.0003
    153  CD1       26.0310   54.5310   40.2490 C.ar  227  TRP227      0.0946
    154  CD2       26.9580   54.3020   42.2620 C.ar  227  TRP227      0.0152
    155  NE1       25.2790   55.2650   41.1230 N.ar  227  TRP227     -0.2442
    156  CE2       25.8110   55.1280   42.3760 C.ar  227  TRP227      0.0810
    157  CE3       27.6910   53.9940   43.4160 C.ar  227  TRP227      0.0012
    158  CZ2       25.4040   55.6660   43.5870 C.ar  227  TRP227      0.0191
    159  CZ3       27.2900   54.5390   44.6190 C.ar  227  TRP227      0.0001
    160  CH2       26.1410   55.3620   44.6980 C.ar  227  TRP227      0.0015
    161  N         28.7340   53.8890   52.3440 N.3   257  GLY257     -0.1225
    162  CA        28.3890   52.5200   52.0470 C.3   257  GLY257      0.1811
    163  C         29.6170   51.7420   51.6320 C.2   257  GLY257      0.2280
    164  O         30.5270   52.2360   50.9480 O.2   257  GLY257     -0.2866
    165  N         27.0110   54.0650   57.2760 N.3   327  MET327     -0.1245
    166  CA        25.6940   53.4490   57.5270 C.3   327  MET327      0.1570
    167  C         25.7820   52.4010   58.6400 C.2   327  MET327      0.2261
    168  O         26.6510   51.5520   58.6510 O.2   327  MET327     -0.2867
    169  CB        25.0750   52.8180   56.2770 C.3   327  MET327      0.0387
    170  CG        24.4500   53.8160   55.3520 C.3   327  MET327      0.0595
    171  SD        23.7210   53.0550   53.9020 S.3   327  MET327     -0.1393
    172  CE        25.0640   52.1210   53.3290 C.3   327  MET327      0.0692
    173  N         16.5120   48.6080   57.7340 N.3   334  SER334     -0.1217
    174  CA        15.4580   48.4310   56.7480 C.3   334  SER334      0.1889
    175  C         14.2230   49.2690   57.1380 C.2   334  SER334      0.2288
    176  O         13.6540   49.9680   56.2990 O.2   334  SER334     -0.2866
    177  CB        15.0750   46.9590   56.6240 C.3   334  SER334      0.2089
    178  OG        14.1840   46.7900   55.5350 O.3   334  SER334     -0.2183
    179  N         15.0450   52.9480   56.4630 N.3   337  TRP337     -0.1227
    180  CA        15.0100   53.3120   55.0460 C.3   337  TRP337      0.1737
    181  C         13.5800   53.4260   54.4890 C.2   337  TRP337      0.2595
    182  O         13.2640   54.3750   53.7580 O.2   337  TRP337     -0.2718
    183  CB        15.8370   52.3540   54.2040 C.3   337  TRP337      0.0564
    184  CG        17.3290   52.6130   54.2200 C.ar  337  TRP337      0.0003
    185  CD1       18.3250   51.6960   54.4410 C.ar  337  TRP337      0.0946
    186  CD2       17.9930   53.8540   53.9440 C.ar  337  TRP337      0.0152
    187  NE1       19.5520   52.2930   54.3220 N.ar  337  TRP337     -0.2442
    188  CE2       19.3870   53.6100   54.0180 C.ar  337  TRP337      0.0810
    189  CE3       17.5480   55.1340   53.6280 C.ar  337  TRP337      0.0012
    190  CZ2       20.3320   54.6180   53.7930 C.ar  337  TRP337      0.0191
    191  CZ3       18.4840   56.1240   53.4140 C.ar  337  TRP337      0.0001
    192  CH2       19.8560   55.8610   53.5090 C.ar  337  TRP337      0.0015
    193  N         12.7170   52.4710   54.8240 N.am  338  TYR338     -0.1976
    194  CA        11.3630   52.4980   54.3290 C.3   338  TYR338      0.1639
    195  C         10.6260   53.7120   54.8720 C.2   338  TYR338      0.2290
    196  O          9.8650   54.3690   54.1640 O.2   338  TYR338     -0.2864
    197  CB        10.6480   51.2020   54.7080 C.3   338  TYR338      0.0560
    198  CG        11.1000   50.0020   53.8810 C.ar  338  TYR338     -0.0198
    199  CD1       10.9230   49.9950   52.5050 C.ar  338  TYR338     -0.0009
    200  CD2       11.6170   48.8680   54.4770 C.ar  338  TYR338     -0.0009
    201  CE1       11.3140   48.9080   51.7410 C.ar  338  TYR338      0.0417
    202  CE2       11.9990   47.7790   53.7250 C.ar  338  TYR338      0.0417
    203  CZ        11.8430   47.8050   52.3600 C.ar  338  TYR338      0.1957
    204  OH        12.2150   46.7040   51.6210 O.3   338  TYR338     -0.2866
    205  N         11.9330   56.8580   53.1810 N.3   341  ARG341     -0.1245
    206  CA        11.5430   56.9150   51.7750 C.3   341  ARG341      0.1563
    207  C         10.1710   57.5420   51.6840 C.2   341  ARG341      0.2260
    208  O          9.9220   58.4370   50.9020 O.2   341  ARG341     -0.2867
    209  CB        11.5200   55.5330   51.1460 C.3   341  ARG341      0.0307
    210  CG        11.0850   55.5510   49.6790 C.3   341  ARG341      0.0489
    211  CD        10.9810   54.1680   49.0550 C.3   341  ARG341      0.2205
    212  NE         9.9300   53.3420   49.6460 N.pl3 341  ARG341     -0.0865
    213  CZ         9.6890   52.0800   49.2990 C.cat 341  ARG341      0.5346
    214  NH1       10.4260   51.4920   48.3660 N.pl3 341  ARG341      0.1354
    215  NH2        8.7180   51.3990   49.8790 N.pl3 341  ARG341      0.1354
@<TRIPOS>BOND
     1    20    19    2
     2   150   149    2
     3    19    18    1
     4   149   148    1
     5    12    11    2
     6    10    11    1
     7    10     9    1
     8    10    13    1
     9    11    17   am
    10    17    18    1
    11    18    21    1
    12   148   151    1
    13   148   147    1
    14    13    14    1
    15     4     3    2
    16     3     2    1
    17   151   152    1
    18   153   152   ar
    19   153   155   ar
    20    21    22    1
    21   152   154   ar
    22   155   156   ar
    23    14    15   ar
    24    14    16   ar
    25     2     1    1
    26     2     5    1
    27   100   101    1
    28    22    23    1
    29    23    24    1
    30   101   104    1
    31   101   102    1
    32   154   156   ar
    33   154   157   ar
    34     7     6    2
    35   104   105    1
    36   156   158   ar
    37     6     8   am
    38     6     5    1
    39   106   105    2
    40   105   107   am
    41    26    27    1
    42   157   159   ar
    43    33    34    1
    44    33    32    1
    45   102   103    2
    46    24    25    1
    47   158   160   ar
    48    31    32    1
    49    31    30    1
    50   145   146   ar
    51   145   143   ar
    52   146   144   ar
    53    27    30    1
    54    27    28    1
    55   143   141   ar
    56    28    29    2
    57   159   160   ar
    58   144   142   ar
    59   141   142   ar
    60   141   140    1
    61   113   112    1
    62   113   114    1
    63   116   114   ar
    64    65    66   ar
    65    65    63   ar
    66   108   109    1
    67    99    97   ar
    68   140   137    1
    69    66    64   ar
    70   112   109    1
    71    42    41   ar
    72   114   115   ar
    73    63    60   ar
    74    35    36    1
    75    97    96    1
    76    97    98   ar
    77   109   110    1
    78    96    95    1
    79    41    43   ar
    80    41    40    1
    81    64    62   ar
    82    51    50   ar
    83    95    92    1
    84   133   131   ar
    85   133   134   ar
    86   137   136    1
    87   137   138    1
    88   111   110    2
    89   131   129   ar
    90    53    54    1
    91    60    62   ar
    92    60    58   ar
    93   110   117   am
    94    36    39    1
    95    36    37    1
    96    92    93    1
    97    92    91    1
    98    44    45    1
    99    44    37   am
   100    54    57    1
   101    54    55    1
   102   139   138    2
   103    62    61   ar
   104    48    45    1
   105    48    49    1
   106   136   126   am
   107   214   213    1
   108   135   134    1
   109    39    40    1
   110    50    49    1
   111    50    52   ar
   112    46    45    1
   113    46    47    2
   114   134   132   ar
   115    37    38    2
   116    57    58    1
   117    58    59   ar
   118   129   128    1
   119   129   130   ar
   120   211   212    1
   121   211   210    1
   122    93    94    2
   123    55    67   am
   124    55    56    2
   125   128   125    1
   126   213   212    2
   127   213   215    1
   128   117   123    1
   129   117   118    1
   130    67    68    1
   131   126   127    2
   132   126   125    1
   133    61    59   ar
   134   210   209    1
   135   123   122    1
   136   132   130   ar
   137   125   124    1
   138   124   119   am
   139   118   119    1
   140   118   121    1
   141    68    71    1
   142    68    69    1
   143   119   120    2
   144   208   207    2
   145   164   163    2
   146   209   206    1
   147   122   121    1
   148   204   203    1
   149   163   162    1
   150   207   206    1
   151   201   203   ar
   152   201   199   ar
   153    69    70    2
   154   206   205    1
   155    90    88    1
   156   162   161    1
   157    87    88    2
   158    87    86    1
   159   203   202   ar
   160    85    84    1
   161    85    86    1
   162   199   198   ar
   163    88    89    1
   164    78    77   ar
   165    84    81    1
   166   172   171    1
   167   191   192   ar
   168   191   189   ar
   169   192   190   ar
   170   189   186   ar
   171   202   200   ar
   172   182   181    2
   173   190   188   ar
   174    79    77   ar
   175    77    76    1
   176   198   200   ar
   177   198   197    1
   178   171   170    1
   179   186   188   ar
   180   186   184   ar
   181   188   187   ar
   182   196   195    2
   183   183   184    1
   184   183   180    1
   185   184   185   ar
   186   187   185   ar
   187   194   197    1
   188   194   193    1
   189   194   195    1
   190    81    80    1
   191    81    82    1
   192    80    74   am
   193   181   193   am
   194   181   180    1
   195    72    73    1
   196   180   179    1
   197    82    83    2
   198    76    73    1
   199   170   169    1
   200    73    74    1
   201   178   177    1
   202    74    75    2
   203   169   166    1
   204   176   175    2
   205   177   174    1
   206   174   175    1
   207   174   173    1
   208   165   166    1
   209   166   167    1
   210   167   168    2
