@<TRIPOS>MOLECULE
tmp/4edtA01.pdb
 125 117 0 0 0
SMALL
GASTEIGER

@<TRIPOS>ATOM
      1  N         48.7600   85.0250   13.1170 N.3    39  ARG39      -0.1245
      2  CA        49.6380   85.6760   12.1560 C.3    39  ARG39       0.1563
      3  C         48.8220   86.4700   11.1380 C.2    39  ARG39       0.2260
      4  O         49.3280   86.8690   10.0840 O.2    39  ARG39      -0.2867
      5  CB        50.5270   84.6480   11.4570 C.3    39  ARG39       0.0307
      6  CG        51.8210   85.2280   10.9960 C.3    39  ARG39       0.0489
      7  CD        52.6790   84.2420   10.2460 C.3    39  ARG39       0.2205
      8  NE        53.6450   84.9710    9.4350 N.pl3  39  ARG39      -0.0865
      9  CZ        54.7610   84.4490    8.9450 C.cat  39  ARG39       0.5346
     10  NH1       55.0690   83.1830    9.1900 N.pl3  39  ARG39       0.1354
     11  NH2       55.5690   85.2030    8.2160 N.pl3  39  ARG39       0.1354
     12  N         55.0890   74.8180    5.5400 N.3   115  ARG115     -0.1245
     13  CA        55.7730   75.5410    6.6080 C.3   115  ARG115      0.1563
     14  C         55.5930   74.8730    7.9600 C.2   115  ARG115      0.2260
     15  O         54.4900   74.4470    8.3220 O.2   115  ARG115     -0.2867
     16  CB        55.2990   76.9940    6.6960 C.3   115  ARG115      0.0307
     17  CG        56.2360   77.8800    7.5240 C.3   115  ARG115      0.0489
     18  CD        55.5490   79.1390    8.0240 C.3   115  ARG115      0.2205
     19  NE        56.4990   80.1060    8.5880 N.pl3 115  ARG115     -0.0865
     20  CZ        57.0060   80.0380    9.8170 C.cat 115  ARG115      0.5346
     21  NH1       57.8480   80.9730   10.2380 N.pl3 115  ARG115      0.1354
     22  NH2       56.6670   79.0450   10.6320 N.pl3 115  ARG115      0.1354
     23  N         63.0890   72.3030   11.2620 N.3   121  GLU121     -0.1231
     24  CA        63.9320   72.5880   10.1020 C.3   121  GLU121      0.1684
     25  C         63.6970   71.5640    8.9990 C.2   121  GLU121      0.2434
     26  O         63.5900   70.3720    9.2770 O.2   121  GLU121     -0.2733
     27  CB        65.4120   72.5870   10.4940 C.3   121  GLU121      0.0402
     28  CG        65.7900   73.6510   11.5080 C.3   121  GLU121      0.1161
     29  CD        65.5690   75.0550   10.9840 C.2   121  GLU121      0.3649
     30  OE1       65.0110   75.8870   11.7300 O.co2 121  GLU121     -0.2457
     31  OE2       65.9550   75.3270    9.8290 O.co2 121  GLU121     -0.2457
     32  N         63.6080   72.0260    7.7400 N.am  122  PRO122     -0.2718
     33  CA        63.6720   73.4450    7.3640 C.3   122  PRO122      0.1535
     34  C         62.3480   74.1480    7.6570 C.2   122  PRO122      0.2598
     35  O         61.3200   73.4720    7.7330 O.2   122  PRO122     -0.2715
     36  CB        63.9070   73.3860    5.8560 C.3   122  PRO122      0.0310
     37  CG        63.2230   72.1100    5.4350 C.3   122  PRO122      0.0237
     38  CD        63.4890   71.1470    6.5610 C.3   122  PRO122      0.0939
     39  N         62.3850   75.4680    7.8350 N.am  123  LYS123     -0.1964
     40  CA        61.1740   76.2510    8.0760 C.3   123  LYS123      0.1728
     41  C         60.1400   75.9910    6.9880 C.2   123  LYS123      0.2616
     42  O         58.9840   75.6810    7.2810 O.2   123  LYS123     -0.2715
     43  CB        61.4960   77.7470    8.1340 C.3   123  LYS123      0.0311
     44  CG        60.2660   78.6320    8.2960 C.3   123  LYS123      0.0038
     45  CD        60.6050   80.1210    8.2430 C.3   123  LYS123      0.0206
     46  CE        61.4540   80.5600    9.4270 C.3   123  LYS123      0.1093
     47  NZ        61.6770   82.0370    9.3990 N.3   123  LYS123     -0.1314
     48  N         60.5670   76.1180    5.7340 N.am  124  TYR124     -0.1974
     49  CA        59.7140   75.8300    4.5810 C.3   124  TYR124      0.1639
     50  C         60.2540   74.6390    3.8040 C.2   124  TYR124      0.2290
     51  O         61.4270   74.6130    3.4340 O.2   124  TYR124     -0.2864
     52  CB        59.6520   77.0260    3.6250 C.3   124  TYR124      0.0560
     53  CG        58.8450   78.2050    4.1160 C.ar  124  TYR124     -0.0198
     54  CD1       57.4800   78.2850    3.8740 C.ar  124  TYR124     -0.0009
     55  CD2       59.4520   79.2480    4.8040 C.ar  124  TYR124     -0.0009
     56  CE1       56.7370   79.3730    4.3110 C.ar  124  TYR124      0.0417
     57  CE2       58.7200   80.3370    5.2470 C.ar  124  TYR124      0.0417
     58  CZ        57.3640   80.3940    4.9970 C.ar  124  TYR124      0.1957
     59  OH        56.6300   81.4770    5.4320 O.3   124  TYR124     -0.2866
     60  N         60.6480   88.6560   -1.9760 N.3   159  GLU159     -0.1231
     61  CA        61.6280   87.6270   -1.6520 C.3   159  GLU159      0.1699
     62  C         60.9980   86.2450   -1.4390 C.2   159  GLU159      0.2592
     63  O         61.6040   85.2190   -1.7550 O.2   159  GLU159     -0.2718
     64  CB        62.4170   88.0500   -0.4090 C.3   159  GLU159      0.0402
     65  CG        63.7900   87.4260   -0.2950 C.3   159  GLU159      0.1161
     66  CD        64.6690   88.1500    0.7040 C.2   159  GLU159      0.3649
     67  OE1       65.2830   87.4690    1.5550 O.co2 159  GLU159     -0.2457
     68  OE2       64.7480   89.3990    0.6370 O.co2 159  GLU159     -0.2457
     69  N         59.7810   86.2160   -0.9080 N.am  160  GLY160     -0.1957
     70  CA        59.1390   84.9550   -0.5850 C.3   160  GLY160      0.1869
     71  C         57.6370   85.0100   -0.7630 C.2   160  GLY160      0.2309
     72  O         57.0440   86.0930   -0.7430 O.2   160  GLY160     -0.2863
     73  N         55.2330   84.2380    1.1810 N.3   162  MET162     -0.1230
     74  CA        54.4830   84.7280    2.3300 C.3   162  MET162      0.1702
     75  C         54.3190   86.2430    2.2670 C.2   162  MET162      0.2592
     76  O         53.2690   86.7820    2.6180 O.2   162  MET162     -0.2718
     77  CB        55.1550   84.3250    3.6460 C.3   162  MET162      0.0401
     78  CG        54.4370   84.8520    4.8740 C.3   162  MET162      0.0596
     79  SD        52.7740   84.1710    5.0830 S.3   162  MET162     -0.1393
     80  CE        53.1510   82.4200    5.1470 C.3   162  MET162      0.0692
     81  N         55.3580   86.9300    1.8070 N.am  163  ASP163     -0.1974
     82  CA        55.2780   88.3720    1.6230 C.3   163  ASP163      0.1709
     83  C         54.2870   88.6950    0.5170 C.2   163  ASP163      0.2293
     84  O         53.5910   89.7070    0.5660 O.2   163  ASP163     -0.2864
     85  CB        56.6530   88.9360    1.2750 C.3   163  ASP163      0.1436
     86  CG        57.6550   88.7440    2.3950 C.2   163  ASP163      0.3671
     87  OD1       57.3260   89.1090    3.5440 O.co2 163  ASP163     -0.2456
     88  OD2       58.7580   88.2180    2.1280 O.co2 163  ASP163     -0.2456
     89  N         63.8420   92.1000    1.3870 N.3   203  ASP203     -0.1239
     90  CA        63.8940   92.4490    2.8040 C.3   203  ASP203      0.1674
     91  C         64.9140   93.5560    3.0790 C.2   203  ASP203      0.2266
     92  O         65.8950   93.7150    2.3440 O.2   203  ASP203     -0.2867
     93  CB        64.1760   91.2110    3.6660 C.3   203  ASP203      0.1410
     94  CG        63.1940   90.0760    3.4010 C.2   203  ASP203      0.3668
     95  OD1       63.4550   88.9420    3.8620 O.co2 203  ASP203     -0.2456
     96  OD2       62.1670   90.3110    2.7220 O.co2 203  ASP203     -0.2456
     97  N         67.4530   94.0980    4.8300 N.3   205  ASP205     -0.1239
     98  CA        68.7190   93.7480    5.4570 C.3   205  ASP205      0.1674
     99  C         69.8180   93.5820    4.4170 C.2   205  ASP205      0.2266
    100  O         69.5910   93.7980    3.2250 O.2   205  ASP205     -0.2867
    101  CB        68.5840   92.4820    6.3040 C.3   205  ASP205      0.1410
    102  CG        67.9870   91.3180    5.5360 C.2   205  ASP205      0.3668
    103  OD1       68.1230   91.2570    4.2940 O.co2 205  ASP205     -0.2456
    104  OD2       67.3790   90.4510    6.1900 O.co2 205  ASP205     -0.2456
    105  N         71.4050   90.8420    3.2420 N.3   207  ALA207     -0.1245
    106  CA        71.1260   89.8120    2.2530 C.3   207  ALA207      0.1562
    107  C         70.1560   90.3380    1.1990 C.2   207  ALA207      0.2260
    108  O         70.3120   90.0680    0.0070 O.2   207  ALA207     -0.2867
    109  CB        70.5640   88.5600    2.9240 C.3   207  ALA207      0.0290
    110  N         60.5200   92.8980    6.3760 N.3   236  ASP236     -0.1239
    111  CA        59.9680   92.3950    5.1240 C.3   236  ASP236      0.1674
    112  C         58.5560   92.9790    4.9780 C.2   236  ASP236      0.2266
    113  O         58.0440   93.5740    5.9270 O.2   236  ASP236     -0.2867
    114  CB        59.9590   90.8580    5.1080 C.3   236  ASP236      0.1410
    115  CG        59.2240   90.2560    6.2970 C.2   236  ASP236      0.3668
    116  OD1       58.0170   90.5230    6.4650 O.co2 236  ASP236     -0.2456
    117  OD2       59.8570   89.4950    7.0570 O.co2 236  ASP236     -0.2456
    118  N         55.5750   91.6670    4.9700 N.3   238  ASP238     -0.1239
    119  CA        54.6620   91.1400    5.9840 C.3   238  ASP238      0.1674
    120  C         54.8340   91.8530    7.3290 C.2   238  ASP238      0.2266
    121  O         53.8510   92.1990    7.9850 O.2   238  ASP238     -0.2867
    122  CB        54.8520   89.6290    6.1490 C.3   238  ASP238      0.1410
    123  CG        53.9960   89.0490    7.2620 C.2   238  ASP238      0.3668
    124  OD1       52.8560   89.5220    7.4580 O.co2 238  ASP238     -0.2456
    125  OD2       54.4680   88.1180    7.9490 O.co2 238  ASP238     -0.2456
@<TRIPOS>BOND
     1    60    61    1
     2    63    62    2
     3    61    62    1
     4    61    64    1
     5    62    69   am
     6    69    70    1
     7    71    72    2
     8    71    70    1
     9    64    65    1
    10    65    66    1
    11   108   107    2
    12    83    84    2
    13    83    82    1
    14    68    66   ar
    15    66    67   ar
    16    73    74    1
    17   107   106    1
    18    85    82    1
    19    85    86    1
    20    89    90    1
    21    82    81    1
    22    81    75   am
    23    88    86   ar
    24   106   109    1
    25   106   105    1
    26    75    74    1
    27    75    76    2
    28    74    77    1
    29    92    91    2
    30    86    87   ar
    31    96    94   ar
    32    90    91    1
    33    90    93    1
    34   100    99    2
    35    94    93    1
    36    94    95   ar
    37    51    50    2
    38    52    53    1
    39    52    49    1
    40    77    78    1
    41    50    49    1
    42    54    53   ar
    43    54    56   ar
    44    53    55   ar
    45   103   102   ar
    46    56    58   ar
    47    99    98    1
    48    49    48    1
    49    55    57   ar
    50    97    98    1
    51    78    79    1
    52   118   119    1
    53   112   111    1
    54   112   113    2
    55    58    57   ar
    56    58    59    1
    57    79    80    1
    58   114   111    1
    59   114   115    1
    60   111   110    1
    61    37    36    1
    62    37    38    1
    63    98   101    1
    64   102   104   ar
    65   102   101    1
    66    12    13    1
    67    48    41   am
    68    36    33    1
    69   119   122    1
    70   119   120    1
    71   122   123    1
    72   115   116   ar
    73   115   117   ar
    74    38    32    1
    75    13    16    1
    76    13    14    1
    77    16    17    1
    78    41    42    2
    79    41    40    1
    80   123   124   ar
    81   123   125   ar
    82   120   121    2
    83    33    34    1
    84    33    32    1
    85    17    18    1
    86    34    35    2
    87    34    39   am
    88    32    25   am
    89    39    40    1
    90    14    15    2
    91    18    19    1
    92    40    43    1
    93    43    44    1
    94    11     9    1
    95    45    44    1
    96    45    46    1
    97    19    20    2
    98     9    10    1
    99     9     8    2
   100    25    26    2
   101    25    24    1
   102    47    46    1
   103     8     7    1
   104    20    21    1
   105    20    22    1
   106    31    29   ar
   107     4     3    2
   108    24    27    1
   109    24    23    1
   110     7     6    1
   111    27    28    1
   112    29    28    1
   113    29    30   ar
   114     6     5    1
   115     3     2    1
   116     5     2    1
   117     2     1    1
