@<TRIPOS>MOLECULE
tmp/4edvA01.pdb
 125 117 0 0 0
SMALL
GASTEIGER

@<TRIPOS>ATOM
      1  N        129.2960  130.7870  -15.1550 N.3    39  ARG39      -0.1245
      2  CA       128.2890  130.4540  -14.1480 C.3    39  ARG39       0.1563
      3  C        127.9780  131.6450  -13.2480 C.2    39  ARG39       0.2260
      4  O        127.2970  131.5030  -12.2310 O.2    39  ARG39      -0.2867
      5  CB       128.7280  129.2650  -13.2890 C.3    39  ARG39       0.0307
      6  CG       128.5690  127.9140  -13.9610 C.3    39  ARG39       0.0489
      7  CD       128.6510  126.7770  -12.9490 C.3    39  ARG39       0.2205
      8  NE       127.5150  126.7770  -12.0300 N.pl3  39  ARG39      -0.0865
      9  CZ       127.1820  125.7510  -11.2540 C.cat  39  ARG39       0.5346
     10  NH1      127.8990  124.6360  -11.2890 N.pl3  39  ARG39       0.1354
     11  NH2      126.1300  125.8360  -10.4490 N.pl3  39  ARG39       0.1354
     12  N        135.3070  120.4240   -7.7330 N.3   115  ARG115     -0.1245
     13  CA       134.3340  120.1590   -8.7890 C.3   115  ARG115      0.1563
     14  C        135.0000  119.9630  -10.1410 C.2   115  ARG115      0.2260
     15  O        135.9070  120.7090  -10.5170 O.2   115  ARG115     -0.2867
     16  CB       133.2990  121.2830   -8.8980 C.3   115  ARG115      0.0307
     17  CG       132.0590  120.8770   -9.6990 C.3   115  ARG115      0.0489
     18  CD       131.2910  122.0730  -10.2400 C.3   115  ARG115      0.2205
     19  NE       129.9750  121.6890  -10.7560 N.pl3 115  ARG115     -0.0865
     20  CZ       129.7570  121.1740  -11.9640 C.cat 115  ARG115      0.5346
     21  NH1      130.7680  120.9710  -12.8010 N.pl3 115  ARG115      0.1354
     22  NH2      128.5220  120.8630  -12.3390 N.pl3 115  ARG115      0.1354
     23  N        133.7850  112.1080  -13.3080 N.3   121  GLU121     -0.1231
     24  CA       133.1280  111.4770  -12.1670 C.3   121  GLU121      0.1684
     25  C        134.1110  111.2470  -11.0260 C.2   121  GLU121      0.2434
     26  O        135.2230  110.7710  -11.2530 O.2   121  GLU121     -0.2733
     27  CB       132.4980  110.1460  -12.5820 C.3   121  GLU121      0.0402
     28  CG       131.3850  110.2790  -13.6110 C.3   121  GLU121      0.1161
     29  CD       130.1710  111.0080  -13.0630 C.2   121  GLU121      0.3649
     30  OE1      129.4240  111.6110  -13.8620 O.co2 121  GLU121     -0.2457
     31  OE2      129.9610  110.9740  -11.8320 O.co2 121  GLU121     -0.2457
     32  N        133.7050  111.5870   -9.7920 N.am  122  PRO122     -0.2718
     33  CA       132.4170  112.2110   -9.4650 C.3   122  PRO122      0.1535
     34  C        132.4320  113.7090   -9.7590 C.2   122  PRO122      0.2598
     35  O        133.5100  114.2990   -9.8530 O.2   122  PRO122     -0.2715
     36  CB       132.3020  111.9840   -7.9560 C.3   122  PRO122      0.0310
     37  CG       133.7200  111.9820   -7.4860 C.3   122  PRO122      0.0237
     38  CD       134.5000  111.3040   -8.5820 C.3   122  PRO122      0.0939
     39  N        131.2530  114.3050   -9.9080 N.am  123  LYS123     -0.1964
     40  CA       131.1380  115.7360  -10.1790 C.3   123  LYS123      0.1728
     41  C        131.8340  116.5540   -9.0980 C.2   123  LYS123      0.2616
     42  O        132.6600  117.4160   -9.3990 O.2   123  LYS123     -0.2715
     43  CB       129.6690  116.1510  -10.2850 C.3   123  LYS123      0.0311
     44  CG       129.4690  117.6470  -10.4700 C.3   123  LYS123      0.0038
     45  CD       127.9950  118.0170  -10.5230 C.3   123  LYS123      0.0206
     46  CE       127.3180  117.4030  -11.7360 C.3   123  LYS123      0.1093
     47  NZ       125.8880  117.8040  -11.8290 N.3   123  LYS123     -0.1314
     48  N        131.4920  116.2740   -7.8420 N.am  124  TYR124     -0.1974
     49  CA       132.1390  116.9030   -6.6940 C.3   124  TYR124      0.1639
     50  C        132.9320  115.8700   -5.9010 C.2   124  TYR124      0.2290
     51  O        132.3850  114.8510   -5.4780 O.2   124  TYR124     -0.2864
     52  CB       131.1030  117.5440   -5.7660 C.3   124  TYR124      0.0560
     53  CG       130.4980  118.8280   -6.2810 C.ar  124  TYR124     -0.0198
     54  CD1      131.1140  120.0490   -6.0440 C.ar  124  TYR124     -0.0009
     55  CD2      129.3040  118.8220   -6.9920 C.ar  124  TYR124     -0.0009
     56  CE1      130.5630  121.2300   -6.5070 C.ar  124  TYR124      0.0417
     57  CE2      128.7440  119.9980   -7.4620 C.ar  124  TYR124      0.0417
     58  CZ       129.3790  121.2000   -7.2150 C.ar  124  TYR124      0.1957
     59  OH       128.8320  122.3760   -7.6760 O.3   124  TYR124     -0.2866
     60  N        120.5540  122.4470   -0.2740 N.3   159  GLU159     -0.1231
     61  CA       121.0610  121.1110   -0.5990 C.3   159  GLU159      0.1699
     62  C        122.5740  121.0540   -0.7810 C.2   159  GLU159      0.2592
     63  O        123.2130  120.0670   -0.4180 O.2   159  GLU159     -0.2718
     64  CB       120.3970  120.5660   -1.8690 C.3   159  GLU159      0.0402
     65  CG       119.0840  119.8540   -1.6420 C.3   159  GLU159      0.1161
     66  CD       118.6530  119.0450   -2.8510 C.2   159  GLU159      0.3649
     67  OE1      117.4610  119.1030   -3.2070 O.co2 159  GLU159     -0.2457
     68  OE2      119.5080  118.3500   -3.4450 O.co2 159  GLU159     -0.2457
     69  N        123.1460  122.0990   -1.3640 N.am  160  GLY160     -0.1957
     70  CA       124.5690  122.0940   -1.6490 C.3   160  GLY160      0.1869
     71  C        125.2240  123.4480   -1.4950 C.2   160  GLY160      0.2309
     72  O        124.5550  124.4800   -1.5590 O.2   160  GLY160     -0.2863
     73  N        127.1180  125.1610   -3.4400 N.3   162  MET162     -0.1230
     74  CA       127.0360  126.0340   -4.6100 C.3   162  MET162      0.1702
     75  C        125.8210  126.9610   -4.5040 C.2   162  MET162      0.2592
     76  O        125.8970  128.1480   -4.8190 O.2   162  MET162     -0.2718
     77  CB       126.9650  125.2050   -5.8970 C.3   162  MET162      0.0401
     78  CG       126.9470  126.0260   -7.1810 C.3   162  MET162      0.0596
     79  SD       128.4890  126.9190   -7.4750 S.3   162  MET162     -0.1393
     80  CE       129.6780  125.5990   -7.2540 C.3   162  MET162      0.0692
     81  N        124.7050  126.4080   -4.0460 N.am  163  ASP163     -0.1974
     82  CA       123.4880  127.1820   -3.8370 C.3   163  ASP163      0.1709
     83  C        123.6690  128.2000   -2.7210 C.2   163  ASP163      0.2293
     84  O        123.1170  129.2990   -2.7680 O.2   163  ASP163     -0.2864
     85  CB       122.3330  126.2410   -3.5060 C.3   163  ASP163      0.1436
     86  CG       122.0520  125.2630   -4.6240 C.2   163  ASP163      0.3671
     87  OD1      121.9400  125.7120   -5.7850 O.co2 163  ASP163     -0.2456
     88  OD2      121.9590  124.0510   -4.3480 O.co2 163  ASP163     -0.2456
     89  N        116.1450  121.4710   -3.5530 N.3   203  ASP203     -0.1239
     90  CA       115.8290  121.5870   -4.9750 C.3   203  ASP203      0.1674
     91  C        114.3630  121.2700   -5.2520 C.2   203  ASP203      0.2266
     92  O        113.7310  120.5100   -4.5180 O.2   203  ASP203     -0.2867
     93  CB       116.7160  120.6630   -5.8090 C.3   203  ASP203      0.1410
     94  CG       118.1810  121.0380   -5.7450 C.2   203  ASP203      0.3668
     95  OD1      118.5650  121.8940   -4.9140 O.co2 203  ASP203     -0.2456
     96  OD2      118.9530  120.4530   -6.5260 O.co2 203  ASP203     -0.2456
     97  N        112.6260  119.2860   -7.0100 N.3   205  ASP205     -0.1239
     98  CA       112.3150  118.0180   -7.6560 C.3   205  ASP205      0.1674
     99  C        111.8430  116.9900   -6.6360 C.2   205  ASP205      0.2266
    100  O        111.6550  117.3130   -5.4640 O.2   205  ASP205     -0.2867
    101  CB       113.5070  117.4930   -8.4610 C.3   205  ASP205      0.1410
    102  CG       114.8150  117.5910   -7.7040 C.2   205  ASP205      0.3668
    103  OD1      114.8370  117.2910   -6.4900 O.co2 205  ASP205     -0.2456
    104  OD2      115.8250  117.9760   -8.3320 O.co2 205  ASP205     -0.2456
    105  N        113.3500  114.2930   -5.3950 N.3   207  ALA207     -0.1245
    106  CA       114.3580  113.9940   -4.3890 C.3   207  ALA207      0.1562
    107  C        114.4150  115.0840   -3.3210 C.2   207  ALA207      0.2260
    108  O        114.6340  114.7980   -2.1460 O.2   207  ALA207     -0.2867
    109  CB       115.7190  113.8140   -5.0400 C.3   207  ALA207      0.0290
    110  N        116.8790  124.8990   -8.5430 N.3   236  ASP236     -0.1239
    111  CA       117.5470  125.1190   -7.2690 C.3   236  ASP236      0.1674
    112  C        117.8600  126.6100   -7.1390 C.2   236  ASP236      0.2266
    113  O        117.6950  127.3460   -8.1140 O.2   236  ASP236     -0.2867
    114  CB       118.7970  124.2360   -7.1400 C.3   236  ASP236      0.1410
    115  CG       119.8240  124.4790   -8.2320 C.2   236  ASP236      0.3668
    116  OD1      119.8950  125.5760   -8.8260 O.co2 236  ASP236     -0.2456
    117  OD2      120.5880  123.5380   -8.4860 O.co2 236  ASP236     -0.2456
    118  N        120.5120  128.4110   -7.1650 N.3   238  ASP238     -0.1239
    119  CA       121.4410  128.8890   -8.1840 C.3   238  ASP238      0.1674
    120  C        120.7410  129.1110   -9.5250 C.2   238  ASP238      0.2266
    121  O        121.0000  130.0990  -10.2110 O.2   238  ASP238     -0.2867
    122  CB       122.6100  127.9140   -8.3550 C.3   238  ASP238      0.1410
    123  CG       123.5620  128.3300   -9.4630 C.2   238  ASP238      0.3668
    124  OD1      123.7720  129.5480   -9.6490 O.co2 238  ASP238     -0.2456
    125  OD2      124.0980  127.4380  -10.1540 O.co2 238  ASP238     -0.2456
@<TRIPOS>BOND
     1     1     2    1
     2     2     5    1
     3     2     3    1
     4     6     5    1
     5     6     7    1
     6    30    29   ar
     7    28    29    1
     8    28    27    1
     9    23    24    1
    10     3     4    2
    11    29    31   ar
    12     7     8    1
    13    21    20    1
    14    27    24    1
    15    22    20    1
    16    24    25    1
    17     8     9    2
    18    20    19    2
    19    47    46    1
    20    46    45    1
    21    10     9    1
    22     9    11    1
    23    26    25    2
    24    25    32   am
    25    19    18    1
    26    45    44    1
    27    15    14    2
    28    44    43    1
    29    43    40    1
    30    18    17    1
    31   121   120    2
    32    40    39    1
    33    40    41    1
    34   125   123   ar
    35    14    13    1
    36    39    34   am
    37    35    34    2
    38    32    33    1
    39    32    38    1
    40    34    33    1
    41    17    16    1
    42   124   123   ar
    43   120   119    1
    44    33    36    1
    45   123   122    1
    46    42    41    2
    47    41    48   am
    48    16    13    1
    49   116   115   ar
    50    13    12    1
    51    38    37    1
    52   110   111    1
    53   117   115   ar
    54   101   102    1
    55   101    98    1
    56   122   119    1
    57   104   102   ar
    58   115   114    1
    59   119   118    1
    60   113   112    2
    61    36    37    1
    62    48    49    1
    63   102   103   ar
    64    59    58    1
    65    98    97    1
    66    98    99    1
    67    79    80    1
    68    79    78    1
    69    57    58   ar
    70    57    55   ar
    71   111   114    1
    72   111   112    1
    73    58    56   ar
    74    78    77    1
    75    55    53   ar
    76    49    50    1
    77    49    52    1
    78    99   100    2
    79    96    94   ar
    80    56    54   ar
    81    53    54   ar
    82    53    52    1
    83    50    51    2
    84    77    74    1
    85    93    94    1
    86    93    90    1
    87    87    86   ar
    88    94    95   ar
    89   105   106    1
    90    91    90    1
    91    91    92    2
    92   109   106    1
    93    90    89    1
    94    76    75    2
    95    86    88   ar
    96    86    85    1
    97    74    75    1
    98    74    73    1
    99    75    81   am
   100   106   107    1
   101    81    82    1
   102    82    85    1
   103    82    83    1
   104    68    66   ar
   105   107   108    2
   106    67    66   ar
   107    66    65    1
   108    84    83    2
   109    64    65    1
   110    64    61    1
   111    70    71    1
   112    70    69    1
   113    72    71    2
   114    69    62   am
   115    62    61    1
   116    62    63    2
   117    61    60    1
