@<TRIPOS>MOLECULE
tmp/4edyA01.pdb
 162 158 0 0 0
SMALL
GASTEIGER

@<TRIPOS>ATOM
      1  N         22.5090   -4.2270   28.1420 N.3     7  TYR7       -0.1227
      2  CA        22.4980   -3.5210   26.8680 C.3     7  TYR7        0.1736
      3  C         23.5340   -2.3990   26.9280 C.2     7  TYR7        0.2595
      4  O         24.1530   -2.1870   27.9680 O.2     7  TYR7       -0.2718
      5  CB        21.0970   -2.9610   26.5840 C.3     7  TYR7        0.0548
      6  CG        20.9090   -2.4470   25.1730 C.ar    7  TYR7       -0.0200
      7  CD1       21.0180   -3.3040   24.0810 C.ar    7  TYR7       -0.0009
      8  CD2       20.6400   -1.1010   24.9280 C.ar    7  TYR7       -0.0009
      9  CE1       20.8580   -2.8400   22.7870 C.ar    7  TYR7        0.0417
     10  CE2       20.4740   -0.6270   23.6350 C.ar    7  TYR7        0.0417
     11  CZ        20.5840   -1.5020   22.5680 C.ar    7  TYR7        0.1957
     12  OH        20.4230   -1.0420   21.2830 O.3     7  TYR7       -0.2866
     13  N         23.7460   -1.7110   25.8110 N.am    8  PHE8       -0.1976
     14  CA        24.5970   -0.5220   25.7850 C.3     8  PHE8        0.1639
     15  C         23.9600    0.6090   26.5830 C.2     8  PHE8        0.2290
     16  O         22.7640    0.5670   26.8900 O.2     8  PHE8       -0.2864
     17  CB        24.8110   -0.0390   24.3470 C.3     8  PHE8        0.0560
     18  CG        25.5750   -1.0020   23.4860 C.ar    8  PHE8       -0.0200
     19  CD1       24.9960   -1.5530   22.3490 C.ar    8  PHE8       -0.0042
     20  CD2       26.8740   -1.3610   23.8120 C.ar    8  PHE8       -0.0042
     21  CE1       25.7030   -2.4420   21.5550 C.ar    8  PHE8       -0.0003
     22  CE2       27.5840   -2.2470   23.0230 C.ar    8  PHE8       -0.0003
     23  CZ        26.9960   -2.7910   21.8930 C.ar    8  PHE8       -0.0000
     24  N         22.3420    3.2240   26.0370 N.3    10  MET10      -0.1230
     25  CA        21.4930    3.8440   25.0250 C.3    10  MET10       0.1702
     26  C         20.0650    3.4240   25.3290 C.2    10  MET10       0.2592
     27  O         19.8450    2.4220   26.0170 O.2    10  MET10      -0.2718
     28  CB        21.8320    3.3200   23.6260 C.3    10  MET10       0.0401
     29  CG        23.0900    3.8640   22.9860 C.3    10  MET10       0.0596
     30  SD        23.2150    3.3190   21.2620 S.3    10  MET10      -0.1393
     31  CE        23.0610    1.5470   21.4480 C.3    10  MET10       0.0692
     32  N         19.0960    4.1730   24.8130 N.am   11  ARG11      -0.1966
     33  CA        17.7160    3.7000   24.8030 C.3    11  ARG11       0.1729
     34  C         17.6580    2.5050   23.8530 C.2    11  ARG11       0.2617
     35  O         17.4310    1.3720   24.2850 O.2    11  ARG11      -0.2715
     36  CB        16.7430    4.8060   24.3810 C.3    11  ARG11       0.0348
     37  CG        16.7240    5.9960   25.3340 C.3    11  ARG11       0.0492
     38  CD        15.6480    7.0090   24.9620 C.3    11  ARG11       0.2205
     39  NE        15.7620    7.4360   23.5680 N.pl3  11  ARG11      -0.0865
     40  CZ        16.6440    8.3240   23.1090 C.cat  11  ARG11       0.5346
     41  NH1       17.5150    8.9090   23.9250 N.pl3  11  ARG11       0.1354
     42  NH2       16.6560    8.6280   21.8170 N.pl3  11  ARG11       0.1354
     43  N         17.9020    2.7610   22.5700 N.am   12  GLY12      -0.1940
     44  CA        18.0570    1.7020   21.5760 C.3    12  GLY12       0.2014
     45  C         16.9950    0.6190   21.6190 C.2    12  GLY12       0.2638
     46  O         15.8150    0.8940   21.8450 O.2    12  GLY12      -0.2714
     47  N         17.4290   -0.6210   21.4130 N.am   13  ARG13      -0.1977
     48  CA        16.5200   -1.7610   21.3630 C.3    13  ARG13       0.1597
     49  C         16.0970   -2.2730   22.7450 C.2    13  ARG13       0.2287
     50  O         15.1810   -3.0850   22.8370 O.2    13  ARG13      -0.2864
     51  CB        17.1530   -2.9040   20.5640 C.3    13  ARG13       0.0334
     52  CG        17.3530   -2.6000   19.0860 C.3    13  ARG13       0.0492
     53  CD        17.9980   -3.7770   18.3830 C.3    13  ARG13       0.2205
     54  NE        17.7780   -3.7840   16.9320 N.pl3  13  ARG13      -0.0865
     55  CZ        18.6860   -3.4830   16.0010 C.cat  13  ARG13       0.5346
     56  NH1       19.9250   -3.1150   16.3220 N.pl3  13  ARG13       0.1354
     57  NH2       18.3450   -3.5480   14.7180 N.pl3  13  ARG13       0.1354
     58  N         31.9920    0.1830   26.6530 N.3    35  GLN35      -0.1245
     59  CA        32.3760   -0.0260   25.2530 C.3    35  GLN35       0.1566
     60  C         33.7090   -0.7710   25.1190 C.2    35  GLN35       0.2260
     61  O         33.9290   -1.4870   24.1390 O.2    35  GLN35      -0.2867
     62  CB        32.4440    1.3120   24.5050 C.3    35  GLN35       0.0367
     63  CG        32.5450    1.1810   22.9890 C.3    35  GLN35       0.0905
     64  CD        31.4150    0.3590   22.3950 C.2    35  GLN35       0.2608
     65  OE1       30.2420    0.5840   22.6970 O.2    35  GLN35      -0.2717
     66  NE2       31.7640   -0.6000   21.5440 N.am   35  GLN35      -0.0878
     67  N         32.9910   -4.5670   25.3890 N.3    38  TRP38      -0.1241
     68  CA        32.0890   -5.1670   24.3980 C.3    38  TRP38       0.1605
     69  C         32.7190   -6.3330   23.6100 C.2    38  TRP38       0.2264
     70  O         32.0760   -7.3720   23.4460 O.2    38  TRP38      -0.2867
     71  CB        31.5150   -4.1050   23.4460 C.3    38  TRP38       0.0550
     72  CG        30.7120   -4.6880   22.3170 C.ar   38  TRP38       0.0003
     73  CD1       30.9020   -4.4770   20.9820 C.ar   38  TRP38       0.0946
     74  CD2       29.6080   -5.5980   22.4260 C.ar   38  TRP38       0.0152
     75  NE1       29.9790   -5.1890   20.2530 N.ar   38  TRP38      -0.2442
     76  CE2       29.1750   -5.8870   21.1150 C.ar   38  TRP38       0.0810
     77  CE3       28.9430   -6.1950   23.5040 C.ar   38  TRP38       0.0012
     78  CZ2       28.1070   -6.7500   20.8520 C.ar   38  TRP38       0.0191
     79  CZ3       27.8790   -7.0480   23.2420 C.ar   38  TRP38       0.0001
     80  CH2       27.4710   -7.3140   21.9270 C.ar   38  TRP38       0.0015
     81  N          9.7430   -1.9120   13.8380 N.3    95  ASP95      -0.1239
     82  CA        11.0630   -2.5280   13.9830 C.3    95  ASP95       0.1674
     83  C         11.7410   -2.7430   12.6330 C.2    95  ASP95       0.2266
     84  O         12.9520   -2.5460   12.5110 O.2    95  ASP95      -0.2867
     85  CB        10.9770   -3.8590   14.7410 C.3    95  ASP95       0.1410
     86  CG        12.2980   -4.2490   15.3870 C.2    95  ASP95       0.3668
     87  OD1       12.8550   -3.4290   16.1470 O.co2  95  ASP95      -0.2456
     88  OD2       12.7730   -5.3760   15.1560 O.co2  95  ASP95      -0.2456
     89  N         13.1550    0.7780   11.5730 N.3    98  MET98      -0.1230
     90  CA        14.2970    1.2190   12.3730 C.3    98  MET98       0.1702
     91  C         15.5300    0.3680   12.0630 C.2    98  MET98       0.2593
     92  O         16.6590    0.8710   12.0630 O.2    98  MET98      -0.2718
     93  CB        13.9780    1.1580   13.8660 C.3    98  MET98       0.0401
     94  CG        12.8100    2.0360   14.3170 C.3    98  MET98       0.0596
     95  SD        12.9590    3.7820   13.8970 S.3    98  MET98      -0.1393
     96  CE        14.2030    4.3120   15.0760 C.3    98  MET98       0.0692
     97  N         15.3010   -0.9140   11.7810 N.am   99  SER99      -0.1952
     98  CA        16.3810   -1.8520   11.4580 C.3    99  SER99       0.1924
     99  C         17.0120   -1.6220   10.0780 C.2    99  SER99       0.2314
    100  O         18.0910   -2.1480    9.8000 O.2    99  SER99      -0.2863
    101  CB        15.8760   -3.2940   11.5660 C.3    99  SER99       0.2116
    102  OG        15.4890   -3.5950   12.8960 O.3    99  SER99      -0.2180
    103  N         23.1330    1.7920   11.2840 N.3   103  TRP103     -0.1227
    104  CA        23.5910    2.3840   12.5450 C.3   103  TRP103      0.1737
    105  C         25.0940    2.1980   12.7910 C.2   103  TRP103      0.2595
    106  O         25.7270    3.0460   13.4260 O.2   103  TRP103     -0.2718
    107  CB        22.8100    1.8040   13.7320 C.3   103  TRP103      0.0564
    108  CG        21.3160    1.9800   13.6510 C.ar  103  TRP103      0.0003
    109  CD1       20.3920    1.0110   13.3820 C.ar  103  TRP103      0.0946
    110  CD2       20.5770    3.1940   13.8430 C.ar  103  TRP103      0.0152
    111  NE1       19.1280    1.5440   13.3940 N.ar  103  TRP103     -0.2442
    112  CE2       19.2110    2.8810   13.6790 C.ar  103  TRP103      0.0810
    113  CE3       20.9360    4.5140   14.1450 C.ar  103  TRP103      0.0012
    114  CZ2       18.2020    3.8410   13.7980 C.ar  103  TRP103      0.0191
    115  CZ3       19.9310    5.4680   14.2670 C.ar  103  TRP103      0.0001
    116  CH2       18.5810    5.1250   14.0920 C.ar  103  TRP103      0.0015
    117  N         25.6550    1.0990   12.2860 N.am  104  ALA104     -0.1980
    118  CA        27.0630    0.7590   12.5130 C.3   104  ALA104      0.1597
    119  C         27.9670    1.0320   11.3050 C.2   104  ALA104      0.2287
    120  O         29.1370    0.6380   11.3060 O.2   104  ALA104     -0.2864
    121  CB        27.1790   -0.7030   12.9280 C.3   104  ALA104      0.0319
    122  N          6.1710    1.4020   21.8940 N.3   151  TYR151     -0.1241
    123  CA         7.1740    1.2540   20.8430 C.3   151  TYR151      0.1605
    124  C          7.0650    2.3690   19.8070 C.2   151  TYR151      0.2264
    125  O          8.0790    2.8370   19.2950 O.2   151  TYR151     -0.2867
    126  CB         7.0850   -0.1230   20.1720 C.3   151  TYR151      0.0534
    127  CG         8.4060   -0.5960   19.5940 C.ar  151  TYR151     -0.0201
    128  CD1        9.5620   -0.5980   20.3700 C.ar  151  TYR151     -0.0009
    129  CD2        8.5010   -1.0460   18.2780 C.ar  151  TYR151     -0.0009
    130  CE1       10.7760   -1.0300   19.8590 C.ar  151  TYR151      0.0417
    131  CE2        9.7200   -1.4880   17.7580 C.ar  151  TYR151      0.0417
    132  CZ        10.8510   -1.4720   18.5610 C.ar  151  TYR151      0.1957
    133  OH        12.0670   -1.8940   18.0800 O.3   151  TYR151     -0.2866
    134  N          8.7910    5.2970   21.4590 N.3   154  ILE154     -0.1231
    135  CA        10.2320    5.0460   21.5110 C.3   154  ILE154      0.1692
    136  C         10.8970    5.2680   20.1480 C.2   154  ILE154      0.2592
    137  O         11.8770    6.0110   20.0440 O.2   154  ILE154     -0.2718
    138  CB        10.5280    3.6210   22.0370 C.3   154  ILE154      0.0266
    139  CG1       10.2390    3.5550   23.5390 C.3   154  ILE154      0.0019
    140  CG2       11.9770    3.2200   21.7510 C.3   154  ILE154      0.0020
    141  CD1       10.0710    2.1560   24.0810 C.3   154  ILE154      0.0001
    142  N         10.3490    4.6470   19.1070 N.am  155  CYS155     -0.1970
    143  CA        10.9080    4.7780   17.7570 C.3   155  CYS155      0.1712
    144  C         10.8150    6.2110   17.2260 C.2   155  CYS155      0.2296
    145  O         11.7870    6.7340   16.6720 O.2   155  CYS155     -0.2864
    146  CB        10.2160    3.8100   16.7910 C.3   155  CYS155      0.0983
    147  SG        10.5130    2.0640   17.1580 S.3   155  CYS155     -0.0798
    148  N         13.4010    8.7530   18.5950 N.3   158  THR158     -0.1218
    149  CA        14.6980    8.6750   17.9270 C.3   158  THR158      0.1862
    150  C         14.6470    9.2390   16.5060 C.2   158  THR158      0.2287
    151  O         15.5540    9.9630   16.0960 O.2   158  THR158     -0.2866
    152  CB        15.2360    7.2420   17.9430 C.3   158  THR158      0.1770
    153  OG1       15.6020    6.9120   19.2880 O.3   158  THR158     -0.2211
    154  CG2       16.4530    7.0990   17.0350 C.3   158  THR158      0.0375
    155  N         20.7830    8.3840   21.5620 N.3   198  LEU198     -0.1245
    156  CA        20.0150    7.2800   20.9950 C.3   198  LEU198      0.1561
    157  C         19.5370    6.3230   22.0790 C.2   198  LEU198      0.2260
    158  O         19.8450    6.4780   23.2610 O.2   198  LEU198     -0.2867
    159  CB        20.8710    6.5120   19.9870 C.3   198  LEU198      0.0270
    160  CG        21.4320    7.3350   18.8280 C.3   198  LEU198      0.0019
    161  CD1       22.2990    6.4580   17.9400 C.3   198  LEU198      0.0001
    162  CD2       20.3090    7.9710   18.0320 C.3   198  LEU198      0.0001
@<TRIPOS>BOND
     1   100    99    2
     2    99    98    1
     3   103   104    1
     4   119   120    2
     5   119   118    1
     6    98   101    1
     7    98    97    1
     8   101   102    1
     9    89    90    1
    10    97    91   am
    11    91    92    2
    12    91    90    1
    13   117   118    1
    14   117   105   am
    15    90    93    1
    16    84    83    2
    17   118   121    1
    18   104   105    1
    19   104   107    1
    20    83    82    1
    21   105   106    2
    22   109   111   ar
    23   109   108   ar
    24   111   112   ar
    25   108   107    1
    26   108   110   ar
    27   112   114   ar
    28   112   110   ar
    29   114   116   ar
    30    81    82    1
    31   110   113   ar
    32    93    94    1
    33    95    94    1
    34    95    96    1
    35    82    85    1
    36   116   115   ar
    37   113   115   ar
    38    57    55    1
    39    85    86    1
    40    88    86   ar
    41    86    87   ar
    42    55    56    1
    43    55    54    2
    44   151   150    2
    45   150   149    1
    46   145   144    2
    47   146   147    1
    48   146   143    1
    49    54    53    1
    50   154   152    1
    51   144   143    1
    52   143   142    1
    53   131   129   ar
    54   131   132   ar
    55   149   152    1
    56   149   148    1
    57   161   160    1
    58   152   153    1
    59   162   160    1
    60   133   132    1
    61   129   127   ar
    62    53    52    1
    63   132   130   ar
    64   160   159    1
    65    52    51    1
    66   142   136   am
    67   125   124    2
    68   127   126    1
    69   127   128   ar
    70   124   123    1
    71   130   128   ar
    72   159   156    1
    73   137   136    2
    74   136   135    1
    75   126   123    1
    76    75    73   ar
    77    75    76   ar
    78    51    48    1
    79   123   122    1
    80    78    76   ar
    81    78    80   ar
    82    73    72   ar
    83   156   155    1
    84   156   157    1
    85    76    74   ar
    86    30    31    1
    87    30    29    1
    88    12    11    1
    89    48    47    1
    90    48    49    1
    91    47    45   am
    92   134   135    1
    93   135   138    1
    94    66    64   am
    95    21    23   ar
    96    21    19   ar
    97    44    45    1
    98    44    43    1
    99    45    46    2
   100   140   138    1
   101    42    40    1
   102    23    22   ar
   103    80    79   ar
   104   138   139    1
   105   157   158    2
   106    72    74   ar
   107    72    71    1
   108    19    18   ar
   109    64    65    2
   110    64    63    1
   111    74    77   ar
   112    11     9   ar
   113    11    10   ar
   114    43    34   am
   115    49    50    2
   116     9     7   ar
   117    29    28    1
   118    63    62    1
   119    22    20   ar
   120    40    39    2
   121    40    41    1
   122    79    77   ar
   123    70    69    2
   124    71    68    1
   125    18    20   ar
   126    18    17    1
   127   139   141    1
   128    39    38    1
   129    69    68    1
   130    28    25    1
   131    10     8   ar
   132    34    35    2
   133    34    33    1
   134     7     6   ar
   135    61    60    2
   136    17    14    1
   137    36    33    1
   138    36    37    1
   139    68    67    1
   140    62    59    1
   141    33    32    1
   142    32    26   am
   143     8     6   ar
   144    38    37    1
   145    25    26    1
   146    25    24    1
   147    60    59    1
   148     6     5    1
   149    59    58    1
   150    26    27    2
   151    14    13    1
   152    14    15    1
   153    13     3   am
   154    15    16    2
   155     5     2    1
   156     2     3    1
   157     2     1    1
   158     3     4    2
