@<TRIPOS>MOLECULE
tmp/4edzB01.pdb
 162 158 0 0 0
SMALL
GASTEIGER

@<TRIPOS>ATOM
      1  N         27.8680  -16.8260  -13.4800 N.3     8  TYR8       -0.1227
      2  CA        28.9210  -15.8530  -13.1920 C.3     8  TYR8        0.1736
      3  C         30.1180  -16.5850  -12.5910 C.2     8  TYR8        0.2595
      4  O         30.1030  -17.8110  -12.4770 O.2     8  TYR8       -0.2718
      5  CB        28.4000  -14.7830  -12.2270 C.3     8  TYR8        0.0548
      6  CG        29.2740  -13.5460  -12.0980 C.ar    8  TYR8       -0.0200
      7  CD1       29.5730  -12.7610  -13.2070 C.ar    8  TYR8       -0.0009
      8  CD2       29.7950  -13.1620  -10.8620 C.ar    8  TYR8       -0.0009
      9  CE1       30.3720  -11.6280  -13.0910 C.ar    8  TYR8        0.0417
     10  CE2       30.5920  -12.0300  -10.7360 C.ar    8  TYR8        0.0417
     11  CZ        30.8770  -11.2680  -11.8580 C.ar    8  TYR8        0.1957
     12  OH        31.6620  -10.1450  -11.7450 O.3     8  TYR8       -0.2866
     13  N         31.1560  -15.8410  -12.2220 N.am    9  PHE9       -0.1976
     14  CA        32.2910  -16.4100  -11.4970 C.3     9  PHE9        0.1639
     15  C         31.8870  -16.7210  -10.0640 C.2     9  PHE9        0.2290
     16  O         30.8100  -16.3250   -9.6170 O.2     9  PHE9       -0.2864
     17  CB        33.4740  -15.4390  -11.4720 C.3     9  PHE9        0.0560
     18  CG        33.9650  -15.0400  -12.8330 C.ar    9  PHE9       -0.0200
     19  CD1       33.8230  -13.7320  -13.2810 C.ar    9  PHE9       -0.0042
     20  CD2       34.5740  -15.9670  -13.6640 C.ar    9  PHE9       -0.0042
     21  CE1       34.2820  -13.3600  -14.5340 C.ar    9  PHE9       -0.0003
     22  CE2       35.0300  -15.5990  -14.9250 C.ar    9  PHE9       -0.0003
     23  CZ        34.8850  -14.2930  -15.3570 C.ar    9  PHE9       -0.0000
     24  N         32.1810  -15.3590   -7.2320 N.3    11  MET11      -0.1230
     25  CA        32.3980  -14.1020   -6.5210 C.3    11  MET11       0.1702
     26  C         31.1110  -13.2790   -6.5520 C.2    11  MET11       0.2592
     27  O         30.1830  -13.5920   -7.3040 O.2    11  MET11      -0.2718
     28  CB        33.5880  -13.3170   -7.1020 C.3    11  MET11       0.0401
     29  CG        33.3540  -12.6300   -8.4340 C.3    11  MET11       0.0596
     30  SD        34.9130  -12.3740   -9.3410 S.3    11  MET11      -0.1393
     31  CE        34.3110  -11.3430  -10.6750 C.3    11  MET11       0.0692
     32  N         31.0480  -12.2460   -5.7160 N.am   12  ARG12      -0.1966
     33  CA        29.8740  -11.3800   -5.6640 C.3    12  ARG12       0.1729
     34  C         29.8000  -10.5560   -6.9480 C.2    12  ARG12       0.2617
     35  O         28.8580  -10.6920   -7.7300 O.2    12  ARG12      -0.2715
     36  CB        29.9160  -10.4550   -4.4370 C.3    12  ARG12       0.0348
     37  CG        29.8230  -11.1790   -3.1010 C.3    12  ARG12       0.0492
     38  CD        29.7420  -10.2020   -1.9340 C.3    12  ARG12       0.2205
     39  NE        30.8080   -9.2040   -1.9910 N.pl3  12  ARG12      -0.0865
     40  CZ        32.0690   -9.4100   -1.6090 C.cat  12  ARG12       0.5346
     41  NH1       32.4520  -10.5840   -1.1190 N.pl3  12  ARG12       0.1354
     42  NH2       32.9610   -8.4340   -1.7240 N.pl3  12  ARG12       0.1354
     43  N         30.8000   -9.7040   -7.1470 N.am   13  GLY13      -0.1940
     44  CA        30.9490   -8.9380   -8.3780 C.3    13  GLY13       0.2014
     45  C         29.6600   -8.3630   -8.9370 C.2    13  GLY13       0.2638
     46  O         28.8200   -7.8520   -8.2000 O.2    13  GLY13      -0.2714
     47  N         29.5060   -8.4670  -10.2530 N.am   14  ARG14      -0.1977
     48  CA        28.3880   -7.8510  -10.9560 C.3    14  ARG14       0.1597
     49  C         27.1210   -8.6840  -10.9110 C.2    14  ARG14       0.2287
     50  O         26.0670   -8.2270  -11.3550 O.2    14  ARG14      -0.2864
     51  CB        28.7480   -7.6240  -12.4160 C.3    14  ARG14       0.0334
     52  CG        29.8220   -6.5870  -12.6410 C.3    14  ARG14       0.0492
     53  CD        30.1240   -6.5470  -14.1080 C.3    14  ARG14       0.2205
     54  NE        30.9260   -5.4110  -14.5340 N.pl3  14  ARG14      -0.0865
     55  CZ        30.4840   -4.1620  -14.6530 C.cat  14  ARG14       0.5346
     56  NH1       29.2290   -3.8260  -14.3110 N.pl3  14  ARG14       0.1354
     57  NH2       31.3260   -3.2270  -15.1080 N.pl3  14  ARG14       0.1354
     58  N         37.3270  -19.9270  -12.9310 N.3    36  GLN36      -0.1245
     59  CA        38.2350  -19.0640  -13.7040 C.3    36  GLN36       0.1566
     60  C         38.7950  -19.7920  -14.9270 C.2    36  GLN36       0.2260
     61  O         38.8090  -19.2400  -16.0260 O.2    36  GLN36      -0.2867
     62  CB        39.3730  -18.5230  -12.8000 C.3    36  GLN36       0.0367
     63  CG        40.8260  -18.4960  -13.3920 C.3    36  GLN36       0.0905
     64  CD        41.0130  -17.6270  -14.6500 C.2    36  GLN36       0.2608
     65  OE1       42.0530  -17.6990  -15.3100 O.2    36  GLN36      -0.2717
     66  NE2       40.0100  -16.8170  -14.9820 N.am   36  GLN36      -0.0878
     67  N         36.5080  -20.1470  -18.2030 N.3    39  TRP39      -0.1241
     68  CA        35.9770  -18.9250  -18.8200 C.3    39  TRP39       0.1605
     69  C         36.2520  -18.7630  -20.3330 C.2    39  TRP39       0.2264
     70  O         35.4870  -18.0900  -21.0210 O.2    39  TRP39      -0.2867
     71  CB        36.4620  -17.6900  -18.0410 C.3    39  TRP39       0.0550
     72  CG        35.9780  -16.3670  -18.5830 C.ar   39  TRP39       0.0003
     73  CD1       36.7260  -15.2400  -18.7660 C.ar   39  TRP39       0.0946
     74  CD2       34.6470  -16.0390  -19.0210 C.ar   39  TRP39       0.0152
     75  NE1       35.9460  -14.2280  -19.2810 N.ar   39  TRP39      -0.2442
     76  CE2       34.6690  -14.6940  -19.4520 C.ar   39  TRP39       0.0810
     77  CE3       33.4400  -16.7500  -19.0930 C.ar   39  TRP39       0.0012
     78  CZ2       33.5310  -14.0460  -19.9470 C.ar   39  TRP39       0.0191
     79  CZ3       32.3110  -16.1030  -19.5860 C.ar   39  TRP39       0.0001
     80  CH2       32.3680  -14.7660  -20.0070 C.ar   39  TRP39       0.0015
     81  N         27.6750    2.1980  -10.4520 N.3    96  ASP96      -0.1239
     82  CA        28.2220    1.3380  -11.5110 C.3    96  ASP96       0.1674
     83  C         29.3450    2.0140  -12.3040 C.2    96  ASP96       0.2266
     84  O         30.3710    1.3820  -12.5870 O.2    96  ASP96      -0.2867
     85  CB        27.1180    0.8820  -12.4710 C.3    96  ASP96       0.1410
     86  CG        27.4410   -0.4410  -13.1580 C.2    96  ASP96       0.3668
     87  OD1       27.5990   -1.4480  -12.4510 O.co2  96  ASP96      -0.2456
     88  OD2       27.5280   -0.4820  -14.3960 O.co2  96  ASP96      -0.2456
     89  N         32.5690    1.9700  -10.0570 N.3    99  MET99      -0.1230
     90  CA        33.1300    0.6160   -9.9880 C.3    99  MET99       0.1702
     91  C         33.7390    0.1980  -11.3340 C.2    99  MET99       0.2593
     92  O         34.7750   -0.4750  -11.3760 O.2    99  MET99      -0.2718
     93  CB        32.0690   -0.3990   -9.5630 C.3    99  MET99       0.0401
     94  CG        31.3760   -0.1330   -8.2220 C.3    99  MET99       0.0596
     95  SD        32.4480   -0.2090   -6.7850 S.3    99  MET99      -0.1393
     96  CE        32.8590   -1.9570   -6.7250 C.3    99  MET99       0.0692
     97  N         33.1060    0.6110  -12.4310 N.am  100  SER100     -0.1952
     98  CA        33.5970    0.2940  -13.7740 C.3   100  SER100      0.1924
     99  C         34.9370    0.9410  -14.1010 C.2   100  SER100      0.2314
    100  O         35.6590    0.4450  -14.9600 O.2   100  SER100     -0.2863
    101  CB        32.5740    0.7090  -14.8420 C.3   100  SER100      0.2116
    102  OG        31.4030   -0.0770  -14.7330 O.3   100  SER100     -0.2180
    103  N         39.7930   -3.9910  -13.2080 N.3   104  TRP104     -0.1227
    104  CA        39.6530   -5.3030  -12.5690 C.3   104  TRP104      0.1737
    105  C         40.4450   -6.4130  -13.2590 C.2   104  TRP104      0.2595
    106  O         41.0210   -7.2630  -12.5840 O.2   104  TRP104     -0.2718
    107  CB        38.1760   -5.7050  -12.5160 C.3   104  TRP104      0.0564
    108  CG        37.3560   -4.7910  -11.6770 C.ar  104  TRP104      0.0003
    109  CD1       36.3810   -3.9330  -12.1020 C.ar  104  TRP104      0.0946
    110  CD2       37.4510   -4.6180  -10.2600 C.ar  104  TRP104      0.0152
    111  NE1       35.8570   -3.2460  -11.0350 N.ar  104  TRP104     -0.2442
    112  CE2       36.4970   -3.6480   -9.8920 C.ar  104  TRP104      0.0810
    113  CE3       38.2470   -5.1960   -9.2640 C.ar  104  TRP104      0.0012
    114  CZ2       36.3200   -3.2370   -8.5710 C.ar  104  TRP104      0.0191
    115  CZ3       38.0630   -4.7900   -7.9460 C.ar  104  TRP104      0.0001
    116  CH2       37.1110   -3.8190   -7.6160 C.ar  104  TRP104      0.0015
    117  N         40.4750   -6.3970  -14.5940 N.am  105  ALA105     -0.1980
    118  CA        41.0590   -7.4900  -15.3830 C.3   105  ALA105      0.1597
    119  C         42.4750   -7.2030  -15.8880 C.2   105  ALA105      0.2287
    120  O         42.9330   -7.8400  -16.8430 O.2   105  ALA105     -0.2864
    121  CB        40.1420   -7.8210  -16.5600 C.3   105  ALA105      0.0319
    122  N         22.2740   -2.0530   -4.0500 N.3   150  TYR150     -0.1241
    123  CA        23.5020   -1.8110   -4.8020 C.3   150  TYR150      0.1605
    124  C         24.4950   -0.9700   -4.0150 C.2   150  TYR150      0.2264
    125  O         25.7040   -1.1930   -4.1100 O.2   150  TYR150     -0.2867
    126  CB        23.2080   -1.1540   -6.1580 C.3   150  TYR150      0.0534
    127  CG        24.2060   -1.5090   -7.2450 C.ar  150  TYR150     -0.0201
    128  CD1       24.6440   -2.8260   -7.4290 C.ar  150  TYR150     -0.0009
    129  CD2       24.6800   -0.5390   -8.1210 C.ar  150  TYR150     -0.0009
    130  CE1       25.5490   -3.1480   -8.4230 C.ar  150  TYR150      0.0417
    131  CE2       25.5780   -0.8590   -9.1270 C.ar  150  TYR150      0.0417
    132  CZ        26.0030   -2.1570   -9.2760 C.ar  150  TYR150      0.1957
    133  OH        26.8850   -2.4670  -10.2760 O.3   150  TYR150     -0.2866
    134  N         26.0890   -3.3690   -1.6760 N.3   153  ILE153     -0.1231
    135  CA        26.9520   -4.2730   -2.4370 C.3   153  ILE153      0.1692
    136  C         28.2530   -3.6050   -2.8990 C.2   153  ILE153      0.2592
    137  O         29.3290   -4.1450   -2.6780 O.2   153  ILE153     -0.2718
    138  CB        26.2120   -4.8790   -3.6520 C.3   153  ILE153      0.0266
    139  CG1       25.1570   -5.8890   -3.1890 C.3   153  ILE153      0.0019
    140  CG2       27.1840   -5.5640   -4.5910 C.3   153  ILE153      0.0020
    141  CD1       24.1470   -6.2180   -4.2680 C.3   153  ILE153      0.0001
    142  N         28.1610   -2.4360   -3.5330 N.am  154  CYS154     -0.1970
    143  CA        29.3650   -1.7760   -4.0500 C.3   154  CYS154      0.1712
    144  C         30.2830   -1.3030   -2.9250 C.2   154  CYS154      0.2296
    145  O         31.5040   -1.4130   -3.0300 O.2   154  CYS154     -0.2864
    146  CB        28.9940   -0.6130   -4.9540 C.3   154  CYS154      0.0983
    147  SG        28.1270   -1.1330   -6.4300 S.3   154  CYS154     -0.0798
    148  N         32.5270   -3.9960   -1.3870 N.3   157  THR157     -0.1218
    149  CA        33.7440   -4.2410   -2.1760 C.3   157  THR157      0.1862
    150  C         34.7600   -3.1020   -2.0570 C.2   157  THR157      0.2287
    151  O         35.9550   -3.3480   -1.8970 O.2   157  THR157     -0.2866
    152  CB        33.4030   -4.5300   -3.6530 C.3   157  THR157      0.1770
    153  OG1       32.7470   -5.7980   -3.7240 O.3   157  THR157     -0.2211
    154  CG2       34.6610   -4.5710   -4.5240 C.3   157  THR157      0.0375
    155  N         35.9010  -10.5540   -3.4260 N.3   197  LEU197     -0.1245
    156  CA        35.1920   -9.6790   -4.3600 C.3   197  LEU197      0.1561
    157  C         33.8560  -10.2810   -4.7890 C.2   197  LEU197      0.2260
    158  O         33.4640  -11.3480   -4.3200 O.2   197  LEU197     -0.2867
    159  CB        36.0820   -9.4150   -5.5790 C.3   197  LEU197      0.0270
    160  CG        37.4530   -8.8100   -5.2220 C.3   197  LEU197      0.0019
    161  CD1       38.3510   -8.6250   -6.4420 C.3   197  LEU197      0.0001
    162  CD2       37.2710   -7.4900   -4.4970 C.3   197  LEU197      0.0001
@<TRIPOS>BOND
     1    70    69    2
     2    69    68    1
     3    80    78   ar
     4    80    79   ar
     5    78    76   ar
     6    79    77   ar
     7    76    75   ar
     8    76    74   ar
     9    75    73   ar
    10    77    74   ar
    11    74    72   ar
    12    68    67    1
    13    68    71    1
    14    73    72   ar
    15    72    71    1
    16   120   119    2
    17   121   118    1
    18    61    60    2
    19   119   118    1
    20   118   117    1
    21    23    22   ar
    22    23    21   ar
    23    65    64    2
    24    57    55    1
    25    66    64   am
    26   100    99    2
    27    60    59    1
    28    22    20   ar
    29   101   102    1
    30   101    98    1
    31    55    54    2
    32    55    56    1
    33    64    63    1
    34   117   105   am
    35    54    53    1
    36    21    19   ar
    37    88    86   ar
    38    53    52    1
    39    99    98    1
    40    98    97    1
    41    59    58    1
    42    59    62    1
    43    20    18   ar
    44     1     2    1
    45    63    62    1
    46    19    18   ar
    47   105   106    2
    48   105   104    1
    49   103   104    1
    50     7     9   ar
    51     7     6   ar
    52     2     3    1
    53     2     5    1
    54    86    85    1
    55    86    87   ar
    56     9    11   ar
    57    18    17    1
    58    52    51    1
    59     3     4    2
    60     3    13   am
    61    84    83    2
    62   104   107    1
    63   107   108    1
    64    85    82    1
    65    97    91   am
    66    51    48    1
    67    83    82    1
    68     5     6    1
    69    13    14    1
    70   109   108   ar
    71   109   111   ar
    72     6     8   ar
    73    11    12    1
    74    11    10   ar
    75   108   110   ar
    76    82    81    1
    77    14    17    1
    78    14    15    1
    79    92    91    2
    80    50    49    2
    81    91    90    1
    82   111   112   ar
    83    48    49    1
    84    48    47    1
    85     8    10   ar
    86    31    30    1
    87   133   132    1
    88   110   112   ar
    89   110   113   ar
    90    47    45   am
    91    15    16    2
    92    89    90    1
    93    90    93    1
    94   112   114   ar
    95    93    94    1
    96    30    29    1
    97   132   131   ar
    98   132   130   ar
    99   113   115   ar
   100   131   129   ar
   101    45    44    1
   102    45    46    2
   103   114   116   ar
   104    29    28    1
   105   130   128   ar
   106    44    43    1
   107    94    95    1
   108   129   127   ar
   109   115   116   ar
   110    35    34    2
   111   128   127   ar
   112    27    26    2
   113   127   126    1
   114    24    25    1
   115    43    34   am
   116    28    25    1
   117    34    33    1
   118    95    96    1
   119    26    25    1
   120    26    32   am
   121   161   160    1
   122   147   146    1
   123   126   123    1
   124    32    33    1
   125    33    36    1
   126   159   160    1
   127   159   156    1
   128   160   162    1
   129   146   143    1
   130   123   122    1
   131   123   124    1
   132   157   156    1
   133   157   158    2
   134   140   138    1
   135   154   152    1
   136    36    37    1
   137   156   155    1
   138   141   139    1
   139   125   124    2
   140   143   142    1
   141   143   144    1
   142   153   152    1
   143   152   149    1
   144   138   139    1
   145   138   135    1
   146   142   136   am
   147    37    38    1
   148   145   144    2
   149   136   137    2
   150   136   135    1
   151   135   134    1
   152   149   150    1
   153   149   148    1
   154   150   151    2
   155    39    38    1
   156    39    40    2
   157    42    40    1
   158    40    41    1
