@<TRIPOS>MOLECULE
tmp/4ee1A00.pdb
 150 144 0 0 0
SMALL
GASTEIGER

@<TRIPOS>ATOM
      1  N         26.5310  -47.0630   15.3560 N.3    39  ARG39      -0.1245
      2  CA        26.2380  -46.0670   14.3250 C.3    39  ARG39       0.1563
      3  C         25.0710  -46.4970   13.4430 C.2    39  ARG39       0.2260
      4  O         24.8200  -45.8990   12.3990 O.2    39  ARG39      -0.2867
      5  CB        27.4670  -45.7760   13.4560 C.3    39  ARG39       0.0307
      6  CG        28.5710  -45.0150   14.1660 C.3    39  ARG39       0.0489
      7  CD        29.5940  -44.4590   13.1810 C.3    39  ARG39       0.2205
      8  NE        29.0350  -43.3970   12.3470 N.pl3  39  ARG39      -0.0865
      9  CZ        29.7600  -42.5980   11.5700 C.cat  39  ARG39       0.5346
     10  NH1       31.0790  -42.7330   11.5240 N.pl3  39  ARG39       0.1354
     11  NH2       29.1700  -41.6560   10.8460 N.pl3  39  ARG39       0.1354
     12  N         38.5940  -46.5000    7.9670 N.3   115  ARG115     -0.1245
     13  CA        38.3140  -45.5370    9.0270 C.3   115  ARG115      0.1563
     14  C         38.8090  -46.0390   10.3710 C.2   115  ARG115      0.2260
     15  O         38.6750  -47.2210   10.6950 O.2   115  ARG115     -0.2867
     16  CB        36.8160  -45.2340    9.1240 C.3   115  ARG115      0.0307
     17  CG        36.5080  -43.9810    9.9410 C.3   115  ARG115      0.0489
     18  CD        35.0530  -43.9130   10.3810 C.3   115  ARG115      0.2205
     19  NE        34.7150  -42.6050   10.9470 N.pl3 115  ARG115     -0.0865
     20  CZ        34.9620  -42.2440   12.2040 C.cat 115  ARG115      0.5346
     21  NH1       35.5520  -43.0910   13.0410 N.pl3 115  ARG115      0.1354
     22  NH2       34.6130  -41.0370   12.6330 N.pl3 115  ARG115      0.1354
     23  N         44.4930  -40.6270   13.8640 N.3   121  GLU121     -0.1231
     24  CA        44.6940  -39.7850   12.6920 C.3   121  GLU121      0.1684
     25  C         45.5700  -40.5040   11.6730 C.2   121  GLU121      0.2434
     26  O         46.5740  -41.1140   12.0400 O.2   121  GLU121     -0.2733
     27  CB        45.3400  -38.4540   13.0890 C.3   121  GLU121      0.0402
     28  CG        44.5040  -37.6060   14.0370 C.3   121  GLU121      0.1161
     29  CD        43.2640  -37.0330   13.3750 C.2   121  GLU121      0.3649
     30  OE1       43.2330  -36.9500   12.1280 O.co2 121  GLU121     -0.2457
     31  OE2       42.3180  -36.6640   14.1050 O.co2 121  GLU121     -0.2457
     32  N         45.1950  -40.4380   10.3840 N.am  122  PRO122     -0.2718
     33  CA        44.0090  -39.7390    9.8750 C.3   122  PRO122      0.1535
     34  C         42.7330  -40.5440   10.1020 C.2   122  PRO122      0.2598
     35  O         42.7910  -41.7740   10.1750 O.2   122  PRO122     -0.2715
     36  CB        44.2960  -39.6290    8.3760 C.3   122  PRO122      0.0310
     37  CG        45.1210  -40.8340    8.0770 C.3   122  PRO122      0.0237
     38  CD        45.9830  -41.0460    9.2970 C.3   122  PRO122      0.0939
     39  N         41.6040  -39.8500   10.2250 N.am  123  LYS123     -0.1964
     40  CA        40.3170  -40.5020   10.4400 C.3   123  LYS123      0.1728
     41  C         40.0290  -41.5270    9.3490 C.2   123  LYS123      0.2616
     42  O         39.6730  -42.6710    9.6370 O.2   123  LYS123     -0.2715
     43  CB        39.1900  -39.4700   10.4970 C.3   123  LYS123      0.0311
     44  CG        37.8140  -40.0810   10.7140 C.3   123  LYS123      0.0038
     45  CD        36.8080  -39.0500   11.2030 C.3   123  LYS123      0.0206
     46  CE        36.4300  -38.0690   10.1130 C.3   123  LYS123      0.1093
     47  NZ        35.3890  -37.1140   10.5910 N.3   123  LYS123     -0.1314
     48  N         40.1910  -41.1100    8.0980 N.am  124  TYR124     -0.1974
     49  CA        40.0500  -42.0140    6.9640 C.3   124  TYR124      0.1639
     50  C         41.3750  -42.1540    6.2340 C.2   124  TYR124      0.2290
     51  O         42.0290  -41.1560    5.9240 O.2   124  TYR124     -0.2864
     52  CB        38.9970  -41.5000    5.9780 C.3   124  TYR124      0.0560
     53  CG        37.5670  -41.6770    6.4300 C.ar  124  TYR124     -0.0198
     54  CD1       36.9040  -42.8790    6.2330 C.ar  124  TYR124     -0.0009
     55  CD2       36.8730  -40.6350    7.0370 C.ar  124  TYR124     -0.0009
     56  CE1       35.5940  -43.0470    6.6370 C.ar  124  TYR124      0.0417
     57  CE2       35.5590  -40.7950    7.4470 C.ar  124  TYR124      0.0417
     58  CZ        34.9260  -42.0050    7.2400 C.ar  124  TYR124      0.1957
     59  OH        33.6210  -42.1770    7.6380 O.3   124  TYR124     -0.2866
     60  N         42.6890  -43.7810    2.7020 N.3   126  ASN126     -0.1240
     61  CA        42.2970  -44.3850    1.4350 C.3   126  ASN126      0.1653
     62  C         43.4550  -45.1100    0.7660 C.2   126  ASN126      0.2266
     63  O         44.6140  -44.9220    1.1360 O.2   126  ASN126     -0.2867
     64  CB        41.7610  -43.3220    0.4730 C.3   126  ASN126      0.1155
     65  CG        40.5580  -42.5900    1.0260 C.2   126  ASN126      0.2627
     66  OD1       39.7310  -43.1740    1.7250 O.2   126  ASN126     -0.2716
     67  ND2       40.4560  -41.3040    0.7180 N.am  126  ASN126     -0.0877
     68  N         29.2710  -35.0600    0.5980 N.3   159  GLU159     -0.1231
     69  CA        30.6860  -34.9380    0.9290 C.3   159  GLU159      0.1699
     70  C         31.3210  -36.2860    1.2450 C.2   159  GLU159      0.2593
     71  O         32.4300  -36.5810    0.8010 O.2   159  GLU159     -0.2718
     72  CB        30.8870  -34.0140    2.1290 C.3   159  GLU159      0.0402
     73  CG        30.7630  -32.5430    1.8230 C.3   159  GLU159      0.1161
     74  CD        31.3000  -31.6860    2.9520 C.2   159  GLU159      0.3649
     75  OE1       30.6010  -30.7430    3.3700 O.co2 159  GLU159     -0.2457
     76  OE2       32.4250  -31.9620    3.4240 O.co2 159  GLU159     -0.2457
     77  N         30.6200  -37.0980    2.0270 N.am  160  GLY160     -0.1942
     78  CA        31.1990  -38.3290    2.5270 C.3   160  GLY160      0.2014
     79  C         30.5040  -39.5780    2.0390 C.2   160  GLY160      0.2639
     80  O         29.2850  -39.5950    1.8800 O.2   160  GLY160     -0.2714
     81  N         31.2770  -40.6340    1.8060 N.am  161  PHE161     -0.1959
     82  CA        30.6850  -41.8950    1.3800 C.3   161  PHE161      0.1771
     83  C         29.8300  -42.4910    2.4970 C.2   161  PHE161      0.2619
     84  O         28.8650  -43.2080    2.2340 O.2   161  PHE161     -0.2715
     85  CB        31.7470  -42.8800    0.8680 C.3   161  PHE161      0.0574
     86  CG        32.6780  -43.3980    1.9290 C.ar  161  PHE161     -0.0200
     87  CD1       32.3770  -44.5550    2.6290 C.ar  161  PHE161     -0.0042
     88  CD2       33.8680  -42.7460    2.2040 C.ar  161  PHE161     -0.0042
     89  CE1       33.2330  -45.0410    3.5960 C.ar  161  PHE161     -0.0003
     90  CE2       34.7310  -43.2290    3.1680 C.ar  161  PHE161     -0.0003
     91  CZ        34.4140  -44.3800    3.8630 C.ar  161  PHE161     -0.0000
     92  N         30.1710  -42.1680    3.7420 N.am  162  MET162     -0.1963
     93  CA        29.3550  -42.5720    4.8850 C.3   162  MET162      0.1736
     94  C         27.9410  -42.0060    4.7760 C.2   162  MET162      0.2616
     95  O         26.9610  -42.7030    5.0350 O.2   162  MET162     -0.2715
     96  CB        29.9920  -42.1180    6.1990 C.3   162  MET162      0.0427
     97  CG        29.1760  -42.4780    7.4280 C.3   162  MET162      0.0599
     98  SD        29.0260  -44.2640    7.6490 S.3   162  MET162     -0.1393
     99  CE        30.7390  -44.7000    7.9440 C.3   162  MET162      0.0692
    100  N         27.8440  -40.7390    4.3880 N.am  163  ASP163     -0.1971
    101  CA        26.5500  -40.0990    4.1780 C.3   163  ASP163      0.1709
    102  C         25.7960  -40.7780    3.0440 C.2   163  ASP163      0.2293
    103  O         24.5750  -40.9200    3.0960 O.2   163  ASP163     -0.2864
    104  CB        26.7380  -38.6190    3.8570 C.3   163  ASP163      0.1436
    105  CG        27.3820  -37.8590    4.9940 C.2   163  ASP163      0.3671
    106  OD1       26.8800  -37.9500    6.1340 O.co2 163  ASP163     -0.2456
    107  OD2       28.3990  -37.1800    4.7490 O.co2 163  ASP163     -0.2456
    108  N         32.6960  -38.0330   -3.8580 N.3   178  THR178     -0.1203
    109  CA        34.1000  -38.2010   -4.2040 C.3   178  THR178      0.1994
    110  C         34.8140  -38.7480   -2.9800 C.2   178  THR178      0.2618
    111  O         34.2870  -38.6920   -1.8690 O.2   178  THR178     -0.2717
    112  CB        34.7620  -36.8700   -4.5830 C.3   178  THR178      0.1784
    113  OG1       34.9160  -36.0630   -3.4070 O.3   178  THR178     -0.2211
    114  CG2       33.9220  -36.1280   -5.6150 C.3   178  THR178      0.0376
    115  N         36.0180  -39.2690   -3.1800 N.am  179  MET179     -0.1965
    116  CA        36.8090  -39.7680   -2.0640 C.3   179  MET179      0.1736
    117  C         37.6410  -38.6550   -1.4300 C.2   179  MET179      0.2617
    118  O         38.8720  -38.6880   -1.4650 O.2   179  MET179     -0.2715
    119  CB        37.7010  -40.9290   -2.5100 C.3   179  MET179      0.0427
    120  CG        36.9220  -42.1450   -2.9940 C.3   179  MET179      0.0599
    121  SD        35.6400  -42.6430   -1.8220 S.3   179  MET179     -0.1393
    122  CE        36.6140  -42.9440   -0.3450 C.3   179  MET179      0.0692
    123  N         36.9570  -37.6650   -0.8630 N.am  180  GLY180     -0.1955
    124  CA        37.6130  -36.5980   -0.1290 C.3   180  GLY180      0.1869
    125  C         38.2620  -35.5360   -0.9980 C.2   180  GLY180      0.2309
    126  O         39.0690  -34.7410   -0.5160 O.2   180  GLY180     -0.2863
    127  N         27.9930  -30.8210    3.9820 N.3   203  ASP203     -0.1239
    128  CA        27.8170  -30.6110    5.4160 C.3   203  ASP203      0.1674
    129  C         27.3700  -29.1810    5.7160 C.2   203  ASP203      0.2266
    130  O         27.7520  -28.2440    5.0150 O.2   203  ASP203     -0.2867
    131  CB        29.1150  -30.9110    6.1650 C.3   203  ASP203      0.1410
    132  CG        29.5560  -32.3540    6.0210 C.2   203  ASP203      0.3668
    133  OD1       28.9740  -33.0950    5.1940 O.co2 203  ASP203     -0.2456
    134  OD2       30.5050  -32.7400    6.7330 O.co2 203  ASP203     -0.2456
    135  N         25.5520  -33.2000    8.8820 N.3   236  ASP236     -0.1239
    136  CA        25.6690  -33.8580    7.5880 C.3   236  ASP236      0.1674
    137  C         24.4670  -34.8020    7.4400 C.2   236  ASP236      0.2266
    138  O         23.7020  -34.9570    8.3950 O.2   236  ASP236     -0.2867
    139  CB        27.0200  -34.5800    7.4580 C.3   236  ASP236      0.1410
    140  CG        27.2930  -35.5530    8.5890 C.2   236  ASP236      0.3668
    141  OD1       26.3610  -36.2110    9.0970 O.co2 236  ASP236     -0.2456
    142  OD2       28.4700  -35.6570    8.9720 O.co2 236  ASP236     -0.2456
    143  N         24.1450  -38.0230    7.4660 N.3   238  ASP238     -0.1239
    144  CA        24.1590  -39.1040    8.4510 C.3   238  ASP238      0.1674
    145  C         23.6270  -38.6390    9.8030 C.2   238  ASP238      0.2266
    146  O         22.8170  -39.3220   10.4290 O.2   238  ASP238     -0.2867
    147  CB        25.5690  -39.6760    8.6150 C.3   238  ASP238      0.1410
    148  CG        25.6510  -40.7090    9.7240 C.2   238  ASP238      0.3668
    149  OD1       24.7190  -41.5330    9.8470 O.co2 238  ASP238     -0.2456
    150  OD2       26.6460  -40.6950   10.4800 O.co2 238  ASP238     -0.2456
@<TRIPOS>BOND
     1   114   112    1
     2   112   109    1
     3   112   113    1
     4   109   108    1
     5   109   110    1
     6   115   110   am
     7   115   116    1
     8   120   119    1
     9   120   121    1
    10   110   111    2
    11   119   116    1
    12   116   117    1
    13   121   122    1
    14   118   117    2
    15   117   123   am
    16   125   126    2
    17   125   124    1
    18   123   124    1
    19    64    65    1
    20    64    61    1
    21    68    69    1
    22    67    65   am
    23    62    63    2
    24    62    61    1
    25    71    70    2
    26    85    82    1
    27    85    86    1
    28    69    70    1
    29    69    72    1
    30    65    66    2
    31    70    77   am
    32    82    81    1
    33    82    83    1
    34    61    60    1
    35    81    79   am
    36    73    72    1
    37    73    74    1
    38    80    79    2
    39    86    88   ar
    40    86    87   ar
    41    77    78    1
    42    79    78    1
    43    88    90   ar
    44    84    83    2
    45    83    92   am
    46    87    89   ar
    47    74    75   ar
    48    74    76   ar
    49   102   103    2
    50   102   101    1
    51    90    91   ar
    52    89    91   ar
    53    92    93    1
    54   104   101    1
    55   104   105    1
    56   127   128    1
    57   101   100    1
    58   100    94   am
    59   107   105   ar
    60    94    93    1
    61    94    95    2
    62    93    96    1
    63   105   106   ar
    64   130   129    2
    65   133   132   ar
    66   128   129    1
    67   128   131    1
    68    51    50    2
    69    52    53    1
    70    52    49    1
    71   132   131    1
    72   132   134   ar
    73    96    97    1
    74    54    53   ar
    75    54    56   ar
    76    50    49    1
    77    53    55   ar
    78    56    58   ar
    79    49    48    1
    80    55    57   ar
    81    58    57   ar
    82    58    59    1
    83    97    98    1
    84   137   136    1
    85   137   138    2
    86   139   136    1
    87   139   140    1
    88   143   144    1
    89   136   135    1
    90    98    99    1
    91    12    13    1
    92    37    36    1
    93    37    38    1
    94    48    41   am
    95    36    33    1
    96   144   147    1
    97   144   145    1
    98   140   142   ar
    99   140   141   ar
   100   147   148    1
   101    13    16    1
   102    13    14    1
   103    16    17    1
   104    38    32    1
   105    41    42    2
   106    41    40    1
   107   148   149   ar
   108   148   150   ar
   109   145   146    2
   110    33    34    1
   111    33    32    1
   112    17    18    1
   113    34    35    2
   114    34    39   am
   115    46    47    1
   116    46    45    1
   117    39    40    1
   118    14    15    2
   119    18    19    1
   120    32    25   am
   121    40    43    1
   122    43    44    1
   123    44    45    1
   124    11     9    1
   125    19    20    2
   126    10     9    1
   127     9     8    2
   128    25    26    2
   129    25    24    1
   130    30    29   ar
   131    20    22    1
   132    20    21    1
   133     8     7    1
   134     4     3    2
   135    24    27    1
   136    24    23    1
   137    27    28    1
   138     7     6    1
   139    29    28    1
   140    29    31   ar
   141     3     2    1
   142     5     6    1
   143     5     2    1
   144     2     1    1
