@<TRIPOS>MOLECULE
tmp/4ee3B00.pdb
 150 149 0 0 0
SMALL
GASTEIGER

@<TRIPOS>ATOM
      1  N         52.8360   31.4760   78.7830 N.3   150  LYS150     -0.1231
      2  CA        53.4880   31.2760   77.5310 C.3   150  LYS150      0.1693
      3  C         55.0200   31.2940   77.6470 C.2   150  LYS150      0.2592
      4  O         55.6790   31.0720   76.6480 O.2   150  LYS150     -0.2718
      5  CB        53.0340   32.3270   76.5070 C.3   150  LYS150      0.0285
      6  CG        53.6520   33.6840   76.6880 C.3   150  LYS150      0.0035
      7  CD        53.2250   34.5710   75.5220 C.3   150  LYS150      0.0206
      8  CE        53.9730   35.8780   75.5370 C.3   150  LYS150      0.1093
      9  NZ        53.3400   36.9490   74.7240 N.3   150  LYS150     -0.1314
     10  N         55.5680   31.6510   78.8220 N.am  151  PHE151     -0.1976
     11  CA        56.9740   31.4210   79.1110 C.3   151  PHE151      0.1639
     12  C         57.1950   30.3220   80.1610 C.2   151  PHE151      0.2290
     13  O         58.1690   30.3870   80.9430 O.2   151  PHE151     -0.2864
     14  CB        57.6560   32.7070   79.5470 C.3   151  PHE151      0.0560
     15  CG        57.5630   33.8080   78.5500 C.ar  151  PHE151     -0.0200
     16  CD1       57.0390   35.0520   78.9210 C.ar  151  PHE151     -0.0042
     17  CD2       57.9710   33.6140   77.2410 C.ar  151  PHE151     -0.0042
     18  CE1       56.9340   36.0920   78.0310 C.ar  151  PHE151     -0.0003
     19  CE2       57.8530   34.6490   76.3100 C.ar  151  PHE151     -0.0003
     20  CZ        57.3450   35.8990   76.7150 C.ar  151  PHE151     -0.0000
     21  N         61.1100   34.7770   80.8050 N.3   156  PRO156     -0.2102
     22  CA        61.9030   34.2040   79.7110 C.3   156  PRO156      0.1504
     23  C         63.4100   34.5110   79.8720 C.2   156  PRO156      0.2575
     24  O         64.2000   33.6800   79.4750 O.2   156  PRO156     -0.2718
     25  CB        61.3550   34.9210   78.4730 C.3   156  PRO156      0.0282
     26  CG        60.9590   36.2980   79.0300 C.3   156  PRO156      0.0208
     27  CD        60.3860   36.0010   80.4010 C.3   156  PRO156      0.0893
     28  N         63.7840   35.6910   80.4050 N.am  157  TYR157     -0.1977
     29  CA        65.1730   36.0140   80.8050 C.3   157  TYR157      0.1639
     30  C         65.0880   36.9780   81.9820 C.2   157  TYR157      0.2290
     31  O         64.0720   37.6730   82.0800 O.2   157  TYR157     -0.2864
     32  CB        65.9910   36.6570   79.6600 C.3   157  TYR157      0.0560
     33  CG        65.3120   37.7890   78.8630 C.ar  157  TYR157     -0.0198
     34  CD1       65.6010   39.1310   79.1130 C.ar  157  TYR157     -0.0009
     35  CD2       64.3950   37.4850   77.8150 C.ar  157  TYR157     -0.0009
     36  CE1       64.9740   40.1790   78.3280 C.ar  157  TYR157      0.0417
     37  CE2       63.7910   38.4740   77.0380 C.ar  157  TYR157      0.0417
     38  CZ        64.0880   39.8090   77.3040 C.ar  157  TYR157      0.1957
     39  OH        63.4750   40.7470   76.5580 O.3   157  TYR157     -0.2866
     40  N         63.8110   40.5490   81.6290 N.3   160  TYR160     -0.1241
     41  CA        62.6000   40.7550   80.8630 C.3   160  TYR160      0.1605
     42  C         61.6620   41.7120   81.5970 C.2   160  TYR160      0.2264
     43  O         61.4030   41.5760   82.7830 O.2   160  TYR160     -0.2867
     44  CB        61.9450   39.4270   80.6000 C.3   160  TYR160      0.0534
     45  CG        60.5620   39.5490   80.0140 C.ar  160  TYR160     -0.0201
     46  CD1       60.3590   39.9430   78.6930 C.ar  160  TYR160     -0.0009
     47  CD2       59.4380   39.2290   80.7980 C.ar  160  TYR160     -0.0009
     48  CE1       59.0600   40.0570   78.1960 C.ar  160  TYR160      0.0417
     49  CE2       58.1710   39.3310   80.3080 C.ar  160  TYR160      0.0417
     50  CZ        57.9910   39.7470   79.0260 C.ar  160  TYR160      0.1957
     51  OH        56.7110   39.7970   78.5920 O.3   160  TYR160     -0.2866
     52  N         58.6880   42.9080   79.9320 N.3   162  GLY162     -0.1225
     53  CA        57.5220   43.1320   79.0630 C.3   162  GLY162      0.1811
     54  C         56.1960   42.6710   79.7120 C.2   162  GLY162      0.2280
     55  O         56.1940   42.1140   80.8260 O.2   162  GLY162     -0.2866
     56  N         57.4020   44.7960   66.1820 N.3   185  TRP185     -0.1227
     57  CA        57.4750   44.0380   67.4100 C.3   185  TRP185      0.1737
     58  C         58.9090   43.9860   67.9490 C.2   185  TRP185      0.2596
     59  O         59.8410   43.8020   67.1890 O.2   185  TRP185     -0.2718
     60  CB        57.0500   42.6190   67.0560 C.3   185  TRP185      0.0564
     61  CG        57.1200   41.6930   68.2060 C.ar  185  TRP185      0.0003
     62  CD1       56.1190   41.4390   69.0930 C.ar  185  TRP185      0.0946
     63  CD2       58.2300   40.9040   68.6100 C.ar  185  TRP185      0.0152
     64  NE1       56.5240   40.5150   70.0140 N.ar  185  TRP185     -0.2442
     65  CE2       57.8250   40.1740   69.7560 C.ar  185  TRP185      0.0810
     66  CE3       59.5240   40.7300   68.1230 C.ar  185  TRP185      0.0012
     67  CZ2       58.6820   39.2700   70.4330 C.ar  185  TRP185      0.0191
     68  CZ3       60.3820   39.8300   68.8000 C.ar  185  TRP185      0.0001
     69  CH2       59.9610   39.1270   69.9380 C.ar  185  TRP185      0.0015
     70  N         59.1050   44.1600   69.2460 N.am  186  GLY186     -0.1942
     71  CA        60.3540   43.7110   69.8830 C.3   186  GLY186      0.2014
     72  C         61.2500   44.8230   70.3600 C.2   186  GLY186      0.2639
     73  O         61.4040   45.8100   69.6730 O.2   186  GLY186     -0.2714
     74  N         61.7700   44.6820   71.5740 N.am  187  GLY187     -0.1939
     75  CA        62.8870   45.4820   72.1040 C.3   187  GLY187      0.2014
     76  C         62.5460   46.7340   72.8680 C.2   187  GLY187      0.2639
     77  O         63.3950   47.2550   73.6460 O.2   187  GLY187     -0.2714
     78  N         61.3320   47.2630   72.6640 N.am  188  GLU188     -0.1963
     79  CA        60.9980   48.4960   73.3900 C.3   188  GLU188      0.1733
     80  C         60.9880   48.3220   74.9100 C.2   188  GLU188      0.2616
     81  O         61.2830   49.2520   75.6540 O.2   188  GLU188     -0.2715
     82  CB        59.6850   49.1500   72.8800 C.3   188  GLU188      0.0429
     83  CG        58.4040   48.6510   73.4720 C.3   188  GLU188      0.1163
     84  CD        58.0670   47.2110   73.1060 C.2   188  GLU188      0.3649
     85  OE1       57.2910   46.5740   73.8620 O.co2 188  GLU188     -0.2457
     86  OE2       58.5690   46.6960   72.0910 O.co2 188  GLU188     -0.2457
     87  N         60.5950   47.1370   75.3580 N.am  189  ASP189     -0.1957
     88  CA        60.5210   46.8310   76.7860 C.3   189  ASP189      0.1840
     89  C         61.9830   46.6780   77.3590 C.2   189  ASP189      0.2622
     90  O         62.3200   47.2310   78.4420 O.2   189  ASP189     -0.2715
     91  CB        59.6000   45.5920   76.9730 C.3   189  ASP189      0.1450
     92  CG        60.0110   44.3750   76.0690 C.2   189  ASP189      0.3671
     93  OD1       60.5600   44.6230   74.9490 O.co2 189  ASP189     -0.2456
     94  OD2       59.7730   43.1790   76.4320 O.co2 189  ASP189     -0.2456
     95  N         62.8670   45.9920   76.5980 N.am  190  ASP190     -0.1971
     96  CA        64.3050   45.9530   76.9350 C.3   190  ASP190      0.1709
     97  C         64.8720   47.3840   77.0230 C.2   190  ASP190      0.2293
     98  O         65.6490   47.7370   77.9560 O.2   190  ASP190     -0.2864
     99  CB        65.0790   45.1070   75.9240 C.3   190  ASP190      0.1436
    100  CG        64.5860   43.6950   75.8710 C.2   190  ASP190      0.3671
    101  OD1       64.2250   43.1070   76.9200 O.co2 190  ASP190     -0.2456
    102  OD2       64.4530   43.1750   74.7490 O.co2 190  ASP190     -0.2456
    103  N         49.6250   36.0130   64.7280 N.3   220  ARG220     -0.1245
    104  CA        50.3100   37.3090   64.5530 C.3   220  ARG220      0.1563
    105  C         49.3570   38.3330   63.9750 C.2   220  ARG220      0.2260
    106  O         48.5960   38.0180   63.0900 O.2   220  ARG220     -0.2867
    107  CB        51.5000   37.2350   63.5800 C.3   220  ARG220      0.0307
    108  CG        52.4080   35.9760   63.6800 C.3   220  ARG220      0.0489
    109  CD        53.8470   36.1960   63.0230 C.3   220  ARG220      0.2205
    110  NE        54.9480   35.4760   63.7030 N.pl3 220  ARG220     -0.0865
    111  CZ        54.9850   34.1470   63.8850 C.cat 220  ARG220      0.5346
    112  NH1       53.9880   33.3630   63.4400 N.pl3 220  ARG220      0.1354
    113  NH2       56.0130   33.5890   64.5260 N.pl3 220  ARG220      0.1354
    114  N         58.4580   41.6250   63.4960 N.3   226  PRO226     -0.2116
    115  CA        59.7220   41.8200   64.2440 C.3   226  PRO226      0.1372
    116  C         60.5820   42.9500   63.6720 C.2   226  PRO226      0.2244
    117  O         60.9560   42.9270   62.5070 O.2   226  PRO226     -0.2868
    118  CB        60.4340   40.4610   64.0710 C.3   226  PRO226      0.0268
    119  CG        59.2090   39.4660   64.1740 C.3   226  PRO226      0.0207
    120  CD        58.1480   40.1840   63.3080 C.3   226  PRO226      0.0892
    121  N         65.9430   46.2410   66.1310 N.3   230  ARG230     -0.1231
    122  CA        65.6930   46.3160   67.5960 C.3   230  ARG230      0.1694
    123  C         66.9370   46.1010   68.4820 C.2   230  ARG230      0.2592
    124  O         67.1560   46.8370   69.4780 O.2   230  ARG230     -0.2718
    125  CB        64.5290   45.4180   68.0280 C.3   230  ARG230      0.0321
    126  CG        64.7840   43.9310   67.9690 C.3   230  ARG230      0.0489
    127  CD        63.4670   43.1480   67.9950 C.3   230  ARG230      0.2205
    128  NE        63.6670   41.6900   67.9770 N.pl3 230  ARG230     -0.0865
    129  CZ        63.7560   40.9990   66.8510 C.cat 230  ARG230      0.5346
    130  NH1       63.6220   41.6330   65.6760 N.pl3 230  ARG230      0.1354
    131  NH2       63.9810   39.6940   66.9010 N.pl3 230  ARG230      0.1354
    132  N         67.7670   45.1440   68.0490 N.am  231  PHE231     -0.1976
    133  CA        69.0790   44.8350   68.6710 C.3   231  PHE231      0.1639
    134  C         69.9880   46.0360   68.6170 C.2   231  PHE231      0.2290
    135  O         70.5950   46.4070   69.6130 O.2   231  PHE231     -0.2864
    136  CB        69.7300   43.6190   68.0360 C.3   231  PHE231      0.0560
    137  CG        68.8320   42.4340   68.0040 C.ar  231  PHE231     -0.0200
    138  CD1       68.2960   41.9840   66.7950 C.ar  231  PHE231     -0.0042
    139  CD2       68.4260   41.8150   69.1980 C.ar  231  PHE231     -0.0042
    140  CE1       67.4250   40.9110   66.7640 C.ar  231  PHE231     -0.0003
    141  CE2       67.5300   40.7440   69.1740 C.ar  231  PHE231     -0.0003
    142  CZ        67.0150   40.3070   67.9570 C.ar  231  PHE231     -0.0000
    143  N         68.3820   48.6370   71.1490 N.3   234  ILE234     -0.1245
    144  CA        68.5040   48.4050   72.6130 C.3   234  ILE234      0.1561
    145  C         69.9530   48.5110   73.0970 C.2   234  ILE234      0.2260
    146  O         70.1970   48.9310   74.2270 O.2   234  ILE234     -0.2867
    147  CB        67.9350   47.0880   73.0350 C.3   234  ILE234      0.0252
    148  CG1       68.7190   45.9320   72.3860 C.3   234  ILE234      0.0019
    149  CG2       66.4200   47.0420   72.6730 C.3   234  ILE234      0.0019
    150  CD1       68.4040   44.5620   72.9890 C.3   234  ILE234      0.0001
@<TRIPOS>BOND
     1   117   116    2
     2   109   108    1
     3   109   110    1
     4   106   105    2
     5   120   114    1
     6   120   119    1
     7   112   111    1
     8   114   115    1
     9   107   108    1
    10   107   104    1
    11   116   115    1
    12   110   111    2
    13   111   113    1
    14   105   104    1
    15   118   119    1
    16   118   115    1
    17   104   103    1
    18   130   129    1
    19   121   122    1
    20    56    57    1
    21   140   138   ar
    22   140   142   ar
    23   138   137   ar
    24   129   131    1
    25   129   128    2
    26    60    57    1
    27    60    61    1
    28    59    58    2
    29    57    58    1
    30   122   125    1
    31   122   123    1
    32    58    70   am
    33   142   141   ar
    34   126   127    1
    35   126   125    1
    36   128   127    1
    37   137   136    1
    38   137   139   ar
    39   136   133    1
    40   132   123   am
    41   132   133    1
    42    66    63   ar
    43    66    68   ar
    44    61    63   ar
    45    61    62   ar
    46   123   124    2
    47    63    65   ar
    48   134   133    1
    49   134   135    2
    50    68    69   ar
    51    62    64   ar
    52   141   139   ar
    53    70    71    1
    54    73    72    2
    55    65    64   ar
    56    65    67   ar
    57    71    72    1
    58    69    67   ar
    59    72    74   am
    60   143   144    1
    61    74    75    1
    62    86    84   ar
    63    75    76    1
    64   148   150    1
    65   148   147    1
    66   144   147    1
    67   144   145    1
    68    78    76   am
    69    78    79    1
    70   149   147    1
    71    76    77    2
    72    82    79    1
    73    82    83    1
    74   145   146    2
    75    84    83    1
    76    84    85   ar
    77    79    80    1
    78     9     8    1
    79   102   100   ar
    80    80    87   am
    81    80    81    2
    82    93    92   ar
    83    87    88    1
    84     7     8    1
    85     7     6    1
    86   100    99    1
    87   100   101   ar
    88    99    96    1
    89    92    94   ar
    90    92    91    1
    91    19    20   ar
    92    19    17   ar
    93     5     6    1
    94     5     2    1
    95    39    38    1
    96    95    96    1
    97    95    89   am
    98     4     3    2
    99    20    18   ar
   100    88    91    1
   101    88    89    1
   102    96    97    1
   103    97    98    2
   104    37    38   ar
   105    37    35   ar
   106    17    15   ar
   107    38    36   ar
   108    89    90    2
   109     2     3    1
   110     2     1    1
   111     3    10   am
   112    35    33   ar
   113    18    16   ar
   114    48    46   ar
   115    48    50   ar
   116    36    34   ar
   117    25    26    1
   118    25    22    1
   119    15    16   ar
   120    15    14    1
   121    51    50    1
   122    46    45   ar
   123    10    11    1
   124    33    34   ar
   125    33    32    1
   126    50    49   ar
   127    26    27    1
   128    53    54    1
   129    53    52    1
   130    11    14    1
   131    11    12    1
   132    24    23    2
   133    32    29    1
   134    22    23    1
   135    22    21    1
   136    54    55    2
   137    23    28   am
   138    45    44    1
   139    45    47   ar
   140    12    13    2
   141    49    47   ar
   142    27    21    1
   143    28    29    1
   144    44    41    1
   145    29    30    1
   146    41    42    1
   147    41    40    1
   148    42    43    2
   149    30    31    2
