@<TRIPOS>MOLECULE
tmp/4ee4B00.pdb
 139 139 0 0 0
SMALL
GASTEIGER

@<TRIPOS>ATOM
      1  N         52.6640   31.7160   78.7310 N.3   150  LYS150     -0.1231
      2  CA        53.3530   31.5050   77.4450 C.3   150  LYS150      0.1693
      3  C         54.8690   31.4960   77.5900 C.2   150  LYS150      0.2592
      4  O         55.5700   31.1090   76.6420 O.2   150  LYS150     -0.2718
      5  CB        52.9390   32.5620   76.4180 C.3   150  LYS150      0.0285
      6  CG        53.2460   33.9610   76.8630 C.3   150  LYS150      0.0035
      7  CD        53.1810   34.9780   75.6920 C.3   150  LYS150      0.0206
      8  CE        53.9250   34.4340   74.5060 C.3   150  LYS150      0.1093
      9  NZ        54.1910   35.5130   73.5150 N.3   150  LYS150     -0.1314
     10  N         55.3680   31.8500   78.7810 N.am  151  PHE151     -0.1976
     11  CA        56.7610   31.6270   79.0880 C.3   151  PHE151      0.1639
     12  C         57.0260   30.5480   80.1200 C.2   151  PHE151      0.2290
     13  O         58.0230   30.6010   80.8420 O.2   151  PHE151     -0.2864
     14  CB        57.3910   32.9320   79.5280 C.3   151  PHE151      0.0560
     15  CG        57.3210   34.0030   78.4780 C.ar  151  PHE151     -0.0200
     16  CD1       56.8990   35.2770   78.8050 C.ar  151  PHE151     -0.0042
     17  CD2       57.7430   33.7400   77.1770 C.ar  151  PHE151     -0.0042
     18  CE1       56.8590   36.2920   77.8590 C.ar  151  PHE151     -0.0003
     19  CE2       57.7240   34.7750   76.2160 C.ar  151  PHE151     -0.0003
     20  CZ        57.2660   36.0450   76.5690 C.ar  151  PHE151     -0.0000
     21  N         60.8520   34.9950   80.8140 N.3   156  PRO156     -0.2102
     22  CA        61.7030   34.4910   79.7390 C.3   156  PRO156      0.1504
     23  C         63.1940   34.8080   79.9140 C.2   156  PRO156      0.2575
     24  O         64.0240   34.0480   79.4120 O.2   156  PRO156     -0.2718
     25  CB        61.1490   35.1790   78.4840 C.3   156  PRO156      0.0282
     26  CG        60.5620   36.5220   79.0240 C.3   156  PRO156      0.0208
     27  CD        60.1980   36.2810   80.5100 C.3   156  PRO156      0.0893
     28  N         63.5460   35.9100   80.5910 N.am  157  TYR157     -0.1977
     29  CA        64.9730   36.2020   80.8830 C.3   157  TYR157      0.1639
     30  C         64.8660   37.1670   82.0490 C.2   157  TYR157      0.2290
     31  O         63.7660   37.7690   82.2360 O.2   157  TYR157     -0.2864
     32  CB        65.7270   36.8210   79.6660 C.3   157  TYR157      0.0560
     33  CG        65.0200   37.9750   78.8990 C.ar  157  TYR157     -0.0198
     34  CD1       65.3450   39.3110   79.1220 C.ar  157  TYR157     -0.0009
     35  CD2       64.1010   37.6910   77.8800 C.ar  157  TYR157     -0.0009
     36  CE1       64.7320   40.3460   78.4200 C.ar  157  TYR157      0.0417
     37  CE2       63.4910   38.7060   77.1590 C.ar  157  TYR157      0.0417
     38  CZ        63.8070   39.9990   77.4100 C.ar  157  TYR157      0.1957
     39  OH        63.1770   40.9280   76.6210 O.3   157  TYR157     -0.2866
     40  N         63.6950   40.8430   81.6460 N.3   160  TYR160     -0.1241
     41  CA        62.4200   41.0150   80.9160 C.3   160  TYR160      0.1605
     42  C         61.5020   41.9950   81.6410 C.2   160  TYR160      0.2264
     43  O         61.1920   41.8050   82.8400 O.2   160  TYR160     -0.2867
     44  CB        61.7010   39.6760   80.8810 C.3   160  TYR160      0.0534
     45  CG        60.3010   39.7810   80.2250 C.ar  160  TYR160     -0.0201
     46  CD1       60.1540   40.2100   78.9080 C.ar  160  TYR160     -0.0009
     47  CD2       59.1650   39.3920   80.9310 C.ar  160  TYR160     -0.0009
     48  CE1       58.8380   40.2650   78.2970 C.ar  160  TYR160      0.0417
     49  CE2       57.8750   39.4350   80.3600 C.ar  160  TYR160      0.0417
     50  CZ        57.7290   39.9060   79.0650 C.ar  160  TYR160      0.1957
     51  OH        56.4560   39.9330   78.5420 O.3   160  TYR160     -0.2866
     52  N         58.5840   43.3010   79.9520 N.3   162  GLY162     -0.1225
     53  CA        57.4220   43.5470   79.0720 C.3   162  GLY162      0.1811
     54  C         56.0970   43.0740   79.6870 C.2   162  GLY162      0.2280
     55  O         56.0660   42.5320   80.7970 O.2   162  GLY162     -0.2866
     56  N         57.4870   45.1770   66.2350 N.3   185  TRP185     -0.1227
     57  CA        57.4960   44.3670   67.4320 C.3   185  TRP185      0.1737
     58  C         58.9650   44.2930   67.9390 C.2   185  TRP185      0.2596
     59  O         59.8800   44.0980   67.1130 O.2   185  TRP185     -0.2718
     60  CB        57.1150   42.9360   67.0520 C.3   185  TRP185      0.0564
     61  CG        57.1350   42.0150   68.1930 C.ar  185  TRP185      0.0003
     62  CD1       56.0990   41.7460   69.0400 C.ar  185  TRP185      0.0946
     63  CD2       58.2440   41.2050   68.6140 C.ar  185  TRP185      0.0152
     64  NE1       56.5120   40.8240   69.9770 N.ar  185  TRP185     -0.2442
     65  CE2       57.8270   40.4920   69.7460 C.ar  185  TRP185      0.0810
     66  CE3       59.5520   41.0200   68.1330 C.ar  185  TRP185      0.0012
     67  CZ2       58.6730   39.5640   70.4140 C.ar  185  TRP185      0.0191
     68  CZ3       60.4040   40.1670   68.8130 C.ar  185  TRP185      0.0001
     69  CH2       59.9590   39.4290   69.9400 C.ar  185  TRP185      0.0015
     70  N         59.1660   44.3770   69.2520 N.am  186  GLY186     -0.1942
     71  CA        60.4800   43.9880   69.8470 C.3   186  GLY186      0.2014
     72  C         61.3390   45.1200   70.3520 C.2   186  GLY186      0.2639
     73  O         61.5860   46.1280   69.6500 O.2   186  GLY186     -0.2714
     74  N         61.8200   44.9340   71.5890 N.am  187  GLY187     -0.1939
     75  CA        62.8580   45.7520   72.1960 C.3   187  GLY187      0.2014
     76  C         62.4810   47.0010   72.9770 C.2   187  GLY187      0.2639
     77  O         63.3110   47.5020   73.7790 O.2   187  GLY187     -0.2714
     78  N         61.2470   47.5160   72.7970 N.am  188  GLU188     -0.1963
     79  CA        60.9730   48.8200   73.4090 C.3   188  GLU188      0.1733
     80  C         60.9300   48.5850   74.9340 C.2   188  GLU188      0.2616
     81  O         61.2740   49.4720   75.7140 O.2   188  GLU188     -0.2715
     82  CB        59.6090   49.4310   72.9000 C.3   188  GLU188      0.0429
     83  CG        58.3200   48.8250   73.4640 C.3   188  GLU188      0.1163
     84  CD        58.0850   47.3410   73.2220 C.2   188  GLU188      0.3649
     85  OE1       57.3720   46.7180   74.0760 O.co2 188  GLU188     -0.2457
     86  OE2       58.5210   46.8010   72.1810 O.co2 188  GLU188     -0.2457
     87  N         60.4940   47.3930   75.3300 N.am  189  ASP189     -0.1957
     88  CA        60.4020   47.0830   76.7640 C.3   189  ASP189      0.1840
     89  C         61.8420   46.9150   77.3440 C.2   189  ASP189      0.2622
     90  O         62.0880   47.1850   78.5290 O.2   189  ASP189     -0.2715
     91  CB        59.5270   45.8210   77.0030 C.3   189  ASP189      0.1450
     92  CG        59.8850   44.6620   76.1070 C.2   189  ASP189      0.3671
     93  OD1       60.3590   44.8710   74.9700 O.co2 189  ASP189     -0.2456
     94  OD2       59.7040   43.4990   76.5170 O.co2 189  ASP189     -0.2456
     95  N         62.7560   46.3700   76.5390 N.am  190  ASP190     -0.1971
     96  CA        64.1350   46.2530   77.0000 C.3   190  ASP190      0.1709
     97  C         64.7740   47.6420   77.1090 C.2   190  ASP190      0.2293
     98  O         65.6070   47.8960   77.9900 O.2   190  ASP190     -0.2864
     99  CB        64.9090   45.4130   76.0000 C.3   190  ASP190      0.1436
    100  CG        64.3770   44.0480   75.9060 C.2   190  ASP190      0.3671
    101  OD1       64.0420   43.3960   76.9280 O.co2 190  ASP190     -0.2456
    102  OD2       64.3050   43.5590   74.7840 O.co2 190  ASP190     -0.2456
    103  N         58.3480   42.1260   63.3610 N.3   226  PRO226     -0.2116
    104  CA        59.5750   42.3220   64.1440 C.3   226  PRO226      0.1372
    105  C         60.4390   43.4120   63.5420 C.2   226  PRO226      0.2244
    106  O         60.6550   43.4570   62.3150 O.2   226  PRO226     -0.2868
    107  CB        60.2630   40.9690   64.0450 C.3   226  PRO226      0.0268
    108  CG        59.0930   39.9720   63.8920 C.3   226  PRO226      0.0207
    109  CD        58.1420   40.7070   62.9690 C.3   226  PRO226      0.0892
    110  N         65.9060   46.6050   66.0930 N.3   230  ARG230     -0.1231
    111  CA        65.6540   46.7080   67.5490 C.3   230  ARG230      0.1694
    112  C         66.9300   46.4610   68.3620 C.2   230  ARG230      0.2592
    113  O         67.1170   47.0880   69.4280 O.2   230  ARG230     -0.2718
    114  CB        64.5480   45.7520   67.9850 C.3   230  ARG230      0.0321
    115  CG        64.8180   44.2740   67.7510 C.3   230  ARG230      0.0489
    116  CD        63.5400   43.4870   67.9240 C.3   230  ARG230      0.2205
    117  NE        63.6680   42.0190   67.8240 N.pl3 230  ARG230     -0.0865
    118  CZ        63.7060   41.3120   66.7020 C.cat 230  ARG230      0.5346
    119  NH1       63.6820   41.9310   65.5030 N.pl3 230  ARG230      0.1354
    120  NH2       63.8080   39.9780   66.7730 N.pl3 230  ARG230      0.1354
    121  N         67.7770   45.5350   67.8820 N.am  231  PHE231     -0.1976
    122  CA        69.0460   45.2320   68.5910 C.3   231  PHE231      0.1639
    123  C         69.9740   46.4020   68.6310 C.2   231  PHE231      0.2290
    124  O         70.6050   46.6490   69.6720 O.2   231  PHE231     -0.2864
    125  CB        69.7090   43.9820   68.0280 C.3   231  PHE231      0.0560
    126  CG        68.7990   42.8040   68.0780 C.ar  231  PHE231     -0.0200
    127  CD1       68.2080   42.3160   66.9210 C.ar  231  PHE231     -0.0042
    128  CD2       68.4780   42.2290   69.3070 C.ar  231  PHE231     -0.0042
    129  CE1       67.3160   41.2370   66.9810 C.ar  231  PHE231     -0.0003
    130  CE2       67.6080   41.1290   69.3710 C.ar  231  PHE231     -0.0003
    131  CZ        67.0240   40.6490   68.2160 C.ar  231  PHE231     -0.0000
    132  N         68.3550   48.9850   71.1870 N.3   234  ILE234     -0.1245
    133  CA        68.4410   48.8210   72.7060 C.3   234  ILE234      0.1561
    134  C         69.9380   48.9420   73.1910 C.2   234  ILE234      0.2260
    135  O         70.2150   49.2650   74.3300 O.2   234  ILE234     -0.2867
    136  CB        67.8700   47.4920   73.1580 C.3   234  ILE234      0.0252
    137  CG1       68.6810   46.3430   72.5330 C.3   234  ILE234      0.0019
    138  CG2       66.3260   47.3610   72.7580 C.3   234  ILE234      0.0019
    139  CD1       68.2910   44.9930   73.0760 C.3   234  ILE234      0.0001
@<TRIPOS>BOND
     1   106   105    2
     2   109   103    1
     3   109   108    1
     4   103   104    1
     5   105   104    1
     6   108   107    1
     7   107   104    1
     8   119   118    1
     9   110   111    1
    10    56    57    1
    11   118   120    1
    12   118   117    2
    13   127   129   ar
    14   127   126   ar
    15   129   131   ar
    16    60    57    1
    17    60    61    1
    18    59    58    2
    19    57    58    1
    20   111   114    1
    21   111   112    1
    22   115   116    1
    23   115   114    1
    24   117   116    1
    25   121   112   am
    26   121   122    1
    27    58    70   am
    28   125   126    1
    29   125   122    1
    30   126   128   ar
    31    66    63   ar
    32    66    68   ar
    33    61    63   ar
    34    61    62   ar
    35   131   130   ar
    36   112   113    2
    37   122   123    1
    38    63    65   ar
    39   123   124    2
    40    68    69   ar
    41    62    64   ar
    42    70    71    1
    43   128   130   ar
    44    73    72    2
    45    65    64   ar
    46    65    67   ar
    47    71    72    1
    48    69    67   ar
    49    72    74   am
    50   132   133    1
    51    74    75    1
    52    86    84   ar
    53    75    76    1
    54   137   139    1
    55   137   136    1
    56   133   136    1
    57   133   134    1
    58   138   136    1
    59    78    76   am
    60    78    79    1
    61    82    79    1
    62    82    83    1
    63    76    77    2
    64   134   135    2
    65    84    83    1
    66    84    85   ar
    67    79    80    1
    68     9     8    1
    69     8     7    1
    70   102   100   ar
    71    80    87   am
    72    80    81    2
    73    93    92   ar
    74    87    88    1
    75     7     6    1
    76   100    99    1
    77   100   101   ar
    78    99    96    1
    79    92    94   ar
    80    92    91    1
    81    19    20   ar
    82    19    17   ar
    83     5     6    1
    84     5     2    1
    85    95    96    1
    86    95    89   am
    87    20    18   ar
    88    39    38    1
    89     4     3    2
    90    88    91    1
    91    88    89    1
    92    96    97    1
    93    97    98    2
    94    37    38   ar
    95    37    35   ar
    96    17    15   ar
    97    89    90    2
    98    38    36   ar
    99     2     3    1
   100     2     1    1
   101     3    10   am
   102    18    16   ar
   103    35    33   ar
   104    48    46   ar
   105    48    50   ar
   106    36    34   ar
   107    15    16   ar
   108    15    14    1
   109    25    26    1
   110    25    22    1
   111    51    50    1
   112    10    11    1
   113    33    34   ar
   114    33    32    1
   115    46    45   ar
   116    26    27    1
   117    50    49   ar
   118    53    54    1
   119    53    52    1
   120    11    14    1
   121    11    12    1
   122    24    23    2
   123    32    29    1
   124    54    55    2
   125    22    23    1
   126    22    21    1
   127    23    28   am
   128    12    13    2
   129    45    44    1
   130    45    47   ar
   131    49    47   ar
   132    27    21    1
   133    28    29    1
   134    44    41    1
   135    29    30    1
   136    41    42    1
   137    41    40    1
   138    42    43    2
   139    30    31    2
