@<TRIPOS>MOLECULE
tmp/4ee4B01.pdb
 172 169 0 0 0
SMALL
GASTEIGER

@<TRIPOS>ATOM
      1  N         47.9730   49.8240   75.3350 N.3    58  PRO58      -0.2102
      2  CA        48.2030   50.1670   73.9230 C.3    58  PRO58       0.1504
      3  C         47.3110   49.3330   73.0420 C.2    58  PRO58       0.2576
      4  O         47.1000   48.1180   73.3200 O.2    58  PRO58      -0.2718
      5  CB        49.6720   49.7560   73.6870 C.3    58  PRO58       0.0282
      6  CG        49.8590   48.5310   74.5850 C.3    58  PRO58       0.0208
      7  CD        48.9330   48.7910   75.8170 C.3    58  PRO58       0.0893
      8  N         46.8360   49.9290   71.9340 N.am   59  PHE59      -0.1963
      9  CA        45.6830   49.2590   71.2550 C.3    59  PHE59       0.1771
     10  C         45.4840   49.4820   69.7970 C.2    59  PHE59       0.2619
     11  O         45.6360   50.6050   69.3570 O.2    59  PHE59      -0.2715
     12  CB        44.3840   49.5560   72.0520 C.3    59  PHE59       0.0574
     13  CG        43.1380   48.8330   71.5310 C.ar   59  PHE59      -0.0200
     14  CD1       42.7240   47.6250   72.0980 C.ar   59  PHE59      -0.0042
     15  CD2       42.3450   49.4340   70.5650 C.ar   59  PHE59      -0.0042
     16  CE1       41.5190   46.9690   71.7060 C.ar   59  PHE59      -0.0003
     17  CE2       41.0890   48.7910   70.1500 C.ar   59  PHE59      -0.0003
     18  CZ        40.7010   47.5570   70.7270 C.ar   59  PHE59      -0.0000
     19  N         45.1940   48.4010   69.0610 N.am   60  ARG60      -0.1963
     20  CA        44.6200   48.5680   67.7230 C.3    60  ARG60       0.1729
     21  C         44.0270   47.2680   67.3090 C.2    60  ARG60       0.2616
     22  O         44.7180   46.2560   67.3600 O.2    60  ARG60      -0.2715
     23  CB        45.6290   49.0240   66.6040 C.3    60  ARG60       0.0348
     24  CG        44.8230   49.1580   65.2300 C.3    60  ARG60       0.0492
     25  CD        45.7290   49.7720   64.1330 C.3    60  ARG60       0.2205
     26  NE        46.9510   48.9900   63.9510 N.pl3  60  ARG60      -0.0865
     27  CZ        48.0430   49.5080   63.3930 C.cat  60  ARG60       0.5346
     28  NH1       49.1420   48.7920   63.2960 N.pl3  60  ARG60       0.1354
     29  NH2       48.0380   50.7790   62.9620 N.pl3  60  ARG60       0.1354
     30  N         42.7290   47.2640   66.9640 N.am   61  ASN61      -0.1958
     31  CA        42.1230   46.0570   66.3620 C.3    61  ASN61       0.1819
     32  C         42.1910   44.8550   67.2940 C.2    61  ASN61       0.2621
     33  O         42.4720   43.6990   66.8710 O.2    61  ASN61      -0.2715
     34  CB        42.8310   45.7540   65.0090 C.3    61  ASN61       0.1195
     35  CG        42.3910   46.7220   63.9040 C.2    61  ASN61       0.2630
     36  OD1       43.1580   47.1650   62.9960 O.2    61  ASN61      -0.2716
     37  ND2       41.1360   47.0590   63.9730 N.am   61  ASN61      -0.0877
     38  N         41.9820   45.0920   68.5970 N.am   62  ARG62      -0.1977
     39  CA        41.9690   43.9410   69.5120 C.3    62  ARG62       0.1597
     40  C         40.6870   43.9480   70.3800 C.2    62  ARG62       0.2287
     41  O         40.7330   43.6530   71.5720 O.2    62  ARG62      -0.2864
     42  CB        43.2230   43.9020   70.4400 C.3    62  ARG62       0.0334
     43  CG        44.5710   43.4860   69.7380 C.3    62  ARG62       0.0492
     44  CD        44.6870   42.0330   69.2820 C.3    62  ARG62       0.2205
     45  NE        46.1370   41.7550   69.1460 N.pl3  62  ARG62      -0.0865
     46  CZ        46.9610   41.4260   70.1470 C.cat  62  ARG62       0.5346
     47  NH1       46.5100   41.2680   71.4320 N.pl3  62  ARG62       0.1354
     48  NH2       48.2650   41.2210   69.8580 N.pl3  62  ARG62       0.1354
     49  N         52.6240   49.5210   63.8750 N.3    97  PHE97      -0.1241
     50  CA        52.2900   49.7720   65.3150 C.3    97  PHE97       0.1605
     51  C         53.5050   50.2840   66.1200 C.2    97  PHE97       0.2264
     52  O         54.6870   49.9730   65.8050 O.2    97  PHE97      -0.2867
     53  CB        51.8510   48.4260   65.8850 C.3    97  PHE97       0.0534
     54  CG        51.0430   48.5200   67.1680 C.ar   97  PHE97      -0.0203
     55  CD1       49.7310   49.0480   67.1370 C.ar   97  PHE97      -0.0042
     56  CD2       51.6170   48.0950   68.4040 C.ar   97  PHE97      -0.0042
     57  CE1       48.9840   49.1390   68.3300 C.ar   97  PHE97      -0.0003
     58  CE2       50.8780   48.1400   69.5640 C.ar   97  PHE97      -0.0003
     59  CZ        49.5960   48.6350   69.5420 C.ar   97  PHE97      -0.0000
     60  N         53.9660   50.3520   70.0260 N.3    99  ARG99      -0.1245
     61  CA        53.5500   50.1580   71.4160 C.3    99  ARG99       0.1563
     62  C         53.9660   51.2050   72.4220 C.2    99  ARG99       0.2260
     63  O         53.1070   51.7940   73.1400 O.2    99  ARG99      -0.2867
     64  CB        53.9230   48.7260   71.8830 C.3    99  ARG99       0.0307
     65  CG        53.6620   48.4910   73.4290 C.3    99  ARG99       0.0489
     66  CD        54.0640   47.0330   73.7670 C.3    99  ARG99       0.2205
     67  NE        53.6540   46.7670   75.1410 N.pl3  99  ARG99      -0.0865
     68  CZ        54.3460   47.0330   76.2280 C.cat  99  ARG99       0.5346
     69  NH1       55.6420   47.4520   76.1760 N.pl3  99  ARG99       0.1354
     70  NH2       53.7910   46.7240   77.3880 N.pl3  99  ARG99       0.1354
     71  N         49.5590   45.2860   78.4220 N.3   123  ASP123     -0.1225
     72  CA        49.1120   44.7760   77.1600 C.3   123  ASP123      0.1805
     73  C         47.6650   44.2970   77.3240 C.2   123  ASP123      0.2598
     74  O         47.2060   43.9840   78.4220 O.2   123  ASP123     -0.2718
     75  CB        49.9830   43.6260   76.7230 C.3   123  ASP123      0.1424
     76  CG        51.3770   44.0900   76.2190 C.2   123  ASP123      0.3668
     77  OD1       51.5910   45.2980   76.0120 O.co2 123  ASP123     -0.2456
     78  OD2       52.2320   43.2080   76.0400 O.co2 123  ASP123     -0.2456
     79  N         46.9340   44.2690   76.2310 N.am  124  VAL124     -0.1966
     80  CA        45.4580   44.0510   76.3410 C.3   124  VAL124      0.1727
     81  C         45.2050   42.5720   76.4900 C.2   124  VAL124      0.2616
     82  O         44.1070   42.1400   76.8180 O.2   124  VAL124     -0.2715
     83  CB        44.7510   44.6060   75.0750 C.3   124  VAL124      0.0290
     84  CG1       45.0950   43.7070   73.7940 C.3   124  VAL124      0.0023
     85  CG2       43.2210   44.6450   75.2830 C.3   124  VAL124      0.0023
     86  N         46.2250   41.7580   76.2390 N.am  125  ASP125     -0.1971
     87  CA        45.9800   40.2960   76.1960 C.3   125  ASP125      0.1709
     88  C         46.5910   39.5490   77.3720 C.2   125  ASP125      0.2293
     89  O         46.8060   38.2990   77.3100 O.2   125  ASP125     -0.2864
     90  CB        46.4880   39.7110   74.8610 C.3   125  ASP125      0.1436
     91  CG        47.9320   40.0650   74.5910 C.2   125  ASP125      0.3671
     92  OD1       48.7240   40.3010   75.5310 O.co2 125  ASP125     -0.2456
     93  OD2       48.2750   40.1940   73.3990 O.co2 125  ASP125     -0.2456
     94  N         52.6640   31.7160   78.7310 N.3   150  LYS150     -0.1245
     95  CA        53.3530   31.5050   77.4450 C.3   150  LYS150      0.1561
     96  C         54.8690   31.4960   77.5900 C.2   150  LYS150      0.2260
     97  O         55.5700   31.1090   76.6420 O.2   150  LYS150     -0.2867
     98  CB        52.9390   32.5620   76.4180 C.3   150  LYS150      0.0271
     99  CG        53.2460   33.9610   76.8630 C.3   150  LYS150      0.0035
    100  CD        53.1810   34.9780   75.6920 C.3   150  LYS150      0.0206
    101  CE        53.9250   34.4340   74.5060 C.3   150  LYS150      0.1093
    102  NZ        54.1910   35.5130   73.5150 N.3   150  LYS150     -0.1314
    103  N         57.4870   45.1770   66.2350 N.3   185  TRP185     -0.1241
    104  CA        57.4960   44.3670   67.4320 C.3   185  TRP185      0.1605
    105  C         58.9650   44.2930   67.9390 C.2   185  TRP185      0.2264
    106  O         59.8800   44.0980   67.1130 O.2   185  TRP185     -0.2867
    107  CB        57.1150   42.9360   67.0520 C.3   185  TRP185      0.0550
    108  CG        57.1350   42.0150   68.1930 C.ar  185  TRP185      0.0003
    109  CD1       56.0990   41.7460   69.0400 C.ar  185  TRP185      0.0946
    110  CD2       58.2440   41.2050   68.6140 C.ar  185  TRP185      0.0152
    111  NE1       56.5120   40.8240   69.9770 N.ar  185  TRP185     -0.2442
    112  CE2       57.8270   40.4920   69.7460 C.ar  185  TRP185      0.0810
    113  CE3       59.5520   41.0200   68.1330 C.ar  185  TRP185      0.0012
    114  CZ2       58.6730   39.5640   70.4140 C.ar  185  TRP185      0.0191
    115  CZ3       60.4040   40.1670   68.8130 C.ar  185  TRP185      0.0001
    116  CH2       59.9590   39.4290   69.9400 C.ar  185  TRP185      0.0015
    117  N         48.0060   34.6960   79.0340 N.3   215  HIS215     -0.1241
    118  CA        48.0110   35.4010   77.7880 C.3   215  HIS215      0.1621
    119  C         46.9110   34.8790   76.9120 C.2   215  HIS215      0.2264
    120  O         46.7480   33.6490   76.7540 O.2   215  HIS215     -0.2867
    121  CB        49.3420   35.1030   77.1030 C.3   215  HIS215      0.0745
    122  CG        49.4770   35.7400   75.7630 C.ar  215  HIS215      0.0817
    123  ND1       49.4630   34.9940   74.6060 N.ar  215  HIS215     -0.2268
    124  CD2       49.6710   37.0350   75.3880 C.ar  215  HIS215      0.1154
    125  CE1       49.6560   35.7970   73.5710 C.ar  215  HIS215      0.1986
    126  NE2       49.7910   37.0340   74.0170 N.ar  215  HIS215     -0.2212
    127  N         46.4860   34.2380   70.3450 N.3   218  HIS218     -0.1241
    128  CA        45.9100   34.8450   69.1650 C.3   218  HIS218      0.1621
    129  C         46.8880   34.6120   68.0060 C.2   218  HIS218      0.2264
    130  O         48.0840   34.3810   68.2110 O.2   218  HIS218     -0.2867
    131  CB        45.7400   36.3710   69.3620 C.3   218  HIS218      0.0745
    132  CG        47.0120   37.0590   69.7410 C.ar  218  HIS218      0.0817
    133  ND1       47.9370   37.5030   68.8110 N.ar  218  HIS218     -0.2268
    134  CD2       47.5280   37.3620   70.9550 C.ar  218  HIS218      0.1154
    135  CE1       48.9610   38.0530   69.4360 C.ar  218  HIS218      0.1986
    136  NE2       48.7370   37.9860   70.7370 N.ar  218  HIS218     -0.2212
    137  N         48.9940   36.1050   64.5750 N.3   220  ARG220     -0.1231
    138  CA        49.8720   37.2590   64.4910 C.3   220  ARG220      0.1694
    139  C         49.0640   38.4660   64.0510 C.2   220  ARG220      0.2592
    140  O         48.1130   38.3270   63.2910 O.2   220  ARG220     -0.2718
    141  CB        51.0100   36.9910   63.4980 C.3   220  ARG220      0.0321
    142  CG        50.5970   36.8520   61.9900 C.3   220  ARG220      0.0489
    143  CD        51.7820   36.2930   61.1540 C.3   220  ARG220      0.2205
    144  NE        52.7480   35.6600   62.0700 N.pl3 220  ARG220     -0.0865
    145  CZ        52.7540   34.3730   62.4450 C.cat 220  ARG220      0.5346
    146  NH1       51.8620   33.4950   61.9800 N.pl3 220  ARG220      0.1354
    147  NH2       53.6750   33.9560   63.3080 N.pl3 220  ARG220      0.1354
    148  N         49.4340   39.6470   64.5430 N.am  221  ASP221     -0.1960
    149  CA        48.8010   40.8780   64.1060 C.3   221  ASP221      0.1840
    150  C         49.3920   41.1820   62.7540 C.2   221  ASP221      0.2621
    151  O         50.4430   40.6530   62.4520 O.2   221  ASP221     -0.2715
    152  CB        49.1400   41.9740   65.1140 C.3   221  ASP221      0.1450
    153  CG        48.5710   41.6500   66.5030 C.2   221  ASP221      0.3671
    154  OD1       49.3690   41.4500   67.4420 O.co2 221  ASP221     -0.2456
    155  OD2       47.3180   41.5090   66.5720 O.co2 221  ASP221     -0.2456
    156  N         48.7270   41.9950   61.9360 N.am  222  LYS222     -0.1977
    157  CA        49.3920   42.6010   60.7820 C.3   222  LYS222      0.1596
    158  C         50.0050   43.9250   61.2600 C.2   222  LYS222      0.2287
    159  O         49.5880   44.4390   62.2990 O.2   222  LYS222     -0.2864
    160  CB        48.3380   42.8230   59.6960 C.3   222  LYS222      0.0298
    161  CG        47.7630   41.5080   59.1510 C.3   222  LYS222      0.0038
    162  CD        46.6890   41.7930   58.0910 C.3   222  LYS222      0.0206
    163  CE        46.1480   40.4940   57.4890 C.3   222  LYS222      0.1093
    164  NZ        44.9780   40.0600   58.3260 N.3   222  LYS222     -0.1314
    165  N         52.7070   44.7900   62.7600 N.3   224  ASN224     -0.1240
    166  CA        53.6220   44.8880   63.8820 C.3   224  ASN224      0.1653
    167  C         54.8030   43.9310   63.6660 C.2   224  ASN224      0.2266
    168  O         55.1360   43.1540   64.5610 O.2   224  ASN224     -0.2867
    169  CB        52.8990   44.5750   65.2340 C.3   224  ASN224      0.1155
    170  CG        53.7170   45.0590   66.4560 C.2   224  ASN224      0.2627
    171  OD1       54.3870   46.1040   66.3850 O.2   224  ASN224     -0.2716
    172  ND2       53.5850   44.3720   67.5870 N.am  224  ASN224     -0.0877
@<TRIPOS>BOND
     1   163   162    1
     2   163   164    1
     3   162   161    1
     4   161   160    1
     5   160   157    1
     6   157   158    1
     7   157   156    1
     8   143   142    1
     9   143   144    1
    10   158   159    2
    11   156   150   am
    12   146   145    1
    13   142   141    1
    14   144   145    2
    15   145   147    1
    16   151   150    2
    17   150   149    1
    18   165   166    1
    19    29    27    1
    20    36    35    2
    21   140   139    2
    22    28    27    1
    23    27    26    2
    24   141   138    1
    25   167   166    1
    26   167   168    2
    27    49    50    1
    28   166   169    1
    29    35    37   am
    30    35    34    1
    31    26    25    1
    32   139   138    1
    33   139   148   am
    34   149   148    1
    35   149   152    1
    36    25    24    1
    37   138   137    1
    38    34    31    1
    39   152   153    1
    40    24    23    1
    41   169   170    1
    42    50    53    1
    43    50    51    1
    44    52    51    2
    45    53    54    1
    46   103   104    1
    47    31    30    1
    48    31    32    1
    49   171   170    2
    50   170   172   am
    51   153   155   ar
    52   153   154   ar
    53    23    20    1
    54    33    32    2
    55    30    21   am
    56   107   104    1
    57   107   108    1
    58   106   105    2
    59    55    54   ar
    60    55    57   ar
    61    54    56   ar
    62    32    38   am
    63    21    22    2
    64    21    20    1
    65   104   105    1
    66    20    19    1
    67   129   130    2
    68   129   128    1
    69   113   110   ar
    70   113   115   ar
    71   108   110   ar
    72   108   109   ar
    73    57    59   ar
    74    56    58   ar
    75    38    39    1
    76   110   112   ar
    77   133   135   ar
    78   133   132   ar
    79   115   116   ar
    80   109   111   ar
    81    19    10   am
    82    45    44    1
    83    45    46    2
    84   128   131    1
    85   128   127    1
    86    44    43    1
    87    11    10    2
    88   131   132    1
    89   135   136   ar
    90    39    40    1
    91    39    42    1
    92    59    58   ar
    93    43    42    1
    94   132   134   ar
    95   112   111   ar
    96   112   114   ar
    97    10     9    1
    98    48    46    1
    99   116   114   ar
   100    60    61    1
   101    46    47    1
   102    17    15   ar
   103    17    18   ar
   104    40    41    2
   105    15    13   ar
   106    18    16   ar
   107   136   134   ar
   108     9     8    1
   109     9    12    1
   110    61    64    1
   111    61    62    1
   112    13    12    1
   113    13    14   ar
   114    16    14   ar
   115    64    65    1
   116     8     3   am
   117    62    63    2
   118     3     4    2
   119     3     2    1
   120    93    91   ar
   121    65    66    1
   122   102   101    1
   123   125   126   ar
   124   125   123   ar
   125     5     2    1
   126     5     6    1
   127    66    67    1
   128    84    83    1
   129     2     1    1
   130   126   124   ar
   131   101   100    1
   132     6     7    1
   133    91    90    1
   134    91    92   ar
   135   123   122   ar
   136    90    87    1
   137    83    85    1
   138    83    80    1
   139    67    68    2
   140     1     7    1
   141   124   122   ar
   142   100    99    1
   143   122   121    1
   144    77    76   ar
   145    78    76   ar
   146    69    68    1
   147    87    86    1
   148    87    88    1
   149    76    75    1
   150    68    70    1
   151    79    80    1
   152    79    73   am
   153    86    81   am
   154    80    81    1
   155    98    99    1
   156    98    95    1
   157    81    82    2
   158    97    96    2
   159    75    72    1
   160   120   119    2
   161   119   118    1
   162   121   118    1
   163    72    73    1
   164    72    71    1
   165    89    88    2
   166    73    74    2
   167    95    96    1
   168    95    94    1
   169   118   117    1
