@<TRIPOS>MOLECULE
tmp/4ee5B00.pdb
 132 132 0 0 0
SMALL
GASTEIGER

@<TRIPOS>ATOM
      1  N         52.5390   31.5550   78.8360 N.3   150  LYS150     -0.1231
      2  CA        53.2060   31.3560   77.5590 C.3   150  LYS150      0.1693
      3  C         54.7030   31.3730   77.6830 C.2   150  LYS150      0.2592
      4  O         55.3830   31.1180   76.7190 O.2   150  LYS150     -0.2718
      5  CB        52.7750   32.3890   76.5210 C.3   150  LYS150      0.0285
      6  CG        53.3450   33.7500   76.7040 C.3   150  LYS150      0.0035
      7  CD        53.3740   34.4620   75.3330 C.3   150  LYS150      0.0206
      8  CE        53.9770   35.8400   75.5120 C.3   150  LYS150      0.1093
      9  NZ        53.2700   36.9320   74.8290 N.3   150  LYS150     -0.1314
     10  N         55.2110   31.6630   78.8720 N.am  151  PHE151     -0.1976
     11  CA        56.6250   31.5330   79.1140 C.3   151  PHE151      0.1639
     12  C         56.9340   30.4100   80.1160 C.2   151  PHE151      0.2290
     13  O         57.9660   30.4680   80.7970 O.2   151  PHE151     -0.2864
     14  CB        57.1700   32.8700   79.6310 C.3   151  PHE151      0.0560
     15  CG        57.1760   33.9780   78.5940 C.ar  151  PHE151     -0.0200
     16  CD1       56.7730   35.2680   78.9430 C.ar  151  PHE151     -0.0042
     17  CD2       57.6500   33.7540   77.3050 C.ar  151  PHE151     -0.0042
     18  CE1       56.7770   36.3180   78.0400 C.ar  151  PHE151     -0.0003
     19  CE2       57.6790   34.8160   76.3650 C.ar  151  PHE151     -0.0003
     20  CZ        57.2220   36.1060   76.7360 C.ar  151  PHE151     -0.0000
     21  N         60.9020   34.7970   81.1230 N.3   156  PRO156     -0.2102
     22  CA        61.7410   34.3090   80.0170 C.3   156  PRO156      0.1504
     23  C         63.2250   34.6810   80.1510 C.2   156  PRO156      0.2575
     24  O         64.0810   33.9840   79.6030 O.2   156  PRO156     -0.2718
     25  CB        61.1550   35.0080   78.7970 C.3   156  PRO156      0.0282
     26  CG        60.5190   36.3240   79.3570 C.3   156  PRO156      0.0208
     27  CD        60.2180   36.0800   80.8210 C.3   156  PRO156      0.0893
     28  N         63.5440   35.7880   80.8260 N.am  157  TYR157     -0.1977
     29  CA        64.9230   36.0930   81.1690 C.3   157  TYR157      0.1639
     30  C         64.8500   37.0730   82.3180 C.2   157  TYR157      0.2290
     31  O         63.8140   37.7460   82.4770 O.2   157  TYR157     -0.2864
     32  CB        65.7520   36.6260   79.9630 C.3   157  TYR157      0.0560
     33  CG        65.1010   37.7490   79.1560 C.ar  157  TYR157     -0.0198
     34  CD1       65.5230   39.0710   79.2910 C.ar  157  TYR157     -0.0009
     35  CD2       64.0860   37.4720   78.2270 C.ar  157  TYR157     -0.0009
     36  CE1       64.9100   40.1230   78.5630 C.ar  157  TYR157      0.0417
     37  CE2       63.4850   38.4790   77.4820 C.ar  157  TYR157      0.0417
     38  CZ        63.9160   39.8000   77.6540 C.ar  157  TYR157      0.1957
     39  OH        63.3420   40.7730   76.9080 O.3   157  TYR157     -0.2866
     40  N         63.6520   40.7040   81.7980 N.3   160  TYR160     -0.1241
     41  CA        62.4180   40.8470   81.0400 C.3   160  TYR160      0.1605
     42  C         61.5100   41.8160   81.7700 C.2   160  TYR160      0.2264
     43  O         61.2010   41.6530   82.9640 O.2   160  TYR160     -0.2867
     44  CB        61.7280   39.4970   80.8900 C.3   160  TYR160      0.0534
     45  CG        60.3500   39.6160   80.2700 C.ar  160  TYR160     -0.0201
     46  CD1       60.1760   40.0880   78.9690 C.ar  160  TYR160     -0.0009
     47  CD2       59.2250   39.2490   80.9840 C.ar  160  TYR160     -0.0009
     48  CE1       58.8880   40.2050   78.4130 C.ar  160  TYR160      0.0417
     49  CE2       57.9460   39.3410   80.4250 C.ar  160  TYR160      0.0417
     50  CZ        57.7900   39.8280   79.1610 C.ar  160  TYR160      0.1957
     51  OH        56.5130   39.9230   78.6650 O.3   160  TYR160     -0.2866
     52  N         58.6130   43.1580   79.9930 N.3   162  GLY162     -0.1225
     53  CA        57.4130   43.2610   79.1510 C.3   162  GLY162      0.1811
     54  C         56.0850   42.8870   79.8310 C.2   162  GLY162      0.2280
     55  O         56.0590   42.3600   80.9530 O.2   162  GLY162     -0.2866
     56  N         57.4950   44.9970   66.2740 N.3   185  TRP185     -0.1227
     57  CA        57.4960   44.2160   67.4980 C.3   185  TRP185      0.1737
     58  C         58.9260   44.1510   68.0440 C.2   185  TRP185      0.2596
     59  O         59.8640   44.0770   67.2670 O.2   185  TRP185     -0.2718
     60  CB        57.0110   42.8140   67.1570 C.3   185  TRP185      0.0564
     61  CG        57.0150   41.8940   68.3090 C.ar  185  TRP185      0.0003
     62  CD1       55.9620   41.5890   69.0980 C.ar  185  TRP185      0.0946
     63  CD2       58.1270   41.1330   68.7900 C.ar  185  TRP185      0.0152
     64  NE1       56.3420   40.6820   70.0560 N.ar  185  TRP185     -0.2442
     65  CE2       57.6630   40.3670   69.8760 C.ar  185  TRP185      0.0810
     66  CE3       59.4560   40.9920   68.3800 C.ar  185  TRP185      0.0012
     67  CZ2       58.4960   39.4890   70.5970 C.ar  185  TRP185      0.0191
     68  CZ3       60.2870   40.1170   69.0930 C.ar  185  TRP185      0.0001
     69  CH2       59.8040   39.3930   70.1920 C.ar  185  TRP185      0.0015
     70  N         59.1110   44.2250   69.3580 N.am  186  GLY186     -0.1942
     71  CA        60.4120   43.8560   69.9350 C.3   186  GLY186      0.2014
     72  C         61.2860   44.9560   70.4800 C.2   186  GLY186      0.2639
     73  O         61.4730   45.9600   69.8340 O.2   186  GLY186     -0.2714
     74  N         61.8350   44.7680   71.6760 N.am  187  GLY187     -0.1939
     75  CA        62.9110   45.6420   72.1820 C.3   187  GLY187      0.2014
     76  C         62.5210   46.8660   72.9890 C.2   187  GLY187      0.2639
     77  O         63.3270   47.3380   73.8140 O.2   187  GLY187     -0.2714
     78  N         61.3060   47.3980   72.7850 N.am  188  GLU188     -0.1963
     79  CA        60.9330   48.6350   73.4570 C.3   188  GLU188      0.1733
     80  C         60.9270   48.3940   74.9500 C.2   188  GLU188      0.2616
     81  O         61.1990   49.2950   75.7240 O.2   188  GLU188     -0.2715
     82  CB        59.5750   49.2080   72.9470 C.3   188  GLU188      0.0429
     83  CG        58.3040   48.7330   73.6200 C.3   188  GLU188      0.1163
     84  CD        58.0330   47.2450   73.3890 C.2   188  GLU188      0.3649
     85  OE1       57.3330   46.6310   74.2270 O.co2 188  GLU188     -0.2457
     86  OE2       58.5160   46.6910   72.3750 O.co2 188  GLU188     -0.2457
     87  N         60.6110   47.1660   75.3440 N.am  189  ASP189     -0.1957
     88  CA        60.4630   46.8640   76.7680 C.3   189  ASP189      0.1840
     89  C         61.8480   46.6790   77.4190 C.2   189  ASP189      0.2622
     90  O         62.0550   47.0480   78.5750 O.2   189  ASP189     -0.2715
     91  CB        59.5620   45.6210   76.9880 C.3   189  ASP189      0.1450
     92  CG        59.9760   44.4280   76.1500 C.2   189  ASP189      0.3671
     93  OD1       60.4730   44.6730   75.0150 O.co2 189  ASP189     -0.2456
     94  OD2       59.7670   43.2490   76.5830 O.co2 189  ASP189     -0.2456
     95  N         62.7870   46.0910   76.6710 N.am  190  ASP190     -0.1971
     96  CA        64.2020   46.0580   77.0700 C.3   190  ASP190      0.1709
     97  C         64.7560   47.4920   77.1950 C.2   190  ASP190      0.2293
     98  O         65.5850   47.7990   78.0730 O.2   190  ASP190     -0.2864
     99  CB        64.9800   45.2510   76.0310 C.3   190  ASP190      0.1436
    100  CG        64.5700   43.7830   76.0250 C.2   190  ASP190      0.3671
    101  OD1       64.2400   43.2080   77.0720 O.co2 190  ASP190     -0.2456
    102  OD2       64.5130   43.2000   74.9510 O.co2 190  ASP190     -0.2456
    103  N         65.8480   46.6440   66.2560 N.3   230  ARG230     -0.1231
    104  CA        65.5810   46.6950   67.7010 C.3   230  ARG230      0.1694
    105  C         66.8460   46.4410   68.5360 C.2   230  ARG230      0.2592
    106  O         67.0410   47.0850   69.5950 O.2   230  ARG230     -0.2718
    107  CB        64.4800   45.7220   68.1080 C.3   230  ARG230      0.0321
    108  CG        64.8290   44.2700   67.9340 C.3   230  ARG230      0.0489
    109  CD        63.5750   43.4400   68.1260 C.3   230  ARG230      0.2205
    110  NE        63.7090   41.9940   67.9630 N.pl3 230  ARG230     -0.0865
    111  CZ        63.6100   41.3520   66.8050 C.cat 230  ARG230      0.5346
    112  NH1       63.4590   42.0480   65.6670 N.pl3 230  ARG230      0.1354
    113  NH2       63.6960   40.0140   66.7970 N.pl3 230  ARG230      0.1354
    114  N         67.6820   45.5190   68.0370 N.am  231  PHE231     -0.1976
    115  CA        68.9840   45.2150   68.6520 C.3   231  PHE231      0.1639
    116  C         69.9250   46.4020   68.6310 C.2   231  PHE231      0.2290
    117  O         70.5850   46.6490   69.6230 O.2   231  PHE231     -0.2864
    118  CB        69.6680   44.0110   67.9940 C.3   231  PHE231      0.0560
    119  CG        68.7900   42.8020   67.8840 C.ar  231  PHE231     -0.0200
    120  CD1       68.3410   42.3820   66.6400 C.ar  231  PHE231     -0.0042
    121  CD2       68.3680   42.1100   69.0220 C.ar  231  PHE231     -0.0042
    122  CE1       67.5030   41.2660   66.5180 C.ar  231  PHE231     -0.0003
    123  CE2       67.5210   40.9970   68.9010 C.ar  231  PHE231     -0.0003
    124  CZ        67.0780   40.5950   67.6500 C.ar  231  PHE231     -0.0000
    125  N         68.4410   48.9250   71.3620 N.3   234  ILE234     -0.1245
    126  CA        68.4910   48.6850   72.8360 C.3   234  ILE234      0.1561
    127  C         69.9280   48.8340   73.3610 C.2   234  ILE234      0.2260
    128  O         70.1480   49.1530   74.5300 O.2   234  ILE234     -0.2867
    129  CB        67.8910   47.3230   73.2390 C.3   234  ILE234      0.0252
    130  CG1       68.7140   46.1900   72.6440 C.3   234  ILE234      0.0019
    131  CG2       66.4110   47.2680   72.8170 C.3   234  ILE234      0.0019
    132  CD1       68.2260   44.7810   73.0020 C.3   234  ILE234      0.0001
@<TRIPOS>BOND
     1   112   111    1
     2   103   104    1
     3    56    57    1
     4   122   120   ar
     5   122   124   ar
     6   120   119   ar
     7   113   111    1
     8   111   110    2
     9    60    57    1
    10    60    61    1
    11    59    58    2
    12    57    58    1
    13   124   123   ar
    14   104   107    1
    15   104   105    1
    16   119   118    1
    17   119   121   ar
    18   108   107    1
    19   108   109    1
    20   110   109    1
    21   118   115    1
    22   114   105   am
    23   114   115    1
    24    58    70   am
    25    61    63   ar
    26    61    62   ar
    27    66    63   ar
    28    66    68   ar
    29   105   106    2
    30   116   115    1
    31   116   117    2
    32    63    65   ar
    33   123   121   ar
    34    68    69   ar
    35    62    64   ar
    36    70    71    1
    37    73    72    2
    38    65    64   ar
    39    65    67   ar
    40    71    72    1
    41    69    67   ar
    42    72    74   am
    43   125   126    1
    44    74    75    1
    45    75    76    1
    46    86    84   ar
    47   130   132    1
    48   130   129    1
    49    78    76   am
    50    78    79    1
    51   131   129    1
    52   126   129    1
    53   126   127    1
    54    82    79    1
    55    82    83    1
    56    76    77    2
    57   127   128    2
    58    84    83    1
    59    84    85   ar
    60    79    80    1
    61     9     8    1
    62    80    87   am
    63    80    81    2
    64   102   100   ar
    65    93    92   ar
    66     7     8    1
    67     7     6    1
    68    87    88    1
    69   100    99    1
    70   100   101   ar
    71    99    96    1
    72    92    94   ar
    73    92    91    1
    74    19    20   ar
    75    19    17   ar
    76     5     6    1
    77     5     2    1
    78    95    96    1
    79    95    89   am
    80     4     3    2
    81    20    18   ar
    82    88    91    1
    83    88    89    1
    84    39    38    1
    85    96    97    1
    86    97    98    2
    87    17    15   ar
    88    89    90    2
    89    37    38   ar
    90    37    35   ar
    91     2     3    1
    92     2     1    1
    93    38    36   ar
    94     3    10   am
    95    18    16   ar
    96    35    33   ar
    97    48    46   ar
    98    48    50   ar
    99    36    34   ar
   100    15    16   ar
   101    15    14    1
   102    51    50    1
   103    25    26    1
   104    25    22    1
   105    10    11    1
   106    46    45   ar
   107    11    14    1
   108    11    12    1
   109    53    54    1
   110    53    52    1
   111    33    34   ar
   112    33    32    1
   113    50    49   ar
   114    26    27    1
   115    24    23    2
   116    54    55    2
   117    32    29    1
   118    22    23    1
   119    22    21    1
   120    12    13    2
   121    23    28   am
   122    45    44    1
   123    45    47   ar
   124    49    47   ar
   125    27    21    1
   126    28    29    1
   127    44    41    1
   128    41    42    1
   129    41    40    1
   130    29    30    1
   131    42    43    2
   132    30    31    2
