@<TRIPOS>MOLECULE
tmp/4ee7A01.pdb
 97 92 0 0 0
SMALL
GASTEIGER

@<TRIPOS>ATOM
      1  N         -4.8740   -6.7260   16.7370 N.3    44  SER44      -0.1217
      2  CA        -3.4530   -6.8770   16.9420 C.3    44  SER44       0.1889
      3  C         -2.7320   -7.0190   15.6150 C.2    44  SER44       0.2288
      4  O         -3.3500   -7.3590   14.6070 O.2    44  SER44      -0.2866
      5  CB        -3.1550   -8.0520   17.8590 C.3    44  SER44       0.2089
      6  OG        -3.6540   -9.2760   17.3280 O.3    44  SER44      -0.2183
      7  N         -4.9580   -8.8390   12.7510 N.3    59  ARG59      -0.1245
      8  CA        -5.9360   -9.7960   13.2550 C.3    59  ARG59       0.1563
      9  C         -7.0780   -9.0730   13.9890 C.2    59  ARG59       0.2260
     10  O         -6.8280   -8.1900   14.8230 O.2    59  ARG59      -0.2867
     11  CB        -5.2510  -10.7970   14.1870 C.3    59  ARG59       0.0307
     12  CG        -4.0470  -11.4740   13.5880 C.3    59  ARG59       0.0489
     13  CD        -2.7700  -10.8210   13.9860 C.3    59  ARG59       0.2205
     14  NE        -2.6140  -10.9570   15.4250 N.pl3  59  ARG59      -0.0865
     15  CZ        -2.1830  -12.0460   16.0490 C.cat  59  ARG59       0.5346
     16  NH1       -2.1150  -12.0360   17.3710 N.pl3  59  ARG59       0.1354
     17  NH2       -1.8040  -13.1360   15.3720 N.pl3  59  ARG59       0.1354
     18  N        -10.0680  -10.2070   16.4050 N.3    61  THR61      -0.1218
     19  CA       -10.5500  -11.3460   17.1710 C.3    61  THR61       0.1862
     20  C        -11.6550  -10.8930   18.1470 C.2    61  THR61       0.2287
     21  O        -12.0440   -9.7090   18.1610 O.2    61  THR61      -0.2866
     22  CB        -9.3810  -12.0890   17.8880 C.3    61  THR61       0.1770
     23  OG1       -8.7110  -11.2190   18.7950 O.3    61  THR61      -0.2211
     24  CG2       -8.3600  -12.6310   16.8420 C.3    61  THR61       0.0375
     25  N        -10.1000  -17.6630   12.6410 N.3   114  TRP114     -0.1241
     26  CA        -9.9010  -18.3890   13.8770 C.3   114  TRP114      0.1605
     27  C        -11.2430  -18.6480   14.5070 C.2   114  TRP114      0.2264
     28  O        -12.1430  -17.8190   14.4080 O.2   114  TRP114     -0.2867
     29  CB        -9.0380  -17.6180   14.8660 C.3   114  TRP114      0.0550
     30  CG        -7.5780  -17.6300   14.5690 C.ar  114  TRP114      0.0003
     31  CD1       -6.6960  -18.6520   14.7460 C.ar  114  TRP114      0.0946
     32  CD2       -6.8380  -16.5400   14.0680 C.ar  114  TRP114      0.0152
     33  NE1       -5.4300  -18.2630   14.3700 N.ar  114  TRP114     -0.2442
     34  CE2       -5.4950  -16.9600   13.9510 C.ar  114  TRP114      0.0810
     35  CE3       -7.1820  -15.2350   13.6950 C.ar  114  TRP114      0.0012
     36  CZ2       -4.4950  -16.1240   13.5010 C.ar  114  TRP114      0.0191
     37  CZ3       -6.1820  -14.4030   13.2440 C.ar  114  TRP114      0.0001
     38  CH2       -4.8570  -14.8620   13.1310 C.ar  114  TRP114      0.0015
     39  N        -12.7910  -19.8400   18.2050 N.3   116  PHE116     -0.1241
     40  CA       -12.3830  -19.8910   19.6110 C.3   116  PHE116      0.1605
     41  C        -13.4580  -20.4780   20.4730 C.2   116  PHE116      0.2264
     42  O        -14.5210  -19.8690   20.5980 O.2   116  PHE116     -0.2867
     43  CB       -12.1480  -18.4740   20.1520 C.3   116  PHE116      0.0534
     44  CG       -11.0450  -17.7180   19.4670 C.ar  116  PHE116     -0.0203
     45  CD1       -9.7240  -17.9170   19.8190 C.ar  116  PHE116     -0.0042
     46  CD2      -11.3310  -16.7860   18.4890 C.ar  116  PHE116     -0.0042
     47  CE1       -8.7110  -17.1910   19.1920 C.ar  116  PHE116     -0.0003
     48  CE2      -10.3190  -16.0840   17.8500 C.ar  116  PHE116     -0.0003
     49  CZ        -9.0220  -16.2860   18.2180 C.ar  116  PHE116     -0.0000
     50  N         -7.8340  -25.0870   22.0490 N.3   154  SER154     -0.1202
     51  CA        -8.2260  -23.7610   22.5140 C.3   154  SER154      0.2020
     52  C         -8.4290  -22.7650   21.3770 C.2   154  SER154      0.2619
     53  O         -8.9490  -21.6880   21.6150 O.2   154  SER154     -0.2717
     54  CB        -7.2040  -23.2230   23.5350 C.3   154  SER154      0.2103
     55  OG        -5.9330  -23.0770   22.9190 O.3   154  SER154     -0.2182
     56  N         -8.0100  -23.1140   20.1570 N.am  155  THR155     -0.1952
     57  CA        -8.3820  -22.3680   18.9620 C.3   155  THR155      0.1897
     58  C         -8.1720  -23.2730   17.7770 C.2   155  THR155      0.2313
     59  O         -7.2910  -24.1380   17.8130 O.2   155  THR155     -0.2863
     60  CB        -7.5200  -21.0910   18.7470 C.3   155  THR155      0.1794
     61  OG1       -7.3950  -20.3570   19.9600 O.3   155  THR155     -0.2208
     62  CG2       -8.1490  -20.1690   17.6920 C.3   155  THR155      0.0378
     63  N         -4.4730  -24.9840   18.3180 N.3   168  TYR168     -0.1241
     64  CA        -3.8580  -24.3750   19.4820 C.3   168  TYR168      0.1605
     65  C         -4.2930  -25.0840   20.7270 C.2   168  TYR168      0.2264
     66  O         -5.4380  -25.5700   20.7940 O.2   168  TYR168     -0.2867
     67  CB        -4.2350  -22.8910   19.5600 C.3   168  TYR168      0.0534
     68  CG        -3.8460  -22.0600   18.3430 C.ar  168  TYR168     -0.0201
     69  CD1       -2.7720  -21.1830   18.3970 C.ar  168  TYR168     -0.0009
     70  CD2       -4.5830  -22.1140   17.1500 C.ar  168  TYR168     -0.0009
     71  CE1       -2.4280  -20.4090   17.2910 C.ar  168  TYR168      0.0417
     72  CE2       -4.2370  -21.3570   16.0550 C.ar  168  TYR168      0.0417
     73  CZ        -3.1620  -20.5080   16.1340 C.ar  168  TYR168      0.1957
     74  OH        -2.8220  -19.7460   15.0460 O.3   168  TYR168     -0.2866
     75  N         -3.8720  -24.7640   25.1640 N.3   170  GLY170     -0.1225
     76  CA        -3.5070  -23.9380   26.3050 C.3   170  GLY170      0.1811
     77  C         -3.9850  -22.5010   26.1750 C.2   170  GLY170      0.2280
     78  O         -4.4570  -22.0600   25.1270 O.2   170  GLY170     -0.2866
     79  N          1.3310  -21.9820   25.9190 N.3   212  VAL212     -0.1245
     80  CA         0.4900  -22.2210   24.7550 C.3   212  VAL212      0.1561
     81  C          1.3690  -22.8300   23.6690 C.2   212  VAL212      0.2260
     82  O          2.4880  -22.3740   23.4400 O.2   212  VAL212     -0.2867
     83  CB        -0.1510  -20.8830   24.2400 C.3   212  VAL212      0.0252
     84  CG1       -0.7480  -21.0280   22.8160 C.3   212  VAL212      0.0019
     85  CG2       -1.1860  -20.3700   25.2110 C.3   212  VAL212      0.0019
     86  N         -0.6630   -5.3530   20.4910 N.3   280  TYR280     -0.1241
     87  CA        -2.1050   -5.1820   20.6130 C.3   280  TYR280      0.1605
     88  C         -2.5090   -3.7020   20.5840 C.2   280  TYR280      0.2264
     89  O         -2.1890   -2.9180   21.4900 O.2   280  TYR280     -0.2867
     90  CB        -2.6250   -5.9220   21.8620 C.3   280  TYR280      0.0534
     91  CG        -2.7410   -7.4000   21.6070 C.ar  280  TYR280     -0.0201
     92  CD1       -3.9770   -7.9900   21.3510 C.ar  280  TYR280     -0.0009
     93  CD2       -1.6160   -8.1970   21.5620 C.ar  280  TYR280     -0.0009
     94  CE1       -4.0690   -9.3420   21.0580 C.ar  280  TYR280      0.0417
     95  CE2       -1.6990   -9.5390   21.2620 C.ar  280  TYR280      0.0417
     96  CZ        -2.9170  -10.1070   21.0210 C.ar  280  TYR280      0.1957
     97  OH        -2.9580  -11.4550   20.7280 O.3   280  TYR280     -0.2866
@<TRIPOS>BOND
     1    25    26    1
     2     7     8    1
     3    38    37   ar
     4    38    36   ar
     5    37    35   ar
     6     8     9    1
     7     8    11    1
     8    36    34   ar
     9    12    13    1
    10    12    11    1
    11    35    32   ar
    12    26    27    1
    13    26    29    1
    14    34    32   ar
    15    34    33   ar
    16    13    14    1
    17     9    10    2
    18    32    30   ar
    19    33    31   ar
    20    28    27    2
    21    30    31   ar
    22    30    29    1
    23     4     3    2
    24    74    73    1
    25    17    15    1
    26    14    15    2
    27     3     2    1
    28    15    16    1
    29    72    73   ar
    30    72    70   ar
    31    73    71   ar
    32    18    19    1
    33     1     2    1
    34    24    22    1
    35     2     5    1
    36    70    68   ar
    37    19    22    1
    38    19    20    1
    39    71    69   ar
    40     6     5    1
    41    62    60    1
    42    58    59    2
    43    58    57    1
    44    48    49   ar
    45    48    46   ar
    46    22    23    1
    47    20    21    2
    48    39    40    1
    49    49    47   ar
    50    63    64    1
    51    68    69   ar
    52    68    67    1
    53    46    44   ar
    54    60    57    1
    55    60    61    1
    56    57    56    1
    57    47    45   ar
    58    44    45   ar
    59    44    43    1
    60    64    67    1
    61    64    65    1
    62    40    43    1
    63    40    41    1
    64    56    52   am
    65    41    42    2
    66    86    87    1
    67    88    87    1
    68    88    89    2
    69    87    90    1
    70    65    66    2
    71    97    96    1
    72    96    94   ar
    73    96    95   ar
    74    94    92   ar
    75    95    93   ar
    76    92    91   ar
    77    52    53    2
    78    52    51    1
    79    93    91   ar
    80    91    90    1
    81    50    51    1
    82    51    54    1
    83    84    83    1
    84    55    54    1
    85    82    81    2
    86    81    80    1
    87    83    80    1
    88    83    85    1
    89    80    79    1
    90    78    77    2
    91    75    76    1
    92    77    76    1
