@<TRIPOS>MOLECULE
tmp/4ee7B01.pdb
 134 128 0 0 0
SMALL
GASTEIGER

@<TRIPOS>ATOM
      1  N         13.7530   -6.9200   48.9950 N.3    40  VAL40      -0.1245
      2  CA        12.3720   -6.7690   48.5590 C.3    40  VAL40       0.1561
      3  C         11.5280   -6.7140   49.8260 C.2    40  VAL40       0.2260
      4  O         11.6470   -7.5770   50.6780 O.2    40  VAL40      -0.2867
      5  CB        11.9150   -7.9480   47.6850 C.3    40  VAL40       0.0252
      6  CG1       10.4120   -7.8600   47.3910 C.3    40  VAL40       0.0019
      7  CG2       12.7480   -8.0100   46.3920 C.3    40  VAL40       0.0019
      8  N          7.6940   -6.4200   51.5140 N.3    42  SER42      -0.1217
      9  CA         6.2680   -6.6230   51.2830 C.3    42  SER42       0.1889
     10  C          5.5070   -6.8110   52.5970 C.2    42  SER42       0.2288
     11  O          6.0890   -7.1630   53.6280 O.2    42  SER42      -0.2866
     12  CB         6.0420   -7.7910   50.3300 C.3    42  SER42       0.2089
     13  OG         6.5220   -9.0560   50.8120 O.3    42  SER42      -0.2183
     14  N          7.8090   -8.5890   55.4420 N.3    57  ARG57      -0.1245
     15  CA         8.8140   -9.5200   54.9640 C.3    57  ARG57       0.1563
     16  C          9.8930   -8.7650   54.2300 C.2    57  ARG57       0.2260
     17  O          9.6030   -7.8780   53.4240 O.2    57  ARG57      -0.2867
     18  CB         8.1990  -10.5690   54.0300 C.3    57  ARG57       0.0307
     19  CG         6.9250  -11.2400   54.5550 C.3    57  ARG57       0.0489
     20  CD         5.6710  -10.5890   54.0820 C.3    57  ARG57       0.2205
     21  NE         5.5640  -10.7220   52.6370 N.pl3  57  ARG57      -0.0865
     22  CZ         5.1180  -11.7820   51.9750 C.cat  57  ARG57       0.5346
     23  NH1        4.6460  -12.8620   52.6020 N.pl3  57  ARG57       0.1354
     24  NH2        5.1150  -11.7460   50.6480 N.pl3  57  ARG57       0.1354
     25  N         12.8380   -9.8980   51.7680 N.3    59  THR59      -0.1218
     26  CA        13.3270  -11.0640   51.0010 C.3    59  THR59       0.1862
     27  C         14.4220  -10.6530   50.0210 C.2    59  THR59       0.2287
     28  O         14.7810   -9.4840   49.9450 O.2    59  THR59      -0.2866
     29  CB        12.1780  -11.7690   50.2910 C.3    59  THR59       0.1770
     30  OG1       11.5020  -10.8430   49.4300 O.3    59  THR59      -0.2211
     31  CG2       11.2070  -12.3440   51.3220 C.3    59  THR59       0.0375
     32  N         12.9440  -17.3450   55.5360 N.3   112  TRP112     -0.1241
     33  CA        12.7760  -18.0710   54.2850 C.3   112  TRP112      0.1605
     34  C         14.1330  -18.3350   53.6930 C.2   112  TRP112      0.2264
     35  O         15.0760  -17.5250   53.8530 O.2   112  TRP112     -0.2867
     36  CB        11.9640  -17.3030   53.2560 C.3   112  TRP112      0.0550
     37  CG        10.5160  -17.3210   53.5300 C.ar  112  TRP112      0.0003
     38  CD1        9.6280  -18.3580   53.3670 C.ar  112  TRP112      0.0946
     39  CD2        9.7910  -16.2490   54.0600 C.ar  112  TRP112      0.0152
     40  NE1        8.3720  -17.9700   53.7480 N.ar  112  TRP112     -0.2442
     41  CE2        8.4500  -16.6700   54.1860 C.ar  112  TRP112      0.0810
     42  CE3       10.1440  -14.9460   54.4390 C.ar  112  TRP112      0.0012
     43  CZ2        7.4590  -15.8340   54.6660 C.ar  112  TRP112      0.0191
     44  CZ3        9.1720  -14.1300   54.9110 C.ar  112  TRP112      0.0001
     45  CH2        7.8360  -14.5750   55.0210 C.ar  112  TRP112      0.0015
     46  N         15.6190  -19.5430   49.9260 N.3   114  PHE114     -0.1241
     47  CA        15.2150  -19.5580   48.5190 C.3   114  PHE114      0.1605
     48  C         16.2860  -20.2010   47.6500 C.2   114  PHE114      0.2264
     49  O         17.3990  -19.6740   47.5380 O.2   114  PHE114     -0.2867
     50  CB        14.9980  -18.1290   48.0000 C.3   114  PHE114      0.0534
     51  CG        13.9440  -17.3530   48.7290 C.ar  114  PHE114     -0.0203
     52  CD1       12.6060  -17.5670   48.4640 C.ar  114  PHE114     -0.0042
     53  CD2       14.2870  -16.3640   49.6390 C.ar  114  PHE114     -0.0042
     54  CE1       11.6300  -16.8310   49.1220 C.ar  114  PHE114     -0.0003
     55  CE2       13.2960  -15.6360   50.3170 C.ar  114  PHE114     -0.0003
     56  CZ        11.9840  -15.8880   50.0630 C.ar  114  PHE114     -0.0000
     57  N         10.6460  -24.8940   46.0680 N.3   152  SER152     -0.1202
     58  CA        11.0390  -23.5670   45.6060 C.3   152  SER152      0.2020
     59  C         11.2650  -22.5560   46.7250 C.2   152  SER152      0.2619
     60  O         11.7170  -21.4410   46.4730 O.2   152  SER152     -0.2717
     61  CB         9.9990  -23.0540   44.6150 C.3   152  SER152      0.2103
     62  OG         8.7530  -22.9270   45.2200 O.3   152  SER152     -0.2182
     63  N         10.9260  -22.9430   47.9550 N.am  153  THR153     -0.1952
     64  CA        11.2120  -22.1580   49.1400 C.3   153  THR153      0.1897
     65  C         10.9950  -23.0490   50.3660 C.2   153  THR153      0.2313
     66  O         10.1220  -23.9170   50.3650 O.2   153  THR153     -0.2863
     67  CB        10.2870  -20.9050   49.2690 C.3   153  THR153      0.1794
     68  OG1       10.3890  -20.0730   48.1160 O.3   153  THR153     -0.2208
     69  CG2       10.6760  -20.0770   50.4750 C.3   153  THR153      0.0378
     70  N          7.2890  -24.7050   49.7710 N.3   166  TYR166     -0.1241
     71  CA         6.6430  -24.1460   48.6060 C.3   166  TYR166      0.1605
     72  C          7.0750  -24.8970   47.3910 C.2   166  TYR166      0.2264
     73  O          8.2080  -25.3530   47.3230 O.2   166  TYR166     -0.2867
     74  CB         6.9770  -22.6610   48.4250 C.3   166  TYR166      0.0534
     75  CG         6.5650  -21.7990   49.5900 C.ar  166  TYR166     -0.0201
     76  CD1        5.5110  -20.8880   49.4930 C.ar  166  TYR166     -0.0009
     77  CD2        7.2560  -21.8670   50.7910 C.ar  166  TYR166     -0.0009
     78  CE1        5.1430  -20.0940   50.5900 C.ar  166  TYR166      0.0417
     79  CE2        6.8930  -21.0850   51.8800 C.ar  166  TYR166      0.0417
     80  CZ         5.8560  -20.2030   51.7740 C.ar  166  TYR166      0.1957
     81  OH         5.5370  -19.4590   52.8970 O.3   166  TYR166     -0.2866
     82  N          6.8350  -24.7340   43.0190 N.3   168  GLY168     -0.1210
     83  CA         6.5570  -23.9930   41.7940 C.3   168  GLY168      0.1956
     84  C          6.8870  -22.5140   41.9230 C.2   168  GLY168      0.2612
     85  O          7.2570  -22.0280   42.9900 O.2   168  GLY168     -0.2717
     86  N          6.7330  -21.7890   40.8220 N.am  169  GLY169     -0.1942
     87  CA         6.9710  -20.3470   40.8360 C.3   169  GLY169      0.2014
     88  C          8.1150  -20.0130   39.9060 C.2   169  GLY169      0.2639
     89  O          9.0350  -20.8120   39.7270 O.2   169  GLY169     -0.2714
     90  N          8.0550  -18.8320   39.2960 N.am  170  GLY170     -0.1954
     91  CA         9.1270  -18.3880   38.3980 C.3   170  GLY170      0.1869
     92  C          9.1800  -19.1910   37.1070 C.2   170  GLY170      0.2309
     93  O          8.1640  -19.7100   36.6420 O.2   170  GLY170     -0.2863
     94  N          1.4790  -21.9590   42.1390 N.3   210  VAL210     -0.1245
     95  CA         2.3100  -22.1140   43.3230 C.3   210  VAL210      0.1561
     96  C          1.4250  -22.6670   44.4250 C.2   210  VAL210      0.2260
     97  O          0.2690  -22.2200   44.6050 O.2   210  VAL210     -0.2867
     98  CB         2.9680  -20.7660   43.7840 C.3   210  VAL210      0.0252
     99  CG1        3.6920  -20.9570   45.1070 C.3   210  VAL210      0.0019
    100  CG2        3.9270  -20.2130   42.7140 C.3   210  VAL210      0.0019
    101  N         -0.4080  -15.0050   41.5820 N.3   230  MET230     -0.1245
    102  CA         0.3120  -13.7500   41.4320 C.3   230  MET230      0.1570
    103  C         -0.3680  -12.9280   40.3480 C.2   230  MET230      0.2261
    104  O         -0.6350  -13.4400   39.2590 O.2   230  MET230     -0.2867
    105  CB         1.7700  -14.0110   41.0410 C.3   230  MET230      0.0387
    106  CG         2.5700  -12.7330   40.9500 C.3   230  MET230      0.0595
    107  SD         4.3250  -12.9740   40.6560 S.3   230  MET230     -0.1393
    108  CE         4.3670  -13.6410   39.0160 C.3   230  MET230      0.0692
    109  N          3.4850   -5.2090   47.7230 N.3   278  TYR278     -0.1241
    110  CA         4.9300   -4.9720   47.6170 C.3   278  TYR278      0.1605
    111  C          5.2960   -3.5180   47.6470 C.2   278  TYR278      0.2264
    112  O          4.9990   -2.7590   46.7140 O.2   278  TYR278     -0.2867
    113  CB         5.4950   -5.6670   46.3660 C.3   278  TYR278      0.0534
    114  CG         5.5820   -7.1620   46.5830 C.ar  278  TYR278     -0.0201
    115  CD1        6.8050   -7.7720   46.8170 C.ar  278  TYR278     -0.0009
    116  CD2        4.4330   -7.9480   46.6550 C.ar  278  TYR278     -0.0009
    117  CE1        6.8950   -9.1250   47.0750 C.ar  278  TYR278      0.0417
    118  CE2        4.5150   -9.3010   46.9000 C.ar  278  TYR278      0.0417
    119  CZ         5.7490   -9.8860   47.1120 C.ar  278  TYR278      0.1957
    120  OH         5.8430  -11.2370   47.3680 O.3   278  TYR278     -0.2866
    121  N         10.6770   -3.0650   45.6690 N.3   281  TRP281     -0.1241
    122  CA        10.9610   -4.1400   44.7190 C.3   281  TRP281      0.1605
    123  C         12.3470   -3.9240   44.0760 C.2   281  TRP281      0.2264
    124  O         12.8870   -2.8120   44.1000 O.2   281  TRP281     -0.2867
    125  CB         9.8280   -4.1830   43.6760 C.3   281  TRP281      0.0550
    126  CG        10.0770   -5.0910   42.5450 C.ar  281  TRP281      0.0003
    127  CD1       10.3190   -4.7420   41.2490 C.ar  281  TRP281      0.0946
    128  CD2       10.1300   -6.5140   42.6000 C.ar  281  TRP281      0.0152
    129  NE1       10.5270   -5.8670   40.4920 N.ar  281  TRP281     -0.2442
    130  CE2       10.4170   -6.9710   41.2970 C.ar  281  TRP281      0.0810
    131  CE3        9.9670   -7.4510   43.6240 C.ar  281  TRP281      0.0012
    132  CZ2       10.5270   -8.3330   40.9870 C.ar  281  TRP281      0.0191
    133  CZ3       10.0820   -8.8050   43.3160 C.ar  281  TRP281      0.0001
    134  CH2       10.3560   -9.2280   42.0060 C.ar  281  TRP281      0.0015
@<TRIPOS>BOND
     1    93    92    2
     2    92    91    1
     3    91    90    1
     4   108   107    1
     5   104   103    2
     6    90    88   am
     7    89    88    2
     8    88    87    1
     9   103   102    1
    10   129   127   ar
    11   129   130   ar
    12   107   106    1
    13    86    87    1
    14    86    84   am
    15   106   105    1
    16   132   130   ar
    17   132   134   ar
    18   105   102    1
    19   127   126   ar
    20   130   128   ar
    21   102   101    1
    22    83    84    1
    23    83    82    1
    24    84    85    2
    25   134   133   ar
    26    94    95    1
    27   126   128   ar
    28   126   125    1
    29   128   131   ar
    30   100    98    1
    31   133   131   ar
    32    95    98    1
    33    95    96    1
    34   125   122    1
    35    98    99    1
    36   123   124    2
    37   123   122    1
    38    96    97    2
    39    61    62    1
    40    61    58    1
    41   122   121    1
    42    58    57    1
    43    58    59    1
    44   113   114    1
    45   113   110    1
    46     7     5    1
    47    60    59    2
    48   114   116   ar
    49   114   115   ar
    50   116   118   ar
    51   112   111    2
    52    59    63   am
    53   115   117   ar
    54   118   119   ar
    55   117   119   ar
    56   119   120    1
    57    73    72    2
    58     6     5    1
    59    72    71    1
    60    49    48    2
    61   110   111    1
    62   110   109    1
    63    48    47    1
    64     5     2    1
    65    63    64    1
    66    50    47    1
    67    50    51    1
    68    68    67    1
    69    74    71    1
    70    74    75    1
    71    52    51   ar
    72    52    54   ar
    73    47    46    1
    74     2     1    1
    75     2     3    1
    76    71    70    1
    77    51    53   ar
    78    54    56   ar
    79    64    67    1
    80    64    65    1
    81    67    69    1
    82    30    29    1
    83    76    75   ar
    84    76    78   ar
    85    75    77   ar
    86    53    55   ar
    87     3     4    2
    88    28    27    2
    89    27    26    1
    90    56    55   ar
    91    29    26    1
    92    29    31    1
    93    12    13    1
    94    12     9    1
    95    66    65    2
    96    78    80   ar
    97    24    22    1
    98    77    79   ar
    99    26    25    1
   100     9     8    1
   101     9    10    1
   102    80    79   ar
   103    80    81    1
   104    22    23    1
   105    22    21    2
   106    10    11    2
   107    21    20    1
   108    36    37    1
   109    36    33    1
   110    38    37   ar
   111    38    40   ar
   112    17    16    2
   113    37    39   ar
   114    34    35    2
   115    34    33    1
   116    40    41   ar
   117    18    19    1
   118    18    15    1
   119    39    41   ar
   120    39    42   ar
   121    20    19    1
   122    41    43   ar
   123    16    15    1
   124    33    32    1
   125    42    44   ar
   126    43    45   ar
   127    44    45   ar
   128    15    14    1
