@<TRIPOS>MOLECULE
tmp/4ee7A00.pdb
 115 107 0 0 0
SMALL
GASTEIGER

@<TRIPOS>ATOM
      1  N          0.8150   -8.6670   13.8340 N.3    46  ARG46      -0.1245
      2  CA         1.8210   -9.7010   14.0430 C.3    46  ARG46       0.1563
      3  C          2.9120   -9.6740   12.9850 C.2    46  ARG46       0.2260
      4  O          2.6380   -9.8380   11.7810 O.2    46  ARG46      -0.2867
      5  CB         1.1670  -11.0790   14.0530 C.3    46  ARG46       0.0307
      6  CG         2.0910  -12.2170   14.4970 C.3    46  ARG46       0.0489
      7  CD         1.7960  -13.5390   13.7600 C.3    46  ARG46       0.2205
      8  NE         2.1860  -13.4610   12.3540 N.pl3  46  ARG46      -0.0865
      9  CZ         2.2400  -14.4780   11.4900 C.cat  46  ARG46       0.5346
     10  NH1        2.6110  -14.2440   10.2320 N.pl3  46  ARG46       0.1354
     11  NH2        1.9330  -15.7110   11.8450 N.pl3  46  ARG46       0.1354
     12  N         -4.9580   -8.8390   12.7510 N.3    59  ARG59      -0.1245
     13  CA        -5.9360   -9.7960   13.2550 C.3    59  ARG59       0.1563
     14  C         -7.0780   -9.0730   13.9890 C.2    59  ARG59       0.2260
     15  O         -6.8280   -8.1900   14.8230 O.2    59  ARG59      -0.2867
     16  CB        -5.2510  -10.7970   14.1870 C.3    59  ARG59       0.0307
     17  CG        -4.0470  -11.4740   13.5880 C.3    59  ARG59       0.0489
     18  CD        -2.7700  -10.8210   13.9860 C.3    59  ARG59       0.2205
     19  NE        -2.6140  -10.9570   15.4250 N.pl3  59  ARG59      -0.0865
     20  CZ        -2.1830  -12.0460   16.0490 C.cat  59  ARG59       0.5346
     21  NH1       -2.1150  -12.0360   17.3710 N.pl3  59  ARG59       0.1354
     22  NH2       -1.8040  -13.1360   15.3720 N.pl3  59  ARG59       0.1354
     23  N         -7.7930  -12.9090    9.9420 N.3   103  ASP103     -0.1239
     24  CA        -6.4250  -12.4470    9.7130 C.3   103  ASP103      0.1674
     25  C         -6.2900  -12.0440    8.2650 C.2   103  ASP103      0.2266
     26  O         -6.8320  -12.7050    7.3820 O.2   103  ASP103     -0.2867
     27  CB        -5.4430  -13.5700    9.9800 C.3   103  ASP103      0.1410
     28  CG        -4.0080  -13.1110   10.0260 C.2   103  ASP103      0.3668
     29  OD1       -3.1140  -13.9440    9.7820 O.co2 103  ASP103     -0.2456
     30  OD2       -3.7680  -11.9260   10.2960 O.co2 103  ASP103     -0.2456
     31  N         -6.8950  -15.8360    6.7660 N.3   112  LYS112     -0.1245
     32  CA        -7.2640  -16.8140    7.7970 C.3   112  LYS112      0.1561
     33  C         -8.4920  -16.4560    8.6030 C.2   112  LYS112      0.2260
     34  O         -8.8550  -15.2810    8.7540 O.2   112  LYS112     -0.2867
     35  CB        -6.1530  -16.9760    8.8440 C.3   112  LYS112      0.0271
     36  CG        -4.7630  -17.0330    8.3260 C.3   112  LYS112      0.0035
     37  CD        -3.7510  -17.3470    9.4370 C.3   112  LYS112      0.0206
     38  CE        -2.3470  -16.9380    8.9760 C.3   112  LYS112      0.1093
     39  NZ        -1.3340  -16.8800   10.0690 N.3   112  LYS112     -0.1314
     40  N        -10.1000  -17.6630   12.6410 N.3   114  TRP114     -0.1241
     41  CA        -9.9010  -18.3890   13.8770 C.3   114  TRP114      0.1605
     42  C        -11.2430  -18.6480   14.5070 C.2   114  TRP114      0.2264
     43  O        -12.1430  -17.8190   14.4080 O.2   114  TRP114     -0.2867
     44  CB        -9.0380  -17.6180   14.8660 C.3   114  TRP114      0.0550
     45  CG        -7.5780  -17.6300   14.5690 C.ar  114  TRP114      0.0003
     46  CD1       -6.6960  -18.6520   14.7460 C.ar  114  TRP114      0.0946
     47  CD2       -6.8380  -16.5400   14.0680 C.ar  114  TRP114      0.0152
     48  NE1       -5.4300  -18.2630   14.3700 N.ar  114  TRP114     -0.2442
     49  CE2       -5.4950  -16.9600   13.9510 C.ar  114  TRP114      0.0810
     50  CE3       -7.1820  -15.2350   13.6950 C.ar  114  TRP114      0.0012
     51  CZ2       -4.4950  -16.1240   13.5010 C.ar  114  TRP114      0.0191
     52  CZ3       -6.1820  -14.4030   13.2440 C.ar  114  TRP114      0.0001
     53  CH2       -4.8570  -14.8620   13.1310 C.ar  114  TRP114      0.0015
     54  N         -4.2180  -24.6480   11.8780 N.3   166  ASN166     -0.1240
     55  CA        -3.5070  -24.6310   13.1490 C.3   166  ASN166      0.1653
     56  C         -4.4500  -25.0880   14.2510 C.2   166  ASN166      0.2266
     57  O         -5.6150  -24.6630   14.3290 O.2   166  ASN166     -0.2867
     58  CB        -3.0220  -23.2250   13.5070 C.3   166  ASN166      0.1155
     59  CG        -1.8030  -22.7850   12.7210 C.2   166  ASN166      0.2627
     60  OD1       -1.2500  -23.5350   11.9190 O.2   166  ASN166     -0.2716
     61  ND2       -1.3690  -21.5400   12.9640 N.am  166  ASN166     -0.0877
     62  N         -4.4730  -24.9840   18.3180 N.3   168  TYR168     -0.1241
     63  CA        -3.8580  -24.3750   19.4820 C.3   168  TYR168      0.1605
     64  C         -4.2930  -25.0840   20.7270 C.2   168  TYR168      0.2264
     65  O         -5.4380  -25.5700   20.7940 O.2   168  TYR168     -0.2867
     66  CB        -4.2350  -22.8910   19.5600 C.3   168  TYR168      0.0534
     67  CG        -3.8460  -22.0600   18.3430 C.ar  168  TYR168     -0.0201
     68  CD1       -2.7720  -21.1830   18.3970 C.ar  168  TYR168     -0.0009
     69  CD2       -4.5830  -22.1140   17.1500 C.ar  168  TYR168     -0.0009
     70  CE1       -2.4280  -20.4090   17.2910 C.ar  168  TYR168      0.0417
     71  CE2       -4.2370  -21.3570   16.0550 C.ar  168  TYR168      0.0417
     72  CZ        -3.1620  -20.5080   16.1340 C.ar  168  TYR168      0.1957
     73  OH        -2.8220  -19.7460   15.0460 O.3   168  TYR168     -0.2866
     74  N          1.0580  -24.5380   19.4590 N.3   214  TYR214     -0.1241
     75  CA         0.2050  -24.8390   18.3190 C.3   214  TYR214      0.1605
     76  C          0.8890  -25.6490   17.2310 C.2   214  TYR214      0.2264
     77  O          2.1020  -25.5340   17.0070 O.2   214  TYR214     -0.2867
     78  CB        -0.5270  -23.6130   17.7720 C.3   214  TYR214      0.0534
     79  CG         0.2870  -22.4400   17.3230 C.ar  214  TYR214     -0.0201
     80  CD1        0.5120  -22.2240   15.9720 C.ar  214  TYR214     -0.0009
     81  CD2        0.7250  -21.4820   18.2250 C.ar  214  TYR214     -0.0009
     82  CE1        1.1860  -21.1210   15.5370 C.ar  214  TYR214      0.0417
     83  CE2        1.4070  -20.3760   17.7910 C.ar  214  TYR214      0.0417
     84  CZ         1.6360  -20.2050   16.4420 C.ar  214  TYR214      0.1957
     85  OH         2.3160  -19.0920   15.9780 O.3   214  TYR214     -0.2866
     86  N          0.6650  -27.0270   13.2640 N.3   216  THR216     -0.1218
     87  CA         0.1810  -26.6990   11.9240 C.3   216  THR216      0.1862
     88  C          0.0900  -27.9760   11.1000 C.2   216  THR216      0.2287
     89  O          1.0590  -28.7250   11.0300 O.2   216  THR216     -0.2866
     90  CB         1.1230  -25.7390   11.2370 C.3   216  THR216      0.1770
     91  OG1        1.2820  -24.5630   12.0560 O.3   216  THR216     -0.2211
     92  CG2        0.5760  -25.3500    9.8660 C.3   216  THR216      0.0375
     93  N          4.6170  -27.9280   11.2190 N.3   226  ARG226     -0.1245
     94  CA         5.4640  -27.2420   12.1790 C.3   226  ARG226      0.1563
     95  C          4.8020  -27.2090   13.5510 C.2   226  ARG226      0.2260
     96  O          3.6370  -27.5400   13.7040 O.2   226  ARG226     -0.2867
     97  CB         5.8060  -25.8430   11.7140 C.3   226  ARG226      0.0307
     98  CG         4.6990  -25.0140   11.4130 C.3   226  ARG226      0.0489
     99  CD         5.1670  -23.6730   10.7890 C.3   226  ARG226      0.2205
    100  NE         4.0050  -22.8100   10.6830 N.pl3 226  ARG226     -0.0865
    101  CZ         3.2020  -22.6980    9.6210 C.cat 226  ARG226      0.5346
    102  NH1        3.4170  -23.3840    8.4810 N.pl3 226  ARG226      0.1354
    103  NH2        2.1620  -21.8790    9.7020 N.pl3 226  ARG226      0.1354
    104  N          4.8150  -24.7810   17.1750 N.3   228  THR228     -0.1218
    105  CA         5.1530  -23.4620   17.7140 C.3   228  THR228      0.1862
    106  C          4.8640  -23.3700   19.2230 C.2   228  THR228      0.2287
    107  O          3.8120  -23.8100   19.6910 O.2   228  THR228     -0.2866
    108  CB         4.3740  -22.3560   16.9480 C.3   228  THR228      0.1770
    109  OG1        4.5860  -22.5160   15.5280 O.3   228  THR228     -0.2211
    110  CG2        4.8020  -20.9570   17.3790 C.3   228  THR228      0.0375
    111  N          8.3830  -20.7390   16.0990 N.3   268  ALA268     -0.1245
    112  CA         8.0010  -21.8980   15.3240 C.3   268  ALA268      0.1562
    113  C          9.2020  -22.7320   14.9430 C.2   268  ALA268      0.2260
    114  O         10.2780  -22.2040   14.6710 O.2   268  ALA268     -0.2867
    115  CB         7.2360  -21.4630   14.0550 C.3   268  ALA268      0.0290
@<TRIPOS>BOND
     1    31    32    1
     2    26    25    2
     3    32    33    1
     4    32    35    1
     5    25    24    1
     6    36    35    1
     7    36    37    1
     8   102   101    1
     9    33    34    2
    10    38    37    1
    11    38    39    1
    12   101   103    1
    13   101   100    2
    14    24    23    1
    15    24    27    1
    16    29    28   ar
    17    92    90    1
    18    27    28    1
    19    28    30   ar
    20    10     9    1
    21   100    99    1
    22    99    98    1
    23    89    88    2
    24    88    87    1
    25    93    94    1
    26    90    87    1
    27    90    91    1
    28    98    97    1
    29     9    11    1
    30     9     8    2
    31    97    94    1
    32     4     3    2
    33    54    55    1
    34    60    59    2
    35    87    86    1
    36    94    95    1
    37     8     7    1
    38    40    41    1
    39    59    61   am
    40    59    58    1
    41    12    13    1
    42     3     2    1
    43    53    52   ar
    44    53    51   ar
    45    55    58    1
    46    55    56    1
    47    52    50   ar
    48    13    14    1
    49    13    16    1
    50    51    49   ar
    51    95    96    2
    52    17    18    1
    53    17    16    1
    54    50    47   ar
    55     7     6    1
    56     1     2    1
    57    41    42    1
    58    41    44    1
    59    49    47   ar
    60    49    48   ar
    61    18    19    1
    62    14    15    2
    63     2     5    1
    64     5     6    1
    65   115   112    1
    66    47    45   ar
    67    56    57    2
    68    48    46   ar
    69    43    42    2
    70    45    46   ar
    71    45    44    1
    72   114   113    2
    73   113   112    1
    74    73    72    1
    75   112   111    1
    76    22    20    1
    77    19    20    2
    78   109   108    1
    79    82    80   ar
    80    82    84   ar
    81    80    79   ar
    82    85    84    1
    83    20    21    1
    84    71    72   ar
    85    71    69   ar
    86    72    70   ar
    87    84    83   ar
    88   108   110    1
    89   108   105    1
    90    77    76    2
    91    69    67   ar
    92   104   105    1
    93    76    75    1
    94    70    68   ar
    95    79    78    1
    96    79    81   ar
    97   105   106    1
    98    78    75    1
    99    83    81   ar
   100    62    63    1
   101    75    74    1
   102    67    68   ar
   103    67    66    1
   104   106   107    2
   105    63    66    1
   106    63    64    1
   107    64    65    2
