@<TRIPOS>MOLECULE
tmp/4ee9A00.pdb
 118 116 0 0 0
SMALL
GASTEIGER

@<TRIPOS>ATOM
      1  N         35.6410   37.6770   32.8010 N.3    90  HIS90      -0.1241
      2  CA        35.6550   38.8500   31.9350 C.3    90  HIS90       0.1621
      3  C         35.6790   40.1280   32.7570 C.2    90  HIS90       0.2264
      4  O         34.7330   40.9200   32.6990 O.2    90  HIS90      -0.2867
      5  CB        34.4240   38.8210   31.0260 C.3    90  HIS90       0.0745
      6  CG        34.5830   39.5930   29.7530 C.ar   90  HIS90       0.0817
      7  ND1       35.1830   39.0650   28.6330 N.ar   90  HIS90      -0.2268
      8  CD2       34.1940   40.8480   29.4160 C.ar   90  HIS90       0.1154
      9  CE1       35.1600   39.9600   27.6590 C.ar   90  HIS90       0.1986
     10  NE2       34.5650   41.0490   28.1110 N.ar   90  HIS90      -0.2212
     11  N         38.7250   42.4980   33.7030 N.3    92  TYR92      -0.1241
     12  CA        39.6380   43.6530   33.6050 C.3    92  TYR92       0.1605
     13  C         40.5100   43.7660   34.8600 C.2    92  TYR92       0.2264
     14  O         40.9390   44.8590   35.2480 O.2    92  TYR92      -0.2867
     15  CB        38.8600   44.9520   33.3070 C.3    92  TYR92       0.0534
     16  CG        37.9070   44.8090   32.1280 C.ar   92  TYR92      -0.0201
     17  CD1       38.3480   44.9960   30.8160 C.ar   92  TYR92      -0.0009
     18  CD2       36.5700   44.4420   32.3210 C.ar   92  TYR92      -0.0009
     19  CE1       37.4830   44.8330   29.7420 C.ar   92  TYR92       0.0417
     20  CE2       35.7090   44.2770   31.2530 C.ar   92  TYR92       0.0417
     21  CZ        36.1650   44.4730   29.9700 C.ar   92  TYR92       0.1957
     22  OH        35.3160   44.3130   28.8900 O.3    92  TYR92      -0.2866
     23  N         40.0590   38.6630   31.5290 N.3   134  ASN134     -0.1225
     24  CA        39.9670   39.4850   30.3390 C.3   134  ASN134      0.1785
     25  C         40.5450   40.8860   30.5460 C.2   134  ASN134      0.2597
     26  O         40.1800   41.5790   31.4810 O.2   134  ASN134     -0.2718
     27  CB        38.5000   39.6340   29.9170 C.3   134  ASN134      0.1169
     28  CG        38.3390   40.4270   28.6300 C.2   134  ASN134      0.2627
     29  OD1       38.7190   39.9810   27.5620 O.2   134  ASN134     -0.2716
     30  ND2       37.7580   41.6090   28.7380 N.am  134  ASN134     -0.0877
     31  N         41.4390   41.2660   29.6420 N.am  135  GLU135     -0.1979
     32  CA        41.8970   42.6540   29.4890 C.3   135  GLU135      0.1602
     33  C         42.2290   43.4420   30.7680 C.2   135  GLU135      0.2287
     34  O         41.5980   44.4620   31.0470 O.2   135  GLU135     -0.2864
     35  CB        40.9060   43.4390   28.6140 C.3   135  GLU135      0.0415
     36  CG        40.8600   42.9050   27.1800 C.3   135  GLU135      0.1163
     37  CD        40.0390   43.7560   26.2270 C.2   135  GLU135      0.3649
     38  OE1       39.4370   44.7730   26.6380 O.co2 135  GLU135     -0.2457
     39  OE2       40.0130   43.4150   25.0340 O.co2 135  GLU135     -0.2457
     40  N         44.9760   46.0610   28.0560 N.3   171  TRP171     -0.1241
     41  CA        43.8610   45.4210   27.3500 C.3   171  TRP171      0.1605
     42  C         44.3480   44.2560   26.4950 C.2   171  TRP171      0.2264
     43  O         43.7800   43.9500   25.4670 O.2   171  TRP171     -0.2867
     44  CB        43.0870   46.4370   26.4910 C.3   171  TRP171      0.0550
     45  CG        42.4080   47.5400   27.2680 C.ar  171  TRP171      0.0003
     46  CD1       41.1840   47.4920   27.8610 C.ar  171  TRP171      0.0946
     47  CD2       42.9110   48.8570   27.4950 C.ar  171  TRP171      0.0152
     48  NE1       40.9040   48.6900   28.4620 N.ar  171  TRP171     -0.2442
     49  CE2       41.9480   49.5470   28.2460 C.ar  171  TRP171      0.0810
     50  CE3       44.0870   49.5160   27.1440 C.ar  171  TRP171      0.0012
     51  CZ2       42.1240   50.8600   28.6530 C.ar  171  TRP171      0.0191
     52  CZ3       44.2570   50.8270   27.5490 C.ar  171  TRP171      0.0001
     53  CH2       43.2810   51.4800   28.2950 C.ar  171  TRP171      0.0015
     54  N         42.1890   44.6270   17.1760 N.3   201  TYR201     -0.1241
     55  CA        41.1470   45.1630   16.3170 C.3   201  TYR201      0.1605
     56  C         41.8670   46.0460   15.3060 C.2   201  TYR201      0.2264
     57  O         42.9670   46.4970   15.5590 O.2   201  TYR201     -0.2867
     58  CB        40.0900   45.9270   17.1160 C.3   201  TYR201      0.0534
     59  CG        39.2540   45.0200   18.0040 C.ar  201  TYR201     -0.0201
     60  CD1       38.1020   44.4190   17.5280 C.ar  201  TYR201     -0.0009
     61  CD2       39.6350   44.7470   19.3080 C.ar  201  TYR201     -0.0009
     62  CE1       37.3530   43.5870   18.3310 C.ar  201  TYR201      0.0417
     63  CE2       38.8950   43.9080   20.1130 C.ar  201  TYR201      0.0417
     64  CZ        37.7560   43.3390   19.6190 C.ar  201  TYR201      0.1957
     65  OH        37.0180   42.5110   20.4160 O.3   201  TYR201     -0.2866
     66  N         40.5180   49.7950   19.2910 N.3   207  SER207     -0.1202
     67  CA        39.5390   49.5800   20.3530 C.3   207  SER207      0.2020
     68  C         38.3790   48.6840   19.9200 C.2   207  SER207      0.2619
     69  O         37.6520   48.1540   20.7590 O.2   207  SER207     -0.2717
     70  CB        38.9770   50.9230   20.8340 C.3   207  SER207      0.2103
     71  OG        38.1150   51.5010   19.8670 O.3   207  SER207     -0.2182
     72  N         38.1850   48.5260   18.6290 N.am  208  GLY208     -0.1956
     73  CA        37.0630   47.7570   18.1320 C.3   208  GLY208      0.1869
     74  C         35.7630   48.5430   18.0640 C.2   208  GLY208      0.2309
     75  O         34.7130   47.9860   17.7760 O.2   208  GLY208     -0.2863
     76  N         40.4270   37.7900   20.9670 N.3   245  GLU245     -0.1245
     77  CA        39.4340   38.6660   20.3330 C.3   245  GLU245      0.1567
     78  C         39.9580   39.3130   19.0580 C.2   245  GLU245      0.2260
     79  O         41.0750   39.8070   19.0230 O.2   245  GLU245     -0.2867
     80  CB        38.9770   39.7910   21.2780 C.3   245  GLU245      0.0388
     81  CG        38.3390   39.3280   22.5680 C.3   245  GLU245      0.1160
     82  CD        37.7800   40.4650   23.3930 C.2   245  GLU245      0.3649
     83  OE1       37.7130   41.6030   22.8950 O.co2 245  GLU245     -0.2457
     84  OE2       37.4150   40.2080   24.5450 O.co2 245  GLU245     -0.2457
     85  N         35.3880   37.9730   17.8060 N.3   276  TRP276     -0.1241
     86  CA        34.4650   38.7270   18.6520 C.3   276  TRP276      0.1605
     87  C         33.4480   39.4540   17.7740 C.2   276  TRP276      0.2264
     88  O         33.8270   40.3830   17.0670 O.2   276  TRP276     -0.2867
     89  CB        35.2210   39.7420   19.5230 C.3   276  TRP276      0.0550
     90  CG        34.2950   40.4950   20.4450 C.ar  276  TRP276      0.0003
     91  CD1       33.5880   41.6250   20.1470 C.ar  276  TRP276      0.0946
     92  CD2       33.9580   40.1550   21.7940 C.ar  276  TRP276      0.0152
     93  NE1       32.8310   42.0060   21.2260 N.ar  276  TRP276     -0.2442
     94  CE2       33.0370   41.1180   22.2480 C.ar  276  TRP276      0.0810
     95  CE3       34.3510   39.1290   22.6660 C.ar  276  TRP276      0.0012
     96  CZ2       32.5140   41.1010   23.5480 C.ar  276  TRP276      0.0191
     97  CZ3       33.8120   39.1000   23.9440 C.ar  276  TRP276      0.0001
     98  CH2       32.8980   40.0820   24.3700 C.ar  276  TRP276      0.0015
     99  N         24.4990   44.9740   17.1150 N.3   285  TYR285     -0.1241
    100  CA        25.9190   45.2090   17.3430 C.3   285  TYR285      0.1605
    101  C         26.6670   44.9900   16.0370 C.2   285  TYR285      0.2264
    102  O         26.5230   43.9740   15.3820 O.2   285  TYR285     -0.2867
    103  CB        26.3990   44.2420   18.4310 C.3   285  TYR285      0.0534
    104  CG        27.8580   44.3200   18.7890 C.ar  285  TYR285     -0.0201
    105  CD1       28.4470   45.5140   19.1660 C.ar  285  TYR285     -0.0009
    106  CD2       28.6350   43.1770   18.8070 C.ar  285  TYR285     -0.0009
    107  CE1       29.7690   45.5650   19.5130 C.ar  285  TYR285      0.0417
    108  CE2       29.9420   43.2180   19.1530 C.ar  285  TYR285      0.0417
    109  CZ        30.5120   44.4150   19.5070 C.ar  285  TYR285      0.1957
    110  OH        31.8370   44.4620   19.8610 O.3   285  TYR285     -0.2866
    111  N         29.7920   44.2880   15.2110 N.3   287  LEU287     -0.1245
    112  CA        30.7590   43.2020   15.0480 C.3   287  LEU287      0.1561
    113  C         30.1260   41.8210   15.1180 C.2   287  LEU287      0.2260
    114  O         30.7930   40.8200   14.8850 O.2   287  LEU287     -0.2867
    115  CB        31.8580   43.3160   16.1000 C.3   287  LEU287      0.0270
    116  CG        32.6250   44.6360   16.1640 C.3   287  LEU287      0.0019
    117  CD1       33.7530   44.5200   17.1480 C.3   287  LEU287      0.0001
    118  CD2       33.1470   45.0280   14.7940 C.3   287  LEU287      0.0001
@<TRIPOS>BOND
     1   118   116    1
     2   114   113    2
     3   112   113    1
     4   112   111    1
     5   112   115    1
     6    56    57    2
     7    56    55    1
     8   102   101    2
     9   101   100    1
    10   115   116    1
    11   116   117    1
    12    55    58    1
    13    55    54    1
    14    88    87    2
    15    99   100    1
    16    58    59    1
    17   100   103    1
    18    60    59   ar
    19    60    62   ar
    20    87    86    1
    21    75    74    2
    22    85    86    1
    23    59    61   ar
    24    74    73    1
    25    73    72    1
    26    62    64   ar
    27   103   104    1
    28    72    68   am
    29    86    89    1
    30   104   106   ar
    31   104   105   ar
    32   106   108   ar
    33    79    78    2
    34    78    77    1
    35   108   109   ar
    36   105   107   ar
    37    66    67    1
    38    61    63   ar
    39   109   107   ar
    40   109   110    1
    41    89    90    1
    42    64    63   ar
    43    64    65    1
    44    71    70    1
    45    68    67    1
    46    68    69    2
    47    91    90   ar
    48    91    93   ar
    49    77    76    1
    50    77    80    1
    51    67    70    1
    52    90    92   ar
    53    93    94   ar
    54    80    81    1
    55    92    94   ar
    56    92    95   ar
    57    94    96   ar
    58    81    82    1
    59    95    97   ar
    60    83    82   ar
    61    82    84   ar
    62    96    98   ar
    63    97    98   ar
    64    39    37   ar
    65    43    42    2
    66    37    38   ar
    67    37    36    1
    68    44    45    1
    69    44    41    1
    70    42    41    1
    71    50    47   ar
    72    50    52   ar
    73    36    35    1
    74    45    47   ar
    75    45    46   ar
    76    41    40    1
    77    47    49   ar
    78    52    53   ar
    79    29    28    2
    80     9    10   ar
    81     9     7   ar
    82    46    48   ar
    83    10     8   ar
    84    49    48   ar
    85    49    51   ar
    86    53    51   ar
    87    35    32    1
    88    28    30   am
    89    28    27    1
    90     7     6   ar
    91    22    21    1
    92     8     6   ar
    93    32    31    1
    94    32    33    1
    95    31    25   am
    96    19    21   ar
    97    19    17   ar
    98     6     5    1
    99    27    24    1
   100    21    20   ar
   101    24    25    1
   102    24    23    1
   103    25    26    2
   104    33    34    2
   105    17    16   ar
   106     5     2    1
   107    20    18   ar
   108     2     3    1
   109     2     1    1
   110    16    18   ar
   111    16    15    1
   112     4     3    2
   113    15    12    1
   114    12    11    1
   115    12    13    1
   116    13    14    2
