@<TRIPOS>MOLECULE
tmp/4eeaA00.pdb
 132 132 0 0 0
SMALL
GASTEIGER

@<TRIPOS>ATOM
      1  N         31.0970   49.7000  106.0370 N.3   150  LYS150     -0.1231
      2  CA        30.6180   51.0440  106.3920 C.3   150  LYS150      0.1693
      3  C         31.4380   51.7590  107.4870 C.2   150  LYS150      0.2592
      4  O         31.2850   52.9710  107.6920 O.2   150  LYS150     -0.2718
      5  CB        29.1480   50.9690  106.7930 C.3   150  LYS150      0.0285
      6  CG        28.9700   50.4000  108.1570 C.3   150  LYS150      0.0035
      7  CD        27.4880   50.3780  108.6000 C.3   150  LYS150      0.0206
      8  CE        27.1040   51.6440  109.3300 C.3   150  LYS150      0.1093
      9  NZ        26.1530   51.3290  110.4590 N.3   150  LYS150     -0.1314
     10  N         32.3190   51.0490  108.1830 N.am  151  PHE151     -0.1976
     11  CA        33.2940   51.7200  109.0680 C.3   151  PHE151      0.1639
     12  C         34.7290   51.5960  108.4980 C.2   151  PHE151      0.2290
     13  O         35.6940   51.5650  109.2600 O.2   151  PHE151     -0.2864
     14  CB        33.2640   51.1240  110.4850 C.3   151  PHE151      0.0560
     15  CG        31.9100   51.2430  111.1850 C.ar  151  PHE151     -0.0200
     16  CD1       31.3110   50.1380  111.7750 C.ar  151  PHE151     -0.0042
     17  CD2       31.2800   52.4690  111.2710 C.ar  151  PHE151     -0.0042
     18  CE1       30.0630   50.2370  112.4410 C.ar  151  PHE151     -0.0003
     19  CE2       30.0280   52.5990  111.9250 C.ar  151  PHE151     -0.0003
     20  CZ        29.4310   51.4810  112.5070 C.ar  151  PHE151     -0.0000
     21  N         34.8270   50.8400  114.5610 N.3   156  PRO156     -0.2102
     22  CA        34.6560   52.2930  114.6760 C.3   156  PRO156      0.1504
     23  C         35.2580   52.8620  115.9680 C.2   156  PRO156      0.2575
     24  O         35.6340   54.0380  116.0010 O.2   156  PRO156     -0.2718
     25  CB        33.1160   52.4700  114.6690 C.3   156  PRO156      0.0282
     26  CG        32.5770   51.1320  115.2050 C.3   156  PRO156      0.0208
     27  CD        33.5440   50.1160  114.6050 C.3   156  PRO156      0.0893
     28  N         35.2880   52.0550  117.0320 N.am  157  TYR157     -0.1977
     29  CA        36.0600   52.3420  118.2460 C.3   157  TYR157      0.1639
     30  C         36.3690   51.0100  118.8910 C.2   157  TYR157      0.2290
     31  O         35.7350   50.0060  118.5440 O.2   157  TYR157     -0.2864
     32  CB        35.3500   53.3010  119.2020 C.3   157  TYR157      0.0560
     33  CG        33.8870   52.9640  119.4510 C.ar  157  TYR157     -0.0198
     34  CD1       33.4700   52.3990  120.6600 C.ar  157  TYR157     -0.0009
     35  CD2       32.9330   53.2110  118.4750 C.ar  157  TYR157     -0.0009
     36  CE1       32.1090   52.1210  120.8730 C.ar  157  TYR157      0.0417
     37  CE2       31.5890   52.9360  118.6770 C.ar  157  TYR157      0.0417
     38  CZ        31.1820   52.4330  119.8880 C.ar  157  TYR157      0.1957
     39  OH        29.8370   52.1400  120.0660 O.3   157  TYR157     -0.2866
     40  N         33.6300   48.9310  120.5290 N.3   160  TYR160     -0.1241
     41  CA        32.4510   48.6400  119.7410 C.3   160  TYR160      0.1605
     42  C         32.0700   47.1720  119.7940 C.2   160  TYR160      0.2264
     43  O         32.9000   46.2900  119.5600 O.2   160  TYR160     -0.2867
     44  CB        32.6450   49.1080  118.3010 C.3   160  TYR160      0.0534
     45  CG        31.4960   48.7140  117.3630 C.ar  160  TYR160     -0.0201
     46  CD1       30.2170   49.3030  117.4680 C.ar  160  TYR160     -0.0009
     47  CD2       31.7030   47.7750  116.3560 C.ar  160  TYR160     -0.0009
     48  CE1       29.1520   48.9320  116.5520 C.ar  160  TYR160      0.0417
     49  CE2       30.6770   47.3990  115.4560 C.ar  160  TYR160      0.0417
     50  CZ        29.4190   47.9770  115.5660 C.ar  160  TYR160      0.1957
     51  OH        28.4720   47.5500  114.6740 O.3   160  TYR160     -0.2866
     52  N         28.7100   46.1920  118.5800 N.3   162  GLY162     -0.1225
     53  CA        27.4650   46.0590  117.8120 C.3   162  GLY162      0.1811
     54  C         27.5790   45.1320  116.6060 C.2   162  GLY162      0.2280
     55  O         28.6760   44.6580  116.2720 O.2   162  GLY162     -0.2866
     56  N         17.1410   53.9420  118.5930 N.3   185  TRP185     -0.1227
     57  CA        18.4520   53.5850  118.1020 C.3   185  TRP185      0.1737
     58  C         19.5230   53.9880  119.1030 C.2   185  TRP185      0.2596
     59  O         19.4810   55.0930  119.6880 O.2   185  TRP185     -0.2718
     60  CB        18.7240   54.3410  116.8030 C.3   185  TRP185      0.0564
     61  CG        20.0680   53.9880  116.1730 C.ar  185  TRP185      0.0003
     62  CD1       20.3070   52.9810  115.2920 C.ar  185  TRP185      0.0946
     63  CD2       21.3330   54.6340  116.4020 C.ar  185  TRP185      0.0152
     64  NE1       21.6330   52.9750  114.9310 N.ar  185  TRP185     -0.2442
     65  CE2       22.2860   53.9780  115.6010 C.ar  185  TRP185      0.0810
     66  CE3       21.7420   55.7270  117.1750 C.ar  185  TRP185      0.0012
     67  CZ2       23.6560   54.3650  115.5670 C.ar  185  TRP185      0.0191
     68  CZ3       23.1090   56.1000  117.1620 C.ar  185  TRP185      0.0001
     69  CH2       24.0300   55.4370  116.3390 C.ar  185  TRP185      0.0015
     70  N         20.5130   53.1150  119.2720 N.am  186  GLY186     -0.1942
     71  CA        21.7760   53.5620  119.8440 C.3   186  GLY186      0.2014
     72  C         22.0020   53.1350  121.2780 C.2   186  GLY186      0.2639
     73  O         21.0700   53.1750  122.1170 O.2   186  GLY186     -0.2714
     74  N         23.2420   52.7160  121.5750 N.am  187  GLY187     -0.1939
     75  CA        23.6510   52.5740  122.9780 C.3   187  GLY187      0.2014
     76  C         23.5300   51.1830  123.5830 C.2   187  GLY187      0.2639
     77  O         24.2770   50.8270  124.5060 O.2   187  GLY187     -0.2714
     78  N         22.5610   50.3890  123.1340 N.am  188  GLU188     -0.1963
     79  CA        22.3250   49.1560  123.8490 C.3   188  GLU188      0.1733
     80  C         23.5200   48.2180  123.6980 C.2   188  GLU188      0.2616
     81  O         23.7060   47.3790  124.5650 O.2   188  GLU188     -0.2715
     82  CB        21.0250   48.4270  123.3990 C.3   188  GLU188      0.0429
     83  CG        21.1550   47.5530  122.1420 C.3   188  GLU188      0.1163
     84  CD        21.5410   48.3290  120.8490 C.2   188  GLU188      0.3649
     85  OE1       22.0460   47.6710  119.9120 O.co2 188  GLU188     -0.2457
     86  OE2       21.3190   49.5620  120.7240 O.co2 188  GLU188     -0.2457
     87  N         24.2760   48.3150  122.5970 N.am  189  ASP189     -0.1957
     88  CA        25.4420   47.4290  122.3790 C.3   189  ASP189      0.1840
     89  C         26.5910   47.8550  123.2720 C.2   189  ASP189      0.2622
     90  O         27.3760   47.0230  123.7260 O.2   189  ASP189     -0.2715
     91  CB        25.9050   47.4080  120.9000 C.3   189  ASP189      0.1450
     92  CG        25.9490   48.8030  120.2560 C.2   189  ASP189      0.3671
     93  OD1       25.1680   49.7220  120.6430 O.co2 189  ASP189     -0.2456
     94  OD2       26.7960   48.9780  119.3400 O.co2 189  ASP189     -0.2456
     95  N         26.6720   49.1540  123.5360 N.am  190  ASP190     -0.1971
     96  CA        27.6530   49.6750  124.4800 C.3   190  ASP190      0.1709
     97  C         27.3090   49.2480  125.8960 C.2   190  ASP190      0.2293
     98  O         28.1990   48.9380  126.6920 O.2   190  ASP190     -0.2864
     99  CB        27.7190   51.2010  124.3940 C.3   190  ASP190      0.1436
    100  CG        28.2430   51.6910  123.0400 C.2   190  ASP190      0.3671
    101  OD1       29.1780   51.0990  122.4340 O.co2 190  ASP190     -0.2456
    102  OD2       27.7020   52.6900  122.5610 O.co2 190  ASP190     -0.2456
    103  N         20.2340   57.6960  125.6930 N.3   230  ARG230     -0.1231
    104  CA        21.2240   56.6100  125.5490 C.3   230  ARG230      0.1694
    105  C         22.5680   56.9050  126.2470 C.2   230  ARG230      0.2592
    106  O         23.1550   56.0060  126.8140 O.2   230  ARG230     -0.2718
    107  CB        21.4440   56.2390  124.0630 C.3   230  ARG230      0.0321
    108  CG        22.2540   57.2170  123.2240 C.3   230  ARG230      0.0489
    109  CD        22.0390   56.8430  121.7550 C.3   230  ARG230      0.2205
    110  NE        22.7530   57.6450  120.7430 N.pl3 230  ARG230     -0.0865
    111  CZ        22.3030   58.8020  120.2570 C.cat 230  ARG230      0.5346
    112  NH1       21.1560   59.3160  120.7040 N.pl3 230  ARG230      0.1354
    113  NH2       22.9960   59.4400  119.3250 N.pl3 230  ARG230      0.1354
    114  N         23.0390   58.1530  126.1930 N.am  231  PHE231     -0.1976
    115  CA        24.3450   58.4990  126.7740 C.3   231  PHE231      0.1639
    116  C         24.2940   58.3970  128.3080 C.2   231  PHE231      0.2290
    117  O         25.2750   57.9640  128.9400 O.2   231  PHE231     -0.2864
    118  CB        24.8450   59.8710  126.2700 C.3   231  PHE231      0.0560
    119  CG        24.9250   59.9700  124.7550 C.ar  231  PHE231     -0.0200
    120  CD1       23.9980   60.7350  124.0450 C.ar  231  PHE231     -0.0042
    121  CD2       25.9260   59.2800  124.0440 C.ar  231  PHE231     -0.0042
    122  CE1       24.0500   60.8150  122.6470 C.ar  231  PHE231     -0.0003
    123  CE2       25.9920   59.3500  122.6440 C.ar  231  PHE231     -0.0003
    124  CZ        25.0560   60.1250  121.9390 C.ar  231  PHE231     -0.0000
    125  N         24.0780   54.4690  129.3630 N.3   234  ILE234     -0.1245
    126  CA        25.2660   53.6230  129.2670 C.3   234  ILE234      0.1561
    127  C         26.2520   54.0170  130.3840 C.2   234  ILE234      0.2260
    128  O         27.1130   53.2270  130.7520 O.2   234  ILE234     -0.2867
    129  CB        25.9560   53.6220  127.8500 C.3   234  ILE234      0.0252
    130  CG1       26.4520   55.0110  127.4430 C.3   234  ILE234      0.0019
    131  CG2       24.9580   53.1430  126.7650 C.3   234  ILE234      0.0019
    132  CD1       27.5040   54.9940  126.2750 C.3   234  ILE234      0.0001
@<TRIPOS>BOND
     1     1     2    1
     2     2     5    1
     3     2     3    1
     4     5     6    1
     5     3     4    2
     6     3    10   am
     7     6     7    1
     8    10    11    1
     9    12    11    1
    10    12    13    2
    11     7     8    1
    12    11    14    1
    13     8     9    1
    14    14    15    1
    15    15    17   ar
    16    15    16   ar
    17    17    19   ar
    18    16    18   ar
    19    19    20   ar
    20    18    20   ar
    21    21    27    1
    22    21    22    1
    23    27    26    1
    24    25    22    1
    25    25    26    1
    26    51    50    1
    27    22    23    1
    28    64    62   ar
    29    64    65   ar
    30    62    61   ar
    31    49    50   ar
    32    49    47   ar
    33    50    48   ar
    34    67    65   ar
    35    67    69   ar
    36    65    63   ar
    37    23    24    2
    38    23    28   am
    39    61    63   ar
    40    61    60    1
    41    55    54    2
    42    69    68   ar
    43    47    45   ar
    44    63    66   ar
    45    48    46   ar
    46    54    53    1
    47    60    57    1
    48    28    29    1
    49    68    66   ar
    50    45    46   ar
    51    45    44    1
    52    53    52    1
    53    57    56    1
    54    57    58    1
    55    29    30    1
    56    29    32    1
    57    44    41    1
    58    35    37   ar
    59    35    33   ar
    60    31    30    2
    61    37    38   ar
    62    58    70   am
    63    58    59    2
    64    32    33    1
    65    70    71    1
    66   113   111    1
    67    94    92   ar
    68    33    34   ar
    69    43    42    2
    70    41    42    1
    71    41    40    1
    72    71    72    1
    73    38    39    1
    74    38    36   ar
    75    85    84   ar
    76    92    93   ar
    77    92    91    1
    78   111   112    1
    79   111   110    2
    80    34    36   ar
    81    86    84   ar
    82   110   109    1
    83    84    83    1
    84    91    88    1
    85    72    74   am
    86    72    73    2
    87    74    75    1
    88   109   108    1
    89   124   123   ar
    90   124   122   ar
    91    83    82    1
    92    88    87    1
    93    88    89    1
    94   101   100   ar
    95   102   100   ar
    96    87    80   am
    97   123   121   ar
    98   122   120   ar
    99    75    76    1
   100   100    99    1
   101    78    76   am
   102    78    79    1
   103   108   107    1
   104    89    95   am
   105    89    90    2
   106    82    79    1
   107    95    96    1
   108    76    77    2
   109    80    79    1
   110    80    81    2
   111   121   119   ar
   112   120   119   ar
   113   107   104    1
   114    99    96    1
   115    96    97    1
   116   119   118    1
   117   104   103    1
   118   104   105    1
   119    97    98    2
   120   114   105   am
   121   114   115    1
   122   105   106    2
   123   118   115    1
   124   132   130    1
   125   131   129    1
   126   115   116    1
   127   130   129    1
   128   129   126    1
   129   116   117    2
   130   126   125    1
   131   126   127    1
   132   127   128    2
