@<TRIPOS>MOLECULE
tmp/4eecA00.pdb
 198 191 0 0 0
SMALL
GASTEIGER

@<TRIPOS>ATOM
      1  N        -22.4500    4.8490    2.4500 N.3    10  PRO10      -0.2102
      2  CA       -23.7550    4.4340    2.9450 C.3    10  PRO10       0.1504
      3  C        -24.7280    4.1040    1.8260 C.2    10  PRO10       0.2575
      4  O        -24.7230    4.7680    0.7940 O.2    10  PRO10      -0.2718
      5  CB       -24.2480    5.6640    3.6940 C.3    10  PRO10       0.0282
      6  CG       -22.9870    6.3580    4.1290 C.3    10  PRO10       0.0208
      7  CD       -22.0210    6.1380    3.0330 C.3    10  PRO10       0.0893
      8  N        -25.5350    3.0670    2.0400 N.am   11  LYS11      -0.1980
      9  CA       -26.6460    2.6740    1.1490 C.3    11  LYS11       0.1596
     10  C        -26.2150    2.1020   -0.2050 C.2    11  LYS11       0.2287
     11  O        -27.0140    2.0790   -1.1720 O.2    11  LYS11      -0.2864
     12  CB       -27.6700    3.8070    0.9540 C.3    11  LYS11       0.0298
     13  CG       -28.1570    4.5120    2.2430 C.3    11  LYS11       0.0038
     14  CD       -28.6140    3.5110    3.3390 C.3    11  LYS11       0.0206
     15  CE       -29.9850    2.8870    3.0870 C.3    11  LYS11       0.1093
     16  NZ       -30.1990    1.7310    4.0020 N.3    11  LYS11      -0.1314
     17  N        -25.0220   -4.2300    3.6020 N.3    15  HIS15      -0.1241
     18  CA       -25.4970   -5.2470    4.5750 C.3    15  HIS15       0.1621
     19  C        -25.6040   -6.5560    3.8230 C.2    15  HIS15       0.2264
     20  O        -25.2470   -7.6110    4.3190 O.2    15  HIS15      -0.2867
     21  CB       -26.8200   -4.8510    5.1960 C.3    15  HIS15       0.0745
     22  CG       -26.6900   -3.8960    6.3330 C.ar   15  HIS15       0.0817
     23  ND1      -26.8510   -2.5390    6.1810 N.ar   15  HIS15      -0.2268
     24  CD2      -26.4070   -4.0970    7.6430 C.ar   15  HIS15       0.1154
     25  CE1      -26.6540   -1.9370    7.3470 C.ar   15  HIS15       0.1986
     26  NE2      -26.3850   -2.8610    8.2520 N.ar   15  HIS15      -0.2212
     27  N        -22.4580   -7.8650    2.9890 N.3    18  ARG18      -0.1245
     28  CA       -21.9600   -8.3140    4.2820 C.3    18  ARG18       0.1563
     29  C        -22.5930   -9.6490    4.6530 C.2    18  ARG18       0.2260
     30  O        -21.8780  -10.5880    5.0200 O.2    18  ARG18      -0.2867
     31  CB       -22.1160   -7.2390    5.3710 C.3    18  ARG18       0.0307
     32  CG       -21.0720   -6.0620    5.2300 C.3    18  ARG18       0.0489
     33  CD       -21.3600   -4.8570    6.1720 C.3    18  ARG18       0.2205
     34  NE       -21.2040   -5.2630    7.5780 N.pl3  18  ARG18      -0.0865
     35  CZ       -22.0920   -5.0890    8.5400 C.cat  18  ARG18       0.5346
     36  NH1      -23.2320   -4.4480    8.2940 N.pl3  18  ARG18       0.1354
     37  NH2      -21.8090   -5.5290    9.7590 N.pl3  18  ARG18       0.1354
     38  N        -24.8980  -10.6040   10.9050 N.3    36  ILE36      -0.1231
     39  CA       -24.2320   -9.7000   10.0020 C.3    36  ILE36       0.1692
     40  C        -23.0480   -8.9490   10.6590 C.2    36  ILE36       0.2591
     41  O        -21.9410   -8.9030   10.1110 O.2    36  ILE36      -0.2718
     42  CB       -25.2650   -8.7090    9.4900 C.3    36  ILE36       0.0266
     43  CG1      -26.2060   -9.3910    8.5130 C.3    36  ILE36       0.0019
     44  CG2      -24.6090   -7.4920    8.8920 C.3    36  ILE36       0.0020
     45  CD1      -27.5330   -8.7110    8.4330 C.3    36  ILE36       0.0001
     46  N        -23.2960   -8.3670   11.8350 N.am   37  GLN37      -0.1979
     47  CA       -22.3060   -7.5640   12.5760 C.3    37  GLN37       0.1601
     48  C        -21.2870   -8.5110   13.1940 C.2    37  GLN37       0.2287
     49  O        -20.1150   -8.1920   13.3030 O.2    37  GLN37      -0.2864
     50  CB       -23.0220   -6.6970   13.6350 C.3    37  GLN37       0.0394
     51  CG       -22.1990   -5.6690   14.3910 C.3    37  GLN37       0.0908
     52  CD       -21.2930   -4.8020   13.5060 C.2    37  GLN37       0.2608
     53  OE1      -21.3940   -4.8070   12.2790 O.2    37  GLN37      -0.2717
     54  NE2      -20.4030   -4.0560   14.1370 N.am   37  GLN37      -0.0878
     55  N        -18.8660   -4.2240   11.2590 N.3    42  HIS42      -0.1241
     56  CA       -18.6970   -2.8470   10.8140 C.3    42  HIS42       0.1621
     57  C        -17.8590   -1.9860   11.7690 C.2    42  HIS42       0.2264
     58  O        -18.3090   -1.6640   12.8600 O.2    42  HIS42      -0.2867
     59  CB       -20.0620   -2.2110   10.6520 C.3    42  HIS42       0.0745
     60  CG       -20.0200   -0.9100    9.9330 C.ar   42  HIS42       0.0817
     61  ND1      -20.5380    0.2490   10.4670 N.ar   42  HIS42      -0.2268
     62  CD2      -19.5000   -0.5750    8.7300 C.ar   42  HIS42       0.1154
     63  CE1      -20.3570    1.2440    9.6190 C.ar   42  HIS42       0.1986
     64  NE2      -19.7250    0.7690    8.5560 N.ar   42  HIS42      -0.2212
     65  N        -17.3120    1.1180   12.5770 N.3    44  GLU44      -0.1231
     66  CA       -17.9460    2.1620   13.3790 C.3    44  GLU44       0.1699
     67  C        -18.6260    1.5490   14.5880 C.2    44  GLU44       0.2592
     68  O        -18.4450    2.0090   15.7030 O.2    44  GLU44      -0.2718
     69  CB       -18.9450    2.9620   12.5410 C.3    44  GLU44       0.0402
     70  CG       -18.3050    3.9410   11.5100 C.3    44  GLU44       0.1161
     71  CD       -17.8900    3.2950   10.1480 C.2    44  GLU44       0.3649
     72  OE1      -17.5290    2.0870   10.1010 O.co2  44  GLU44      -0.2457
     73  OE2      -17.9070    4.0160    9.1170 O.co2  44  GLU44      -0.2457
     74  N        -19.3730    0.4730   14.3630 N.am   45  GLY45      -0.1957
     75  CA       -20.1090   -0.2010   15.4180 C.3    45  GLY45       0.1869
     76  C        -19.2230   -0.7680   16.4930 C.2    45  GLY45       0.2309
     77  O        -19.6130   -0.8010   17.6560 O.2    45  GLY45      -0.2863
     78  N        -16.2760    0.4680   17.4060 N.3    47  LEU47      -0.1231
     79  CA       -15.7870    1.6110   18.1830 C.3    47  LEU47       0.1693
     80  C        -16.8190    2.1590   19.1550 C.2    47  LEU47       0.2591
     81  O        -16.4760    2.5600   20.2430 O.2    47  LEU47      -0.2718
     82  CB       -15.3370    2.7390   17.2810 C.3    47  LEU47       0.0284
     83  CG       -14.4280    2.4570   16.0840 C.3    47  LEU47       0.0019
     84  CD1      -14.5970    3.6510   15.1670 C.3    47  LEU47       0.0001
     85  CD2      -12.9390    2.2380   16.4480 C.3    47  LEU47       0.0001
     86  N        -18.0890    2.1590   18.8000 N.am   48  ARG48      -0.1980
     87  CA       -19.1070    2.6200   19.7440 C.3    48  ARG48       0.1597
     88  C        -18.9410    1.9290   21.0830 C.2    48  ARG48       0.2287
     89  O        -19.0940    2.5580   22.1230 O.2    48  ARG48      -0.2864
     90  CB       -20.4950    2.2870   19.2230 C.3    48  ARG48       0.0334
     91  CG       -21.4840    3.3950   19.3340 C.3    48  ARG48       0.0492
     92  CD       -22.3950    3.3650   20.5170 C.3    48  ARG48       0.2205
     93  NE       -22.4250    4.7480   20.9760 N.pl3  48  ARG48      -0.0865
     94  CZ       -23.2920    5.2760   21.8310 C.cat  48  ARG48       0.5346
     95  NH1      -24.2790    4.5420   22.3550 N.pl3  48  ARG48       0.1354
     96  NH2      -23.1530    6.5650   22.1490 N.pl3  48  ARG48       0.1354
     97  N        -17.6010    2.7130    6.4600 N.3    66  HIS66      -0.1241
     98  CA       -18.0530    3.7280    5.5090 C.3    66  HIS66       0.1621
     99  C        -17.0950    4.8710    5.5050 C.2    66  HIS66       0.2264
    100  O        -17.3440    5.8800    4.8610 O.2    66  HIS66      -0.2867
    101  CB       -19.3850    4.3270    5.9320 C.3    66  HIS66       0.0745
    102  CG       -20.5320    3.3800    5.8760 C.ar   66  HIS66       0.0817
    103  ND1      -20.5400    2.2640    5.0720 N.ar   66  HIS66      -0.2268
    104  CD2      -21.7470    3.4230    6.4800 C.ar   66  HIS66       0.1154
    105  CE1      -21.7010    1.6370    5.2140 C.ar   66  HIS66       0.1986
    106  NE2      -22.4500    2.3180    6.0660 N.ar   66  HIS66      -0.2212
    107  N        -35.3880    4.5270    3.7230 N.3   101  MET101     -0.1230
    108  CA       -34.9180    4.2650    5.0770 C.3   101  MET101      0.1702
    109  C        -35.4440    5.2830    6.1100 C.2   101  MET101      0.2592
    110  O        -35.7480    4.9240    7.2420 O.2   101  MET101     -0.2718
    111  CB       -33.3930    4.1770    5.1060 C.3   101  MET101      0.0401
    112  CG       -32.8200    4.6870    6.3950 C.3   101  MET101      0.0596
    113  SD       -31.0760    4.4270    6.7030 S.3   101  MET101     -0.1393
    114  CE       -31.1160    2.8460    7.5690 C.3   101  MET101      0.0692
    115  N        -35.5450    6.5480    5.7230 N.am  102  LYS102     -0.1980
    116  CA       -36.1450    7.5650    6.5830 C.3   102  LYS102      0.1596
    117  C        -37.6730    7.4400    6.7490 C.2   102  LYS102      0.2287
    118  O        -38.2780    8.2100    7.5050 O.2   102  LYS102     -0.2864
    119  CB       -35.7850    8.9680    6.0890 C.3   102  LYS102      0.0298
    120  CG       -34.7310    9.6800    6.9330 C.3   102  LYS102      0.0038
    121  CD       -34.1560   10.8720    6.1980 C.3   102  LYS102      0.0206
    122  CE       -33.7230   11.9960    7.1440 C.3   102  LYS102      0.1093
    123  NZ       -34.8600   12.9340    7.5100 N.3   102  LYS102     -0.1314
    124  N        -26.1310   14.4540    6.4980 N.3   128  VAL128     -0.1231
    125  CA       -26.9810   13.5140    7.2100 C.3   128  VAL128      0.1692
    126  C        -26.1940   13.0120    8.4180 C.2   128  VAL128      0.2592
    127  O        -25.0860   12.4760    8.2750 O.2   128  VAL128     -0.2718
    128  CB       -27.3880   12.3710    6.2840 C.3   128  VAL128      0.0266
    129  CG1      -28.0220   11.2450    7.0480 C.3   128  VAL128      0.0020
    130  CG2      -28.3020   12.8790    5.2010 C.3   128  VAL128      0.0020
    131  N        -26.7560   13.2140    9.6080 N.am  129  ARG129     -0.1966
    132  CA       -26.0470   12.9390   10.8720 C.3   129  ARG129      0.1729
    133  C        -26.0120   11.4660   11.2700 C.2   129  ARG129      0.2616
    134  O        -25.4180   11.1310   12.2970 O.2   129  ARG129     -0.2715
    135  CB       -26.6430   13.7620   12.0310 C.3   129  ARG129      0.0348
    136  CG       -26.3700   15.2790   11.9910 C.3   129  ARG129      0.0492
    137  CD       -24.9170   15.6240   12.3720 C.3   129  ARG129      0.2205
    138  NE       -24.8720   16.8090   13.2310 N.pl3 129  ARG129     -0.0865
    139  CZ       -24.9450   16.7760   14.5660 C.cat 129  ARG129      0.5346
    140  NH1      -25.0600   15.6130   15.2180 N.pl3 129  ARG129      0.1354
    141  NH2      -24.9040   17.9150   15.2620 N.pl3 129  ARG129      0.1354
    142  N        -26.6600   10.6030   10.4790 N.am  130  ILE130     -0.1963
    143  CA       -26.6570    9.1420   10.6800 C.3   130  ILE130      0.1727
    144  C        -25.2300    8.5600   10.6000 C.2   130  ILE130      0.2616
    145  O        -24.8690    7.6550   11.3630 O.2   130  ILE130     -0.2715
    146  CB       -27.5630    8.4070    9.6340 C.3   130  ILE130      0.0290
    147  CG1      -29.0200    8.8380    9.7640 C.3   130  ILE130      0.0022
    148  CG2      -27.5090    6.8880    9.7830 C.3   130  ILE130      0.0023
    149  CD1      -29.8920    8.2490    8.6680 C.3   130  ILE130      0.0001
    150  N        -24.4230    9.0540    9.6740 N.am  131  TRP131     -0.1974
    151  CA       -23.0480    8.5840    9.6000 C.3   131  TRP131      0.1640
    152  C        -22.1080    9.7730    9.7340 C.2   131  TRP131      0.2290
    153  O        -22.4870   10.9140    9.4240 O.2   131  TRP131     -0.2864
    154  CB       -22.7760    7.8150    8.2910 C.3   131  TRP131      0.0576
    155  CG       -23.8430    6.7960    7.9190 C.ar  131  TRP131      0.0006
    156  CD1      -23.9050    5.4830    8.3070 C.ar  131  TRP131      0.0946
    157  CD2      -24.9970    7.0190    7.1000 C.ar  131  TRP131      0.0152
    158  NE1      -25.0260    4.8860    7.7880 N.ar  131  TRP131     -0.2442
    159  CE2      -25.7040    5.8050    7.0310 C.ar  131  TRP131      0.0810
    160  CE3      -25.4810    8.1170    6.3970 C.ar  131  TRP131      0.0012
    161  CZ2      -26.8700    5.6610    6.3010 C.ar  131  TRP131      0.0191
    162  CZ3      -26.6540    7.9620    5.6470 C.ar  131  TRP131      0.0001
    163  CH2      -27.3350    6.7490    5.6220 C.ar  131  TRP131      0.0015
    164  N        -31.4730   -6.0170   18.7390 N.3   213  GLU213     -0.1245
    165  CA       -30.7040   -4.9060   18.2020 C.3   213  GLU213      0.1567
    166  C        -30.6930   -5.0200   16.6740 C.2   213  GLU213      0.2260
    167  O        -29.9420   -5.8310   16.1090 O.2   213  GLU213     -0.2867
    168  CB       -29.2750   -4.8990   18.7730 C.3   213  GLU213      0.0388
    169  CG       -28.4320   -3.7080   18.3640 C.3   213  GLU213      0.1160
    170  CD       -28.9540   -2.3950   18.9150 C.2   213  GLU213      0.3649
    171  OE1      -29.5700   -2.4100   20.0080 O.co2 213  GLU213     -0.2457
    172  OE2      -28.7540   -1.3530   18.2490 O.co2 213  GLU213     -0.2457
    173  N        -31.1090   -2.5470   12.7400 N.3   215  THR215     -0.1218
    174  CA       -30.8460   -1.2120   12.1570 C.3   215  THR215      0.1862
    175  C        -31.9860   -0.6730   11.2690 C.2   215  THR215      0.2287
    176  O        -32.5740    0.3840   11.5450 O.2   215  THR215     -0.2866
    177  CB       -29.4910   -1.1640   11.3920 C.3   215  THR215      0.1770
    178  OG1      -29.5760   -1.9650   10.2030 O.3   215  THR215     -0.2211
    179  CG2      -28.3230   -1.6750   12.2800 C.3   215  THR215      0.0375
    180  N        -38.9390    0.4960   12.8350 N.3   216  LEU216     -0.1245
    181  CA       -38.8830    1.2450   11.5670 C.3   216  LEU216      0.1561
    182  C        -38.1790    0.4810   10.3850 C.2   216  LEU216      0.2260
    183  O        -36.9450    0.3250   10.4000 O.2   216  LEU216     -0.2867
    184  CB       -38.2100    2.6120   11.8000 C.3   216  LEU216      0.0270
    185  CG       -38.7660    3.9330   11.2300 C.3   216  LEU216      0.0019
    186  CD1      -37.5940    4.8610   10.8740 C.3   216  LEU216      0.0001
    187  CD2      -39.7330    3.7850   10.0330 C.3   216  LEU216      0.0001
    188  N        -36.2550   -1.3220    7.3260 N.3   218  PHE218     -0.1241
    189  CA       -34.9100   -1.0890    6.7560 C.3   218  PHE218      0.1605
    190  C        -34.6880   -1.6530    5.3360 C.2   218  PHE218      0.2264
    191  O        -33.8710   -1.1330    4.5700 O.2   218  PHE218     -0.2867
    192  CB       -33.8400   -1.6610    7.6940 C.3   218  PHE218      0.0534
    193  CG       -32.4490   -1.6230    7.1240 C.ar  218  PHE218     -0.0203
    194  CD1      -31.4860   -0.7860    7.6720 C.ar  218  PHE218     -0.0042
    195  CD2      -32.1110   -2.4200    6.0350 C.ar  218  PHE218     -0.0042
    196  CE1      -30.2010   -0.7450    7.1440 C.ar  218  PHE218     -0.0003
    197  CE2      -30.8480   -2.3790    5.4860 C.ar  218  PHE218     -0.0003
    198  CZ       -29.8770   -1.5480    6.0410 C.ar  218  PHE218     -0.0000
@<TRIPOS>BOND
     1    11    10    2
     2    10     9    1
     3     4     3    2
     4    12     9    1
     5    12    13    1
     6     9     8    1
     7     3     8   am
     8     3     2    1
     9    13    14    1
    10     1     2    1
    11     1     7    1
    12     2     5    1
    13    27    28    1
    14     7     6    1
    15    15    14    1
    16    15    16    1
    17    17    18    1
    18     5     6    1
    19   107   108    1
    20    19    20    2
    21    19    18    1
    22    28    29    1
    23    28    31    1
    24   191   190    2
    25    18    21    1
    26    29    30    2
    27   100    99    2
    28   103   105   ar
    29   103   102   ar
    30   108   111    1
    31   108   109    1
    32   111   112    1
    33    21    22    1
    34   130   128    1
    35   105   106   ar
    36    32    31    1
    37    32    33    1
    38   190   189    1
    39   197   195   ar
    40   197   198   ar
    41    99    98    1
    42    98   101    1
    43    98    97    1
    44   163   162   ar
    45   163   161   ar
    46   162   160   ar
    47   115   109   am
    48   115   116    1
    49   102   101    1
    50   102   104   ar
    51   195   193   ar
    52   198   196   ar
    53   106   104   ar
    54   119   116    1
    55   119   120    1
    56   109   110    2
    57    33    34    1
    58    23    22   ar
    59    23    25   ar
    60   121   120    1
    61   121   122    1
    62   128   129    1
    63   128   125    1
    64   161   159   ar
    65    22    24   ar
    66   112   113    1
    67   160   157   ar
    68   124   125    1
    69   116   117    1
    70   113   114    1
    71   117   118    2
    72   189   188    1
    73   189   192    1
    74   159   157   ar
    75   159   158   ar
    76   157   155   ar
    77   193   194   ar
    78   193   192    1
    79   122   123    1
    80   196   194   ar
    81   125   126    1
    82    25    26   ar
    83    34    35    2
    84    24    26   ar
    85   158   156   ar
    86   155   154    1
    87   155   156   ar
    88   127   126    2
    89   154   151    1
    90    36    35    1
    91   126   131   am
    92    45    43    1
    93    43    42    1
    94    35    37    1
    95    64    62   ar
    96    64    63   ar
    97   149   147    1
    98    62    60   ar
    99    44    42    1
   100    73    71   ar
   101   153   152    2
   102    42    39    1
   103   151   150    1
   104   151   152    1
   105   131   132    1
   106    63    61   ar
   107   146   147    1
   108   146   148    1
   109   146   143    1
   110   150   144   am
   111    60    61   ar
   112    60    59    1
   113    39    40    1
   114    39    38    1
   115   187   185    1
   116    72    71   ar
   117    41    40    2
   118    71    70    1
   119   178   177    1
   120   182   183    2
   121   182   181    1
   122   142   143    1
   123   142   133   am
   124   144   143    1
   125   144   145    2
   126    59    56    1
   127    40    46   am
   128    56    55    1
   129    56    57    1
   130   132   133    1
   131   132   135    1
   132   186   185    1
   133   185   184    1
   134   175   176    2
   135   175   174    1
   136   133   134    2
   137   177   174    1
   138   177   179    1
   139    70    69    1
   140   181   184    1
   141   181   180    1
   142    57    58    2
   143    46    47    1
   144   136   135    1
   145   136   137    1
   146   174   173    1
   147    53    52    2
   148   137   138    1
   149    69    66    1
   150    47    48    1
   151    47    50    1
   152    65    66    1
   153    48    49    2
   154   138   139    2
   155    66    67    1
   156    52    54   am
   157    52    51    1
   158    50    51    1
   159    74    67   am
   160    74    75    1
   161   139   140    1
   162   139   141    1
   163    67    68    2
   164    84    83    1
   165    75    76    1
   166    83    85    1
   167    83    82    1
   168   167   166    2
   169    76    77    2
   170   166   165    1
   171    82    79    1
   172    78    79    1
   173    79    80    1
   174   165   164    1
   175   165   168    1
   176   172   170   ar
   177   169   168    1
   178   169   170    1
   179    86    80   am
   180    86    87    1
   181   170   171   ar
   182    80    81    2
   183    90    91    1
   184    90    87    1
   185    91    92    1
   186    87    88    1
   187    92    93    1
   188    93    94    2
   189    88    89    2
   190    94    96    1
   191    94    95    1
