@<TRIPOS>MOLECULE
tmp/4eecA01.pdb
 180 177 0 0 0
SMALL
GASTEIGER

@<TRIPOS>ATOM
      1  N        -19.8220    3.2730    0.5800 N.3     9  TYR9       -0.1241
      2  CA       -20.5390    4.4480    0.9750 C.3     9  TYR9        0.1605
      3  C        -21.8690    4.0350    1.5520 C.2     9  TYR9        0.2264
      4  O        -22.3820    2.9880    1.1870 O.2     9  TYR9       -0.2867
      5  CB       -20.7860    5.3150   -0.2460 C.3     9  TYR9        0.0534
      6  CG       -20.9210    6.7620    0.0570 C.ar    9  TYR9       -0.0201
      7  CD1      -19.8420    7.4820    0.6260 C.ar    9  TYR9       -0.0009
      8  CD2      -22.1000    7.4230   -0.2210 C.ar    9  TYR9       -0.0009
      9  CE1      -19.9590    8.8330    0.9200 C.ar    9  TYR9        0.0417
     10  CE2      -22.2360    8.7730    0.0490 C.ar    9  TYR9        0.0417
     11  CZ       -21.1610    9.4750    0.6190 C.ar    9  TYR9        0.1957
     12  OH       -21.2800   10.7990    0.9180 O.3     9  TYR9       -0.2866
     13  N        -25.5350    3.0670    2.0400 N.3    11  LYS11      -0.1231
     14  CA       -26.6460    2.6740    1.1490 C.3    11  LYS11       0.1693
     15  C        -26.2150    2.1020   -0.2050 C.2    11  LYS11       0.2592
     16  O        -27.0140    2.0790   -1.1720 O.2    11  LYS11      -0.2718
     17  CB       -27.6700    3.8070    0.9540 C.3    11  LYS11       0.0285
     18  CG       -28.1570    4.5120    2.2430 C.3    11  LYS11       0.0035
     19  CD       -28.6140    3.5110    3.3390 C.3    11  LYS11       0.0206
     20  CE       -29.9850    2.8870    3.0870 C.3    11  LYS11       0.1093
     21  NZ       -30.1990    1.7310    4.0020 N.3    11  LYS11      -0.1314
     22  N        -24.9660    1.6440   -0.2810 N.am   12  ALA12      -0.1966
     23  CA       -24.4790    0.9040   -1.4600 C.3    12  ALA12       0.1728
     24  C        -24.8490   -0.5670   -1.4720 C.2    12  ALA12       0.2617
     25  O        -24.5800   -1.2480   -2.4560 O.2    12  ALA12      -0.2715
     26  CB       -23.0020    1.0220   -1.6100 C.3    12  ALA12       0.0334
     27  N        -25.4440   -1.0810   -0.4060 N.am   13  GLY13      -0.1940
     28  CA       -25.7670   -2.5090   -0.3700 C.3    13  GLY13       0.2014
     29  C        -24.8520   -3.3070    0.5340 C.2    13  GLY13       0.2639
     30  O        -24.7490   -4.5340    0.4200 O.2    13  GLY13      -0.2714
     31  N        -24.1970   -2.5990    1.4460 N.am   14  GLY14      -0.1939
     32  CA       -23.2100   -3.1600    2.3640 C.3    14  GLY14       0.2014
     33  C        -23.7520   -4.2870    3.2040 C.2    14  GLY14       0.2639
     34  O        -23.0330   -5.2270    3.4910 O.2    14  GLY14      -0.2714
     35  N        -25.0220   -4.2300    3.6020 N.am   15  HIS15      -0.1959
     36  CA       -25.4970   -5.2470    4.5750 C.3    15  HIS15       0.1787
     37  C        -25.6040   -6.5560    3.8230 C.2    15  HIS15       0.2620
     38  O        -25.2470   -7.6110    4.3190 O.2    15  HIS15      -0.2715
     39  CB       -26.8200   -4.8510    5.1960 C.3    15  HIS15       0.0785
     40  CG       -26.6900   -3.8960    6.3330 C.ar   15  HIS15       0.0821
     41  ND1      -26.8510   -2.5390    6.1810 N.ar   15  HIS15      -0.2267
     42  CD2      -26.4070   -4.0970    7.6430 C.ar   15  HIS15       0.1154
     43  CE1      -26.6540   -1.9370    7.3470 C.ar   15  HIS15       0.1986
     44  NE2      -26.3850   -2.8610    8.2520 N.ar   15  HIS15      -0.2212
     45  N        -26.0010   -6.4300    2.5650 N.am   16  TRP16      -0.1974
     46  CA       -26.2620   -7.5580    1.7410 C.3    16  TRP16       0.1640
     47  C        -24.9700   -8.2510    1.3690 C.2    16  TRP16       0.2290
     48  O        -24.8040   -9.4650    1.5760 O.2    16  TRP16      -0.2864
     49  CB       -27.0840   -7.1260    0.5450 C.3    16  TRP16       0.0576
     50  CG       -27.3590   -8.1860   -0.4170 C.ar   16  TRP16       0.0006
     51  CD1      -27.6340   -9.4910   -0.1600 C.ar   16  TRP16       0.0946
     52  CD2      -27.4280   -8.0220   -1.8280 C.ar   16  TRP16       0.0152
     53  NE1      -27.8630  -10.1640   -1.3330 N.ar   16  TRP16      -0.2442
     54  CE2      -27.7330   -9.2800   -2.3760 C.ar   16  TRP16       0.0810
     55  CE3      -27.2460   -6.9190   -2.6930 C.ar   16  TRP16       0.0012
     56  CZ2      -27.8600   -9.4780   -3.7370 C.ar   16  TRP16       0.0191
     57  CZ3      -27.3570   -7.1160   -4.0540 C.ar   16  TRP16       0.0001
     58  CH2      -27.6600   -8.3940   -4.5620 C.ar   16  TRP16       0.0015
     59  N        -17.6010    2.7130    6.4600 N.3    66  HIS66      -0.1241
     60  CA       -18.0530    3.7280    5.5090 C.3    66  HIS66       0.1621
     61  C        -17.0950    4.8710    5.5050 C.2    66  HIS66       0.2264
     62  O        -17.3440    5.8800    4.8610 O.2    66  HIS66      -0.2867
     63  CB       -19.3850    4.3270    5.9320 C.3    66  HIS66       0.0745
     64  CG       -20.5320    3.3800    5.8760 C.ar   66  HIS66       0.0817
     65  ND1      -20.5400    2.2640    5.0720 N.ar   66  HIS66      -0.2268
     66  CD2      -21.7470    3.4230    6.4800 C.ar   66  HIS66       0.1154
     67  CE1      -21.7010    1.6370    5.2140 C.ar   66  HIS66       0.1986
     68  NE2      -22.4500    2.3180    6.0660 N.ar   66  HIS66      -0.2212
     69  N        -22.4370    1.9730   -5.7200 N.3    89  ARG89      -0.1245
     70  CA       -23.7950    2.0030   -6.1900 C.3    89  ARG89       0.1563
     71  C        -24.0940    3.3430   -6.8090 C.2    89  ARG89       0.2260
     72  O        -23.5340    4.3520   -6.3800 O.2    89  ARG89      -0.2867
     73  CB       -24.7400    1.8010   -5.0340 C.3    89  ARG89       0.0307
     74  CG       -26.1690    1.6410   -5.4640 C.3    89  ARG89       0.0489
     75  CD       -27.0350    1.3190   -4.3050 C.3    89  ARG89       0.2205
     76  NE       -28.3910    1.0070   -4.7670 N.pl3  89  ARG89      -0.0865
     77  CZ       -29.4790    1.0270   -4.0010 C.cat  89  ARG89       0.5346
     78  NH1      -29.4040    1.3620   -2.7080 N.pl3  89  ARG89       0.1354
     79  NH2      -30.6380    0.7120   -4.5450 N.pl3  89  ARG89       0.1354
     80  N        -32.5540    5.6550   -1.5860 N.3    97  SER97      -0.1217
     81  CA       -32.4890    4.6420   -0.5440 C.3    97  SER97       0.1889
     82  C        -32.6590    5.2420    0.8520 C.2    97  SER97       0.2288
     83  O        -33.3010    4.6440    1.7400 O.2    97  SER97      -0.2866
     84  CB       -31.1390    3.9410   -0.6370 C.3    97  SER97       0.2089
     85  OG       -31.2520    2.5440   -0.5320 O.3    97  SER97      -0.2183
     86  N        -36.3250    6.0730    1.6100 N.3   100  ARG100     -0.1245
     87  CA       -37.0380    4.8500    1.9890 C.3   100  ARG100      0.1563
     88  C        -36.6740    4.4340    3.3960 C.2   100  ARG100      0.2260
     89  O        -37.5420    4.0220    4.1610 O.2   100  ARG100     -0.2867
     90  CB       -36.6990    3.6910    1.0570 C.3   100  ARG100      0.0307
     91  CG       -37.2250    3.8170   -0.3470 C.3   100  ARG100      0.0489
     92  CD       -36.7790    2.6060   -1.1550 C.3   100  ARG100      0.2205
     93  NE       -36.4980    2.9570   -2.5500 N.pl3 100  ARG100     -0.0865
     94  CZ       -35.2740    3.0820   -3.0680 C.cat 100  ARG100      0.5346
     95  NH1      -34.2020    2.8830   -2.3140 N.pl3 100  ARG100      0.1354
     96  NH2      -35.1150    3.4090   -4.3420 N.pl3 100  ARG100      0.1354
     97  N        -24.4230    9.0540    9.6740 N.3   131  TRP131     -0.1241
     98  CA       -23.0480    8.5840    9.6000 C.3   131  TRP131      0.1605
     99  C        -22.1080    9.7730    9.7340 C.2   131  TRP131      0.2264
    100  O        -22.4870   10.9140    9.4240 O.2   131  TRP131     -0.2867
    101  CB       -22.7760    7.8150    8.2910 C.3   131  TRP131      0.0550
    102  CG       -23.8430    6.7960    7.9190 C.ar  131  TRP131      0.0003
    103  CD1      -23.9050    5.4830    8.3070 C.ar  131  TRP131      0.0946
    104  CD2      -24.9970    7.0190    7.1000 C.ar  131  TRP131      0.0152
    105  NE1      -25.0260    4.8860    7.7880 N.ar  131  TRP131     -0.2442
    106  CE2      -25.7040    5.8050    7.0310 C.ar  131  TRP131      0.0810
    107  CE3      -25.4810    8.1170    6.3970 C.ar  131  TRP131      0.0012
    108  CZ2      -26.8700    5.6610    6.3010 C.ar  131  TRP131      0.0191
    109  CZ3      -26.6540    7.9620    5.6470 C.ar  131  TRP131      0.0001
    110  CH2      -27.3350    6.7490    5.6220 C.ar  131  TRP131      0.0015
    111  N        -23.0110   -2.4790   -7.0080 N.3   162  TYR162     -0.1241
    112  CA       -24.2780   -2.9540   -6.4860 C.3   162  TYR162      0.1605
    113  C        -25.0510   -3.5580   -7.6220 C.2   162  TYR162      0.2264
    114  O        -25.5170   -4.6850   -7.5260 O.2   162  TYR162     -0.2867
    115  CB       -25.0860   -1.8070   -5.8980 C.3   162  TYR162      0.0534
    116  CG       -26.4610   -2.2220   -5.3890 C.ar  162  TYR162     -0.0201
    117  CD1      -26.5980   -3.0270   -4.2540 C.ar  162  TYR162     -0.0009
    118  CD2      -27.6290   -1.8150   -6.0410 C.ar  162  TYR162     -0.0009
    119  CE1      -27.8580   -3.4040   -3.7800 C.ar  162  TYR162      0.0417
    120  CE2      -28.8950   -2.1820   -5.5700 C.ar  162  TYR162      0.0417
    121  CZ       -29.0000   -2.9800   -4.4500 C.ar  162  TYR162      0.1957
    122  OH       -30.2380   -3.3740   -3.9850 O.3   162  TYR162     -0.2866
    123  N        -26.9220   -7.3140   -8.2580 N.3   166  ARG166     -0.1245
    124  CA       -28.3270   -7.6360   -8.4970 C.3   166  ARG166      0.1563
    125  C        -28.5150   -8.4550   -9.7760 C.2   166  ARG166      0.2260
    126  O        -29.2100   -9.4610   -9.7690 O.2   166  ARG166     -0.2867
    127  CB       -29.1980   -6.3740   -8.4820 C.3   166  ARG166      0.0307
    128  CG       -29.2830   -5.7480   -7.0640 C.3   166  ARG166      0.0489
    129  CD       -30.7230   -5.3480   -6.6470 C.3   166  ARG166      0.2205
    130  NE       -31.6110   -6.5100   -6.5340 N.pl3 166  ARG166     -0.0865
    131  CZ       -32.9090   -6.5040   -6.8460 C.cat 166  ARG166      0.5346
    132  NH1      -33.5020   -5.3940   -7.3000 N.pl3 166  ARG166      0.1354
    133  NH2      -33.6240   -7.6230   -6.7240 N.pl3 166  ARG166      0.1354
    134  N        -29.1860  -15.0430    1.5190 N.3   195  CYS195     -0.1221
    135  CA       -29.2770  -13.6200    1.7640 C.3   195  CYS195      0.1808
    136  C        -30.1000  -12.9130    0.7120 C.2   195  CYS195      0.2602
    137  O        -29.8990  -11.7360    0.4200 O.2   195  CYS195     -0.2717
    138  CB       -27.8900  -12.9920    1.9180 C.3   195  CYS195      0.0970
    139  SG       -27.0210  -13.4910    3.4400 S.3   195  CYS195     -0.0800
    140  N        -31.0480  -13.6300    0.1530 N.am  196  THR196     -0.1939
    141  CA       -32.0610  -13.0040   -0.6910 C.3   196  THR196      0.2028
    142  C        -32.8160  -11.8340   -0.0310 C.2   196  THR196      0.2642
    143  O        -32.9710  -11.7560    1.1780 O.2   196  THR196     -0.2714
    144  CB       -33.0330  -14.0900   -1.1920 C.3   196  THR196      0.1808
    145  OG1      -32.3800  -14.7970   -2.2360 O.3   196  THR196     -0.2208
    146  CG2      -34.3110  -13.5370   -1.7450 C.3   196  THR196      0.0379
    147  N        -33.2320  -10.9060   -0.8680 N.am  197  LEU197     -0.1977
    148  CA       -34.2940   -9.9310   -0.5750 C.3   197  LEU197      0.1596
    149  C        -35.4060  -10.4230    0.4250 C.2   197  LEU197      0.2287
    150  O        -35.6210   -9.8350    1.4930 O.2   197  LEU197     -0.2864
    151  CB       -34.9180   -9.5120   -1.9280 C.3   197  LEU197      0.0297
    152  CG       -35.2030  -10.7200   -2.9050 C.3   197  LEU197      0.0022
    153  CD1      -36.7290  -10.8600   -3.3450 C.3   197  LEU197      0.0001
    154  CD2      -34.2010  -10.9310   -4.1280 C.3   197  LEU197      0.0001
    155  N        -34.0110  -11.7730    3.7210 N.3   200  MET200     -0.1245
    156  CA       -33.5500  -10.6370    4.4800 C.3   200  MET200      0.1570
    157  C        -34.6540   -9.9210    5.2650 C.2   200  MET200      0.2261
    158  O        -34.4020   -9.4660    6.3660 O.2   200  MET200     -0.2867
    159  CB       -32.8700   -9.6530    3.5250 C.3   200  MET200      0.0387
    160  CG       -31.5380   -9.1110    4.0100 C.3   200  MET200      0.0595
    161  SD       -30.0930   -9.8390    3.2170 S.3   200  MET200     -0.1393
    162  CE       -28.8240   -8.8030    3.9440 C.3   200  MET200      0.0692
    163  N        -36.2550   -1.3220    7.3260 N.3   218  PHE218     -0.1227
    164  CA       -34.9100   -1.0890    6.7560 C.3   218  PHE218      0.1736
    165  C        -34.6880   -1.6530    5.3360 C.2   218  PHE218      0.2595
    166  O        -33.8710   -1.1330    4.5700 O.2   218  PHE218     -0.2718
    167  CB       -33.8400   -1.6610    7.6940 C.3   218  PHE218      0.0547
    168  CG       -32.4490   -1.6230    7.1240 C.ar  218  PHE218     -0.0202
    169  CD1      -31.4860   -0.7860    7.6720 C.ar  218  PHE218     -0.0042
    170  CD2      -32.1110   -2.4200    6.0350 C.ar  218  PHE218     -0.0042
    171  CE1      -30.2010   -0.7450    7.1440 C.ar  218  PHE218     -0.0003
    172  CE2      -30.8480   -2.3790    5.4860 C.ar  218  PHE218     -0.0003
    173  CZ       -29.8770   -1.5480    6.0410 C.ar  218  PHE218     -0.0000
    174  N        -35.3990   -2.7260    5.0040 N.am  219  VAL219     -0.1980
    175  CA       -35.2990   -3.3740    3.6960 C.3   219  VAL219      0.1595
    176  C        -36.5340   -3.0820    2.8280 C.2   219  VAL219      0.2287
    177  O        -36.4280   -2.7960    1.6300 O.2   219  VAL219     -0.2864
    178  CB       -35.1040   -4.9050    3.8550 C.3   219  VAL219      0.0276
    179  CG1      -33.6990   -5.2090    4.2760 C.3   219  VAL219      0.0022
    180  CG2      -36.0650   -5.4530    4.8820 C.3   219  VAL219      0.0022
@<TRIPOS>BOND
     1   125   126    2
     2   125   124    1
     3   124   127    1
     4   124   123    1
     5   127   128    1
     6   113   114    2
     7   113   112    1
     8   132   131    1
     9   128   129    1
    10   111   112    1
    11   131   133    1
    12   131   130    2
    13    71    72    2
    14    71    70    1
    15   129   130    1
    16   112   115    1
    17    70    69    1
    18    70    73    1
    19   118   120   ar
    20   118   116   ar
    21   115   116    1
    22   120   121   ar
    23    74    73    1
    24    74    75    1
    25   116   117   ar
    26    76    75    1
    27    76    77    2
    28    58    57   ar
    29    58    56   ar
    30    79    77    1
    31   121   122    1
    32   121   119   ar
    33    96    94    1
    34   117   119   ar
    35   154   152    1
    36    57    55   ar
    37    77    78    1
    38    56    54   ar
    39   153   152    1
    40    94    93    2
    41    94    95    1
    42   152   151    1
    43    55    52   ar
    44    93    92    1
    45    25    24    2
    46    54    52   ar
    47    54    53   ar
    48   145   144    1
    49   151   148    1
    50    52    50   ar
    51   146   144    1
    52    26    23    1
    53    80    81    1
    54    24    23    1
    55    24    27   am
    56    23    22    1
    57    53    51   ar
    58   144   141    1
    59    16    15    2
    60    92    91    1
    61   147   148    1
    62   147   142   am
    63   141   142    1
    64   141   140    1
    65    84    81    1
    66    84    85    1
    67   148   149    1
    68    81    82    1
    69    50    51   ar
    70    50    49    1
    71    27    28    1
    72    28    29    1
    73    91    90    1
    74    22    15   am
    75     5     6    1
    76     5     2    1
    77     8    10   ar
    78     8     6   ar
    79    15    14    1
    80   142   143    2
    81    10    11   ar
    82     6     7   ar
    83   140   136   am
    84   137   136    2
    85    30    29    2
    86   149   150    2
    87    29    31   am
    88    49    46    1
    89     1     2    1
    90    11    12    1
    91    11     9   ar
    92     7     9   ar
    93   136   135    1
    94    82    83    2
    95    17    14    1
    96    17    18    1
    97     2     3    1
    98    90    87    1
    99    14    13    1
   100     4     3    2
   101    47    48    2
   102    47    46    1
   103    31    32    1
   104   134   135    1
   105    86    87    1
   106   177   176    2
   107    46    45    1
   108   135   138    1
   109   138   139    1
   110    87    88    1
   111    18    19    1
   112    32    33    1
   113    45    37   am
   114   176   175    1
   115    20    19    1
   116    20    21    1
   117    33    34    2
   118    33    35   am
   119   161   162    1
   120   161   160    1
   121    88    89    2
   122   159   160    1
   123   159   156    1
   124    35    36    1
   125   175   178    1
   126   175   174    1
   127   155   156    1
   128    37    38    2
   129    37    36    1
   130   178   179    1
   131   178   180    1
   132   156   157    1
   133   166   165    2
   134    36    39    1
   135    62    61    2
   136   174   165   am
   137    65    67   ar
   138    65    64   ar
   139    39    40    1
   140    67    68   ar
   141   157   158    2
   142   165   164    1
   143   172   170   ar
   144   172   173   ar
   145    61    60    1
   146    60    63    1
   147    60    59    1
   148   110   109   ar
   149   110   108   ar
   150   109   107   ar
   151    64    63    1
   152    64    66   ar
   153   170   168   ar
   154   173   171   ar
   155    68    66   ar
   156    41    40   ar
   157    41    43   ar
   158   108   106   ar
   159    40    42   ar
   160   107   104   ar
   161   164   163    1
   162   164   167    1
   163   106   104   ar
   164   106   105   ar
   165   104   102   ar
   166   168   169   ar
   167   168   167    1
   168   171   169   ar
   169    43    44   ar
   170    42    44   ar
   171   105   103   ar
   172   102   101    1
   173   102   103   ar
   174   101    98    1
   175   100    99    2
   176    98    97    1
   177    98    99    1
