@<TRIPOS>MOLECULE
tmp/4eegC00.pdb
 132 132 0 0 0
SMALL
GASTEIGER

@<TRIPOS>ATOM
      1  N         32.4800   10.3170  105.2340 N.3   150  LYS150     -0.1231
      2  CA        31.7850    9.1380  105.7560 C.3   150  LYS150      0.1693
      3  C         32.5240    8.4520  106.8820 C.2   150  LYS150      0.2592
      4  O         31.9490    7.6100  107.5620 O.2   150  LYS150     -0.2718
      5  CB        31.3890    8.1360  104.6480 C.3   150  LYS150      0.0285
      6  CG        32.3580    7.0170  104.3330 C.3   150  LYS150      0.0035
      7  CD        32.0270    6.4190  102.9710 C.3   150  LYS150      0.0206
      8  CE        32.1610    4.8930  102.9460 C.3   150  LYS150      0.1093
      9  NZ        33.0300    4.4360  101.8090 N.3   150  LYS150     -0.1314
     10  N         33.7970    8.7910  107.0670 N.am  151  PHE151     -0.1976
     11  CA        34.5460    8.3000  108.2200 C.3   151  PHE151      0.1639
     12  C         34.7940    9.4200  109.2420 C.2   151  PHE151      0.2290
     13  O         35.7350    9.3750  110.0430 O.2   151  PHE151     -0.2864
     14  CB        35.8500    7.6240  107.7830 C.3   151  PHE151      0.0560
     15  CG        35.6450    6.4150  106.9080 C.ar  151  PHE151     -0.0200
     16  CD1       36.4560    6.1970  105.7910 C.ar  151  PHE151     -0.0042
     17  CD2       34.6540    5.4710  107.2060 C.ar  151  PHE151     -0.0042
     18  CE1       36.2730    5.0510  104.9730 C.ar  151  PHE151     -0.0003
     19  CE2       34.4550    4.3560  106.3950 C.ar  151  PHE151     -0.0003
     20  CZ        35.2630    4.1330  105.2830 C.ar  151  PHE151     -0.0000
     21  N         39.5560    5.7630  108.8310 N.3   156  PRO156     -0.2102
     22  CA        38.8620    4.7870  109.6870 C.3   156  PRO156      0.1504
     23  C         39.8260    3.9740  110.5320 C.2   156  PRO156      0.2575
     24  O         39.4560    3.5070  111.5880 O.2   156  PRO156     -0.2718
     25  CB        38.1250    3.8950  108.6940 C.3   156  PRO156      0.0282
     26  CG        38.9110    4.0080  107.4150 C.3   156  PRO156      0.0208
     27  CD        39.5590    5.3720  107.4080 C.3   156  PRO156      0.0893
     28  N         41.0490    3.7720  110.0750 N.am  157  TYR157     -0.1977
     29  CA        42.0930    3.1250  110.8950 C.3   157  TYR157      0.1639
     30  C         43.4270    3.4280  110.2160 C.2   157  TYR157      0.2290
     31  O         43.4570    3.7320  109.0240 O.2   157  TYR157     -0.2864
     32  CB        41.8610    1.6130  111.1070 C.3   157  TYR157      0.0560
     33  CG        41.5920    0.8000  109.8400 C.ar  157  TYR157     -0.0198
     34  CD1       42.5930    0.0120  109.2590 C.ar  157  TYR157     -0.0009
     35  CD2       40.3310    0.8220  109.2250 C.ar  157  TYR157     -0.0009
     36  CE1       42.3500   -0.7310  108.0810 C.ar  157  TYR157      0.0417
     37  CE2       40.0830    0.1030  108.0620 C.ar  157  TYR157      0.0417
     38  CZ        41.0930   -0.6740  107.4980 C.ar  157  TYR157      0.1957
     39  OH        40.8180   -1.3890  106.3560 O.3   157  TYR157     -0.2866
     40  N         44.5420    1.9090  106.9070 N.3   160  TYR160     -0.1241
     41  CA        43.5680    1.9020  105.8280 C.3   160  TYR160      0.1605
     42  C         44.1130    2.4750  104.5010 C.2   160  TYR160      0.2264
     43  O         44.6770    3.5730  104.4740 O.2   160  TYR160     -0.2867
     44  CB        42.3620    2.6920  106.2590 C.3   160  TYR160      0.0534
     45  CG        41.3970    3.0190  105.1510 C.ar  160  TYR160     -0.0201
     46  CD1       40.6110    2.0180  104.5710 C.ar  160  TYR160     -0.0009
     47  CD2       41.2330    4.3410  104.7120 C.ar  160  TYR160     -0.0009
     48  CE1       39.6750    2.3320  103.5630 C.ar  160  TYR160      0.0417
     49  CE2       40.3080    4.6630  103.7070 C.ar  160  TYR160      0.0417
     50  CZ        39.5530    3.6540  103.1300 C.ar  160  TYR160      0.1957
     51  OH        38.6640    3.9480  102.1310 O.3   160  TYR160     -0.2866
     52  N         42.1120    2.1390  101.3240 N.3   162  GLY162     -0.1225
     53  CA        41.0830    2.1750  100.2920 C.3   162  GLY162      0.1811
     54  C         40.7620    3.5610   99.7320 C.2   162  GLY162      0.2280
     55  O         41.3590    4.5590  100.1460 O.2   162  GLY162     -0.2866
     56  N         32.6760   -7.3750   98.2340 N.3   185  TRP185     -0.1227
     57  CA        33.1520   -6.2600   99.0550 C.3   185  TRP185      0.1737
     58  C         34.1160   -6.6680  100.1780 C.2   185  TRP185      0.2596
     59  O         33.9030   -7.6620  100.9030 O.2   185  TRP185     -0.2718
     60  CB        31.9590   -5.4760   99.6260 C.3   185  TRP185      0.0564
     61  CG        32.3300   -4.2180  100.3650 C.ar  185  TRP185      0.0003
     62  CD1       32.2490   -2.9300   99.8890 C.ar  185  TRP185      0.0946
     63  CD2       32.8290   -4.1170  101.7150 C.ar  185  TRP185      0.0152
     64  NE1       32.6650   -2.0390  100.8620 N.ar  185  TRP185     -0.2442
     65  CE2       33.0290   -2.7390  101.9870 C.ar  185  TRP185      0.0810
     66  CE3       33.1150   -5.0550  102.7230 C.ar  185  TRP185      0.0012
     67  CZ2       33.5070   -2.2790  103.2200 C.ar  185  TRP185      0.0191
     68  CZ3       33.6040   -4.5990  103.9550 C.ar  185  TRP185      0.0001
     69  CH2       33.7960   -3.2190  104.1870 C.ar  185  TRP185      0.0015
     70  N         35.1910   -5.8900  100.2940 N.am  186  GLY186     -0.1942
     71  CA        36.0680   -5.9490  101.4510 C.3   186  GLY186      0.2014
     72  C         37.3710   -6.6750  101.2580 C.2   186  GLY186      0.2639
     73  O         37.4450   -7.6600  100.5080 O.2   186  GLY186     -0.2714
     74  N         38.3930   -6.1510  101.9340 N.am  187  GLY187     -0.1939
     75  CA        39.6750   -6.8240  102.1540 C.3   187  GLY187      0.2014
     76  C         40.7910   -6.5750  101.1630 C.2   187  GLY187      0.2639
     77  O         41.9690   -6.6220  101.5290 O.2   187  GLY187     -0.2714
     78  N         40.4280   -6.3490   99.9010 N.am  188  GLU188     -0.1963
     79  CA        41.4280   -6.2400   98.8450 C.3   188  GLU188      0.1733
     80  C         42.3970   -5.0600   99.0830 C.2   188  GLU188      0.2616
     81  O         43.6050   -5.2140   98.8890 O.2   188  GLU188     -0.2715
     82  CB        40.7580   -6.1970   97.4610 C.3   188  GLU188      0.0429
     83  CG        40.4090   -4.8140   96.9670 C.3   188  GLU188      0.1163
     84  CD        39.2460   -4.1790   97.7050 C.2   188  GLU188      0.3649
     85  OE1       38.9690   -2.9990   97.4180 O.co2 188  GLU188     -0.2457
     86  OE2       38.5940   -4.8410   98.5450 O.co2 188  GLU188     -0.2457
     87  N         41.8830   -3.9170   99.5440 N.am  189  ASP189     -0.1957
     88  CA        42.7460   -2.7800   99.9290 C.3   189  ASP189      0.1840
     89  C         43.7320   -3.0970  101.0780 C.2   189  ASP189      0.2622
     90  O         44.9120   -2.6960  101.0440 O.2   189  ASP189     -0.2715
     91  CB        41.9030   -1.5370  100.2460 C.3   189  ASP189      0.1450
     92  CG        40.7020   -1.8470  101.1690 C.2   189  ASP189      0.3671
     93  OD1       40.3200   -3.0420  101.3140 O.co2 189  ASP189     -0.2456
     94  OD2       40.1490   -0.8850  101.7580 O.co2 189  ASP189     -0.2456
     95  N         43.2790   -3.8610  102.0730 N.am  190  ASP190     -0.1971
     96  CA        44.1620   -4.3050  103.1550 C.3   190  ASP190      0.1709
     97  C         45.2430   -5.2590  102.6230 C.2   190  ASP190      0.2293
     98  O         46.4030   -5.3060  103.0910 O.2   190  ASP190     -0.2864
     99  CB        43.3220   -4.9950  104.2420 C.3   190  ASP190      0.1436
    100  CG        42.3260   -4.0530  104.8880 C.2   190  ASP190      0.3671
    101  OD1       42.6720   -2.8700  105.1030 O.co2 190  ASP190     -0.2456
    102  OD2       41.1940   -4.4820  105.1800 O.co2 190  ASP190     -0.2456
    103  N         37.4060  -13.0210  103.0910 N.3   230  ARG230     -0.1231
    104  CA        38.3100  -11.8560  103.0820 C.3   230  ARG230      0.1694
    105  C         39.3140  -11.7760  104.2440 C.2   230  ARG230      0.2592
    106  O         40.4300  -11.2760  104.0590 O.2   230  ARG230     -0.2718
    107  CB        37.5400  -10.5380  102.9170 C.3   230  ARG230      0.0321
    108  CG        37.0710   -9.8860  104.2080 C.3   230  ARG230      0.0489
    109  CD        35.9780   -8.8560  103.9450 C.3   230  ARG230      0.2205
    110  NE        35.2780   -8.4890  105.1760 N.pl3 230  ARG230     -0.0865
    111  CZ        33.9970   -8.7570  105.4510 C.cat 230  ARG230      0.5346
    112  NH1       33.2150   -9.3940  104.5840 N.pl3 230  ARG230      0.1354
    113  NH2       33.4850   -8.3690  106.6110 N.pl3 230  ARG230      0.1354
    114  N         38.9230  -12.2770  105.4210 N.am  231  PHE231     -0.1976
    115  CA        39.8050  -12.3010  106.5970 C.3   231  PHE231      0.1639
    116  C         40.9560  -13.3120  106.4860 C.2   231  PHE231      0.2290
    117  O         42.1020  -12.9720  106.8370 O.2   231  PHE231     -0.2864
    118  CB        39.0210  -12.4990  107.9070 C.3   231  PHE231      0.0560
    119  CG        37.8860  -11.5290  108.0880 C.ar  231  PHE231     -0.0200
    120  CD1       36.5660  -11.9700  108.0430 C.ar  231  PHE231     -0.0042
    121  CD2       38.1350  -10.1680  108.2790 C.ar  231  PHE231     -0.0042
    122  CE1       35.5060  -11.0670  108.1870 C.ar  231  PHE231     -0.0003
    123  CE2       37.0830   -9.2560  108.4200 C.ar  231  PHE231     -0.0003
    124  CZ        35.7700   -9.7090  108.3790 C.ar  231  PHE231     -0.0000
    125  N         43.6370  -11.8740  103.7210 N.3   234  ILE234     -0.1245
    126  CA        44.5980  -10.8430  104.1700 C.3   234  ILE234      0.1561
    127  C         45.7040  -11.3870  105.0920 C.2   234  ILE234      0.2260
    128  O         46.8230  -10.8600  105.1110 O.2   234  ILE234     -0.2867
    129  CB        43.9110   -9.5710  104.7750 C.3   234  ILE234      0.0252
    130  CG1       43.2030   -9.8880  106.1030 C.3   234  ILE234      0.0019
    131  CG2       42.9510   -8.9410  103.7630 C.3   234  ILE234      0.0019
    132  CD1       42.8610   -8.6780  106.9820 C.3   234  ILE234      0.0001
@<TRIPOS>BOND
     1    83    82    1
     2    83    84    1
     3    85    84   ar
     4    82    79    1
     5    84    86   ar
     6    56    57    1
     7    79    80    1
     8    79    78    1
     9    81    80    2
    10    57    60    1
    11    57    58    1
    12    80    87   am
    13    87    88    1
    14    60    61    1
    15    54    55    2
    16    54    53    1
    17    62    61   ar
    18    62    64   ar
    19    78    76   am
    20    88    91    1
    21    88    89    1
    22    58    70   am
    23    58    59    2
    24    91    92    1
    25    53    52    1
    26    70    71    1
    27    61    63   ar
    28    73    72    2
    29    64    65   ar
    30    90    89    2
    31    89    95   am
    32    76    77    2
    33    76    75    1
    34    92    93   ar
    35    92    94   ar
    36    72    71    1
    37    72    74   am
    38    63    65   ar
    39    63    66   ar
    40     9     8    1
    41    74    75    1
    42    65    67   ar
    43    95    96    1
    44    51    50    1
    45    97    98    2
    46    97    96    1
    47    66    68   ar
    48   107   104    1
    49   107   108    1
    50     8     7    1
    51     7     6    1
    52   104   103    1
    53   104   105    1
    54    50    48   ar
    55    50    49   ar
    56    96    99    1
    57    67    69   ar
    58    48    46   ar
    59    49    47   ar
    60   125   126    1
    61   131   129    1
    62   109   108    1
    63   109   110    1
    64    68    69   ar
    65   106   105    2
    66   126   129    1
    67   126   127    1
    68    99   100    1
    69   105   114   am
    70     6     5    1
    71    43    42    2
    72    42    41    1
    73    46    45   ar
    74   112   111    1
    75     5     2    1
    76    47    45   ar
    77   129   130    1
    78   100   101   ar
    79   100   102   ar
    80    18    20   ar
    81    18    16   ar
    82   127   128    2
    83    45    44    1
    84   110   111    2
    85     1     2    1
    86    20    19   ar
    87   114   115    1
    88   111   113    1
    89     2     3    1
    90    16    15   ar
    91    41    44    1
    92    41    40    1
    93   130   132    1
    94    39    38    1
    95    19    17   ar
    96   116   115    1
    97   116   117    2
    98   115   118    1
    99     3    10   am
   100     3     4    2
   101    15    17   ar
   102    15    14    1
   103    10    11    1
   104    27    26    1
   105    27    21    1
   106    26    25    1
   107    38    37   ar
   108    38    36   ar
   109    14    11    1
   110   118   119    1
   111   120   119   ar
   112   120   122   ar
   113    37    35   ar
   114    36    34   ar
   115   119   121   ar
   116   122   124   ar
   117    11    12    1
   118   121   123   ar
   119   124   123   ar
   120    25    22    1
   121    21    22    1
   122    31    30    2
   123    35    33   ar
   124    12    13    2
   125    34    33   ar
   126    22    23    1
   127    33    32    1
   128    28    23   am
   129    28    29    1
   130    30    29    1
   131    23    24    2
   132    29    32    1
