@<TRIPOS>MOLECULE
tmp/4eehA00.pdb
 117 106 0 0 0
SMALL
GASTEIGER

@<TRIPOS>ATOM
      1  N         64.1710   32.9170   33.9560 N.3    32  LEU32      -0.1245
      2  CA        63.5930   32.4510   32.6810 C.3    32  LEU32       0.1561
      3  C         62.2860   33.1730   32.3540 C.2    32  LEU32       0.2260
      4  O         62.0070   33.4790   31.1920 O.2    32  LEU32      -0.2867
      5  CB        63.4040   30.9230   32.6850 C.3    32  LEU32       0.0270
      6  CG        64.7190   30.1300   32.8490 C.3    32  LEU32       0.0019
      7  CD1       64.4290   28.6200   32.9920 C.3    32  LEU32       0.0001
      8  CD2       65.6770   30.3870   31.6180 C.3    32  LEU32       0.0001
      9  N         63.2030   36.5280   31.0280 N.3    35  ASN35      -0.1225
     10  CA        63.6230   36.4240   29.6310 C.3    35  ASN35       0.1785
     11  C         62.4050   36.3130   28.7170 C.2    35  ASN35       0.2597
     12  O         62.3450   37.0010   27.7050 O.2    35  ASN35      -0.2718
     13  CB        64.5380   35.2300   29.4260 C.3    35  ASN35       0.1169
     14  CG        65.9210   35.4380   29.9980 C.2    35  ASN35       0.2627
     15  OD1       66.2680   36.4980   30.5320 O.2    35  ASN35      -0.2716
     16  ND2       66.7160   34.3900   29.9490 N.am   35  ASN35      -0.0877
     17  N         61.4160   35.4980   29.1190 N.am   36  SER36      -0.1952
     18  CA        60.1920   35.3420   28.3270 C.3    36  SER36       0.1924
     19  C         59.4520   36.6950   28.2590 C.2    36  SER36       0.2314
     20  O         59.0540   37.1240   27.1680 O.2    36  SER36      -0.2863
     21  CB        59.3020   34.2740   28.9570 C.3    36  SER36       0.2116
     22  OG        59.8440   32.9770   28.7480 O.3    36  SER36      -0.2180
     23  N         61.0930   38.9710   25.7380 N.3    39  ALA39      -0.1245
     24  CA        60.8090   38.5350   24.3640 C.3    39  ALA39       0.1562
     25  C         59.3890   38.9290   23.9410 C.2    39  ALA39       0.2260
     26  O         59.1470   39.2680   22.7760 O.2    39  ALA39      -0.2867
     27  CB        60.9950   37.0320   24.2400 C.3    39  ALA39       0.0290
     28  N         59.2750   42.5710   23.0540 N.3    42  LYS42      -0.1245
     29  CA        59.8520   42.8030   21.7180 C.3    42  LYS42       0.1561
     30  C         58.8280   42.6040   20.6120 C.2    42  LYS42       0.2260
     31  O         58.7030   43.4620   19.7410 O.2    42  LYS42      -0.2867
     32  CB        61.0780   41.9070   21.5000 C.3    42  LYS42       0.0271
     33  CG        62.2910   42.3480   22.3250 C.3    42  LYS42       0.0035
     34  CD        63.4580   41.3500   22.1850 C.3    42  LYS42       0.0206
     35  CE        64.5390   41.6470   23.2120 C.3    42  LYS42       0.1093
     36  NZ        65.6280   40.6350   23.1720 N.3    42  LYS42      -0.1314
     37  N         59.1170   26.0110   30.1550 N.3    75  ILE75      -0.1245
     38  CA        58.6450   27.4010   30.1960 C.3    75  ILE75       0.1561
     39  C         58.3800   27.7890   28.7340 C.2    75  ILE75       0.2260
     40  O         59.3210   27.8140   27.9240 O.2    75  ILE75      -0.2867
     41  CB        59.6540   28.3540   30.8920 C.3    75  ILE75       0.0252
     42  CG1       59.9140   27.9380   32.3780 C.3    75  ILE75       0.0019
     43  CG2       59.1410   29.8130   30.8230 C.3    75  ILE75       0.0019
     44  CD1       61.0560   26.9690   32.6100 C.3    75  ILE75       0.0001
     45  N         56.8460   30.5950   25.9360 N.3    77  ASP77      -0.1239
     46  CA        56.3690   31.9560   25.7330 C.3    77  ASP77       0.1674
     47  C         56.0520   32.1600   24.2490 C.2    77  ASP77       0.2266
     48  O         56.5610   31.4290   23.3870 O.2    77  ASP77      -0.2867
     49  CB        57.3790   33.0000   26.2360 C.3    77  ASP77       0.1410
     50  CG        58.6600   33.0880   25.4280 C.2    77  ASP77       0.3668
     51  OD1       58.5860   33.4600   24.2350 O.co2  77  ASP77      -0.2456
     52  OD2       59.7500   32.8060   26.0020 O.co2  77  ASP77      -0.2456
     53  N         59.0270   37.0450   20.7260 N.3    80  ILE80      -0.1231
     54  CA        59.5840   37.2510   19.3770 C.3    80  ILE80       0.1692
     55  C         60.3030   36.0330   18.7900 C.2    80  ILE80       0.2593
     56  O         60.3640   35.9060   17.5600 O.2    80  ILE80      -0.2718
     57  CB        60.4410   38.5500   19.3470 C.3    80  ILE80       0.0266
     58  CG1       60.6770   39.0680   17.9030 C.3    80  ILE80       0.0019
     59  CG2       61.7610   38.3750   20.1200 C.3    80  ILE80       0.0020
     60  CD1       61.0850   40.4810   17.8360 C.3    80  ILE80       0.0001
     61  N         60.8260   35.1670   19.6610 N.am   81  GLY81      -0.1942
     62  CA        61.5640   33.9820   19.2400 C.3    81  GLY81       0.2014
     63  C         62.9750   34.3580   18.8400 C.2    81  GLY81       0.2638
     64  O         63.3270   35.5430   18.7380 O.2    81  GLY81      -0.2714
     65  N         63.7710   33.3500   18.5830 N.am   82  MET82      -0.1976
     66  CA        65.1610   33.5440   18.1900 C.3    82  MET82       0.1605
     67  C         65.4110   32.9410   16.8240 C.2    82  MET82       0.2287
     68  O         64.8690   31.8790   16.4740 O.2    82  MET82      -0.2864
     69  CB        66.0980   32.8630   19.2200 C.3    82  MET82       0.0413
     70  CG        66.2070   33.6380   20.5250 C.3    82  MET82       0.0598
     71  SD        67.1620   32.7590   21.7820 S.3    82  MET82      -0.1393
     72  CE        65.9280   31.5640   22.3850 C.3    82  MET82       0.0692
     73  N         70.7120   33.9510   16.4340 N.3    86  ASP86      -0.1239
     74  CA        70.5390   34.3190   17.8460 C.3    86  ASP86       0.1674
     75  C         70.8910   33.1320   18.7400 C.2    86  ASP86       0.2266
     76  O         71.5930   33.3010   19.7410 O.2    86  ASP86      -0.2867
     77  CB        69.0960   34.7420   18.1460 C.3    86  ASP86       0.1410
     78  CG        68.6310   36.0430   17.5330 C.2    86  ASP86       0.3668
     79  OD1       69.4640   36.9680   17.3890 O.co2  86  ASP86      -0.2456
     80  OD2       67.4190   36.1600   17.2530 O.co2  86  ASP86      -0.2456
     81  N         72.1270   32.5460   22.7100 N.3    91  LEU91      -0.1231
     82  CA        70.6960   32.7710   22.9240 C.3    91  LEU91       0.1693
     83  C         70.3140   34.2540   22.9960 C.2    91  LEU91       0.2592
     84  O         69.6060   34.6920   23.9190 O.2    91  LEU91      -0.2718
     85  CB        70.1950   31.9700   24.1280 C.3    91  LEU91       0.0284
     86  CG        70.5050   30.4540   23.9810 C.3    91  LEU91       0.0019
     87  CD1       71.6340   30.0360   24.8940 C.3    91  LEU91       0.0001
     88  CD2       69.2830   29.6180   24.0770 C.3    91  LEU91       0.0001
     89  N         70.8300   35.0020   22.0290 N.am   92  GLY92      -0.1957
     90  CA        70.5440   36.4300   21.8570 C.3    92  GLY92       0.1869
     91  C         71.0490   37.3520   22.9430 C.2    92  GLY92       0.2309
     92  O         70.4950   38.4480   23.1310 O.2    92  GLY92      -0.2863
     93  N         69.6690   33.3160   31.5780 N.3   122  PHE122     -0.1241
     94  CA        69.3230   32.0150   30.9940 C.3   122  PHE122      0.1605
     95  C         70.1450   30.8850   31.6290 C.2   122  PHE122      0.2264
     96  O         69.5970   29.8160   31.9320 O.2   122  PHE122     -0.2867
     97  CB        69.5820   32.0180   29.4680 C.3   122  PHE122      0.0534
     98  CG        69.5150   30.6290   28.8680 C.ar  122  PHE122     -0.0203
     99  CD1       68.2870   30.0080   28.6460 C.ar  122  PHE122     -0.0042
    100  CD2       70.6800   29.9280   28.5600 C.ar  122  PHE122     -0.0042
    101  CE1       68.2180   28.7020   28.1430 C.ar  122  PHE122     -0.0003
    102  CE2       70.6160   28.6210   28.0430 C.ar  122  PHE122     -0.0003
    103  CZ        69.3900   28.0160   27.8310 C.ar  122  PHE122     -0.0000
    104  N         59.3170   30.8580   22.1880 N.3   168  THR168     -0.1218
    105  CA        60.4010   29.9970   22.6880 C.3   168  THR168      0.1862
    106  C         59.8850   29.0550   23.7510 C.2   168  THR168      0.2287
    107  O         59.0610   29.4610   24.5990 O.2   168  THR168     -0.2866
    108  CB        61.5260   30.9060   23.2090 C.3   168  THR168      0.1770
    109  OG1       61.9810   31.7230   22.1290 O.3   168  THR168     -0.2211
    110  CG2       62.7090   30.1350   23.8460 C.3   168  THR168      0.0375
    111  N         61.5330   26.5550   26.7070 N.3   170  VAL170     -0.1245
    112  CA        62.7660   26.1420   27.4000 C.3   170  VAL170      0.1561
    113  C         62.3940   24.8920   28.1880 C.2   170  VAL170      0.2260
    114  O         61.5560   24.9750   29.0820 O.2   170  VAL170     -0.2867
    115  CB        63.3460   27.2310   28.3320 C.3   170  VAL170      0.0252
    116  CG1       64.5170   26.6780   29.1380 C.3   170  VAL170      0.0019
    117  CG2       63.7560   28.4680   27.5320 C.3   170  VAL170      0.0019
@<TRIPOS>BOND
     1    73    74    1
     2    68    67    2
     3    67    66    1
     4    80    78   ar
     5    79    78   ar
     6    78    77    1
     7    56    55    2
     8    60    58    1
     9    74    77    1
    10    74    75    1
    11    58    57    1
    12    66    65    1
    13    66    69    1
    14    65    63   am
    15    64    63    2
    16    75    76    2
    17    55    54    1
    18    55    61   am
    19    63    62    1
    20    69    70    1
    21    62    61    1
    22    57    54    1
    23    57    59    1
    24    54    53    1
    25    31    30    2
    26    70    71    1
    27    30    29    1
    28    32    29    1
    29    32    33    1
    30    29    28    1
    31    71    72    1
    32    90    89    1
    33    90    91    1
    34    89    83   am
    35   109   108    1
    36    34    33    1
    37    34    35    1
    38   104   105    1
    39   105   108    1
    40   105   106    1
    41    81    82    1
    42    26    25    2
    43    82    83    1
    44    82    85    1
    45    91    92    2
    46    83    84    2
    47    36    35    1
    48   108   110    1
    49    48    47    2
    50   106   107    2
    51    25    24    1
    52    86    88    1
    53    86    85    1
    54    86    87    1
    55    51    50   ar
    56    27    24    1
    57    47    46    1
    58    24    23    1
    59    50    52   ar
    60    50    49    1
    61    46    45    1
    62    46    49    1
    63   111   112    1
    64    20    19    2
    65   112   113    1
    66   112   115    1
    67   117   115    1
    68    12    11    2
    69   103   102   ar
    70   103   101   ar
    71    40    39    2
    72   102   100   ar
    73   101    99   ar
    74   113   114    2
    75    19    18    1
    76    18    21    1
    77    18    17    1
    78   115   116    1
    79   100    98   ar
    80    99    98   ar
    81    11    17   am
    82    11    10    1
    83    39    38    1
    84    22    21    1
    85    98    97    1
    86    13    10    1
    87    13    14    1
    88    97    94    1
    89    10     9    1
    90    16    14   am
    91    14    15    2
    92    37    38    1
    93    38    41    1
    94    43    41    1
    95    41    42    1
    96    94    93    1
    97    94    95    1
    98     4     3    2
    99     8     6    1
   100    95    96    2
   101     3     2    1
   102    42    44    1
   103     2     5    1
   104     2     1    1
   105     5     6    1
   106     6     7    1
