@<TRIPOS>MOLECULE
tmp/4eeiB00.pdb
 114 106 0 0 0
SMALL
GASTEIGER

@<TRIPOS>ATOM
      1  N         41.6560   -7.8350  118.6450 N.3    62  GLU62      -0.1245
      2  CA        40.6570   -7.5040  119.6580 C.3    62  GLU62       0.1567
      3  C         39.7340   -8.6870  119.9670 C.2    62  GLU62       0.2260
      4  O         39.2090   -8.8010  121.0780 O.2    62  GLU62      -0.2867
      5  CB        39.8400   -6.2690  119.2570 C.3    62  GLU62       0.0388
      6  CG        38.8870   -5.8010  120.3530 C.3    62  GLU62       0.1160
      7  CD        38.3000   -4.4190  120.1010 C.2    62  GLU62       0.3649
      8  OE1       38.7200   -3.7470  119.1320 O.co2  62  GLU62      -0.2457
      9  OE2       37.4190   -4.0080  120.8890 O.co2  62  GLU62      -0.2457
     10  N         39.8110   -8.7870  123.9820 N.3    66  LYS66      -0.1231
     11  CA        38.5930   -8.1820  124.5450 C.3    66  LYS66       0.1693
     12  C         38.8590   -6.7550  125.0170 C.2    66  LYS66       0.2592
     13  O         38.1240   -6.2170  125.8540 O.2    66  LYS66      -0.2718
     14  CB        38.0310   -8.9980  125.7130 C.3    66  LYS66       0.0285
     15  CG        37.9170  -10.4840  125.4500 C.3    66  LYS66       0.0035
     16  CD        36.8840  -10.7550  124.3810 C.3    66  LYS66       0.0206
     17  CE        36.6870  -12.2480  124.1730 C.3    66  LYS66       0.1093
     18  NZ        35.4270  -12.5180  123.4250 N.3    66  LYS66      -0.1314
     19  N         39.9100   -6.1460  124.4750 N.am   67  HIS67      -0.1962
     20  CA        40.3540   -4.8370  124.9310 C.3    67  HIS67       0.1787
     21  C         40.9400   -4.0930  123.7470 C.2    67  HIS67       0.2620
     22  O         41.9920   -4.4740  123.2370 O.2    67  HIS67      -0.2715
     23  CB        41.4100   -5.0010  126.0260 C.3    67  HIS67       0.0785
     24  CG        41.7110   -3.7370  126.7720 C.ar   67  HIS67       0.0821
     25  ND1       42.0980   -2.5730  126.1420 N.ar   67  HIS67      -0.2267
     26  CD2       41.6830   -3.4550  128.0970 C.ar   67  HIS67       0.1154
     27  CE1       42.2950   -1.6290  127.0450 C.ar   67  HIS67       0.1986
     28  NE2       42.0480   -2.1380  128.2400 N.ar   67  HIS67      -0.2212
     29  N         40.2680   -3.0340  123.3110 N.am   68  ASP68      -0.1971
     30  CA        40.6490   -2.3710  122.0600 C.3    68  ASP68       0.1709
     31  C         42.0210   -1.6700  122.0680 C.2    68  ASP68       0.2293
     32  O         42.7150   -1.6560  121.0450 O.2    68  ASP68      -0.2864
     33  CB        39.5300   -1.4480  121.5390 C.3    68  ASP68       0.1436
     34  CG        39.1170   -0.3690  122.5410 C.2    68  ASP68       0.3671
     35  OD1       39.2800   -0.5620  123.7700 O.co2  68  ASP68      -0.2456
     36  OD2       38.6050    0.6800  122.0820 O.co2  68  ASP68      -0.2456
     37  N         47.7810    5.2290  131.2750 N.3    93  THR93      -0.1203
     38  CA        46.6330    4.3330  131.3220 C.3    93  THR93       0.1994
     39  C         45.9720    4.3910  129.9360 C.2    93  THR93       0.2619
     40  O         46.1920    5.3600  129.1960 O.2    93  THR93      -0.2717
     41  CB        45.6540    4.7560  132.4510 C.3    93  THR93       0.1784
     42  OG1       44.6840    3.7270  132.6700 O.3    93  THR93      -0.2211
     43  CG2       44.9500    6.0530  132.0930 C.3    93  THR93       0.0376
     44  N         45.2040    3.3670  129.5510 N.am   94  SER94      -0.1937
     45  CA        44.5620    3.3800  128.2290 C.3    94  SER94       0.2055
     46  C         43.8210    4.6880  127.9470 C.2    94  SER94       0.2643
     47  O         43.9110    5.2320  126.8500 O.2    94  SER94      -0.2714
     48  CB        43.6050    2.1920  128.0450 C.3    94  SER94       0.2130
     49  OG        44.2850    0.9590  128.1560 O.3    94  SER94      -0.2179
     50  N         43.1070    5.2130  128.9360 N.am   95  SER95      -0.1949
     51  CA        42.3020    6.4010  128.6740 C.3    95  SER95       0.1924
     52  C         43.0990    7.7080  128.5890 C.2    95  SER95       0.2314
     53  O         42.5680    8.7150  128.1300 O.2    95  SER95      -0.2863
     54  CB        41.1360    6.5120  129.6620 C.3    95  SER95       0.2116
     55  OG        40.0980    5.6260  129.2960 O.3    95  SER95      -0.2180
     56  N         43.1730    7.3150  124.8710 N.3    98  ILE98      -0.1245
     57  CA        41.8530    7.4160  124.2370 C.3    98  ILE98       0.1561
     58  C         41.2920    8.8280  124.3160 C.2    98  ILE98       0.2260
     59  O         40.8460    9.3820  123.3120 O.2    98  ILE98      -0.2867
     60  CB        40.8300    6.4800  124.9040 C.3    98  ILE98       0.0252
     61  CG1       41.2500    5.0240  124.7550 C.3    98  ILE98       0.0019
     62  CG2       39.4400    6.6940  124.3160 C.3    98  ILE98       0.0019
     63  CD1       40.4690    4.0700  125.6540 C.3    98  ILE98       0.0001
     64  N         41.2330    8.6970  135.8310 N.3   212  GLN212     -0.1245
     65  CA        41.6160    7.8260  134.7400 C.3   212  GLN212      0.1566
     66  C         41.2620    8.5650  133.4560 C.2   212  GLN212      0.2260
     67  O         41.9590    8.4580  132.4500 O.2   212  GLN212     -0.2867
     68  CB        40.8850    6.4870  134.8110 C.3   212  GLN212      0.0367
     69  CG        41.3000    5.5120  133.7210 C.3   212  GLN212      0.0905
     70  CD        41.0480    4.0670  134.0990 C.2   212  GLN212      0.2608
     71  OE1       40.0810    3.4570  133.6490 O.2   212  GLN212     -0.2717
     72  NE2       41.9220    3.5110  134.9300 N.am  212  GLN212     -0.0878
     73  N         36.7980    6.4220  137.3420 N.3   289  ARG289     -0.1245
     74  CA        36.0980    6.2420  136.0720 C.3   289  ARG289      0.1563
     75  C         35.1590    5.0370  136.0260 C.2   289  ARG289      0.2260
     76  O         35.2920    4.0940  136.8030 O.2   289  ARG289     -0.2867
     77  CB        37.0880    6.1970  134.9020 C.3   289  ARG289      0.0307
     78  CG        37.6840    4.8270  134.6310 C.3   289  ARG289      0.0489
     79  CD        36.7940    4.0010  133.7170 C.3   289  ARG289      0.2205
     80  NE        36.4740    4.6950  132.4730 N.pl3 289  ARG289     -0.0865
     81  CZ        37.3210    4.8440  131.4600 C.cat 289  ARG289      0.5346
     82  NH1       38.5480    4.3490  131.5400 N.pl3 289  ARG289      0.1354
     83  NH2       36.9420    5.4890  130.3660 N.pl3 289  ARG289      0.1354
     84  N         33.2000    2.9910  132.3800 N.3   291  ILE291     -0.1245
     85  CA        33.2540    3.0940  130.9270 C.3   291  ILE291      0.1561
     86  C         31.8980    3.2020  130.2270 C.2   291  ILE291      0.2260
     87  O         31.8160    3.0430  129.0130 O.2   291  ILE291     -0.2867
     88  CB        34.0650    1.9340  130.3130 C.3   291  ILE291      0.0252
     89  CG1       34.6990    2.3680  128.9910 C.3   291  ILE291      0.0019
     90  CG2       33.1890    0.7060  130.1210 C.3   291  ILE291      0.0019
     91  CD1       36.1260    1.8990  128.8170 C.3   291  ILE291      0.0001
     92  N         31.4860    5.3700  127.0810 N.3   294  SER294     -0.1202
     93  CA        32.2060    5.0080  125.8600 C.3   294  SER294      0.2020
     94  C         31.2790    4.5550  124.7300 C.2   294  SER294      0.2619
     95  O         31.3060    5.1220  123.6350 O.2   294  SER294     -0.2717
     96  CB        33.2630    3.9370  126.1610 C.3   294  SER294      0.2103
     97  OG        33.8740    3.5000  124.9640 O.3   294  SER294     -0.2182
     98  N         30.4640    3.5330  124.9820 N.am  295  SER295     -0.1951
     99  CA        29.5390    3.0530  123.9420 C.3   295  SER295      0.1924
    100  C         28.6330    4.1840  123.4650 C.2   295  SER295      0.2314
    101  O         28.4000    4.3500  122.2660 O.2   295  SER295     -0.2863
    102  CB        28.6810    1.9110  124.4720 C.3   295  SER295      0.2116
    103  OG        28.0140    2.3040  125.6590 O.3   295  SER295     -0.2180
    104  N         30.4750    6.5430  121.1540 N.3   298  ARG298     -0.1245
    105  CA        30.7490    5.9560  119.8380 C.3   298  ARG298      0.1563
    106  C         29.5890    6.1440  118.8720 C.2   298  ARG298      0.2260
    107  O         29.7900    6.2010  117.6680 O.2   298  ARG298     -0.2867
    108  CB        31.0360    4.4550  119.9630 C.3   298  ARG298      0.0307
    109  CG        32.3260    4.0810  120.7010 C.3   298  ARG298      0.0489
    110  CD        32.4910    2.5600  120.6710 C.3   298  ARG298      0.2205
    111  NE        33.4820    2.0750  121.6250 N.pl3 298  ARG298     -0.0865
    112  CZ        34.7680    1.8790  121.3480 C.cat 298  ARG298      0.5346
    113  NH1       35.2420    2.1260  120.1340 N.pl3 298  ARG298      0.1354
    114  NH2       35.5830    1.4280  122.2940 N.pl3 298  ARG298      0.1354
@<TRIPOS>BOND
     1   107   106    2
     2     1     2    1
     3   106   105    1
     4     8     7   ar
     5     5     2    1
     6     5     6    1
     7     2     3    1
     8   105   108    1
     9   105   104    1
    10   108   109    1
    11     3     4    2
    12     7     6    1
    13     7     9   ar
    14   113   112    1
    15   110   109    1
    16   110   111    1
    17    32    31    2
    18   112   111    2
    19   112   114    1
    20    33    30    1
    21    33    34    1
    22    30    31    1
    23    30    29    1
    24    36    34   ar
    25   101   100    2
    26    34    35   ar
    27    22    21    2
    28    29    21   am
    29    59    58    2
    30    18    17    1
    31   100    99    1
    32    95    94    2
    33    21    20    1
    34    99   102    1
    35    99    98    1
    36    10    11    1
    37    17    16    1
    38    57    58    1
    39    57    56    1
    40    57    60    1
    41    62    60    1
    42    16    15    1
    43   102   103    1
    44    19    20    1
    45    19    12   am
    46    11    12    1
    47    11    14    1
    48    94    98   am
    49    94    93    1
    50    61    60    1
    51    61    63    1
    52    20    23    1
    53    97    96    1
    54    12    13    2
    55    15    14    1
    56    93    96    1
    57    93    92    1
    58    23    24    1
    59    25    24   ar
    60    25    27   ar
    61    24    26   ar
    62    47    46    2
    63    27    28   ar
    64    46    45    1
    65    46    50   am
    66    48    49    1
    67    48    45    1
    68    26    28   ar
    69    53    52    2
    70    45    44    1
    71    52    51    1
    72    51    50    1
    73    51    54    1
    74    91    89    1
    75    89    88    1
    76    87    86    2
    77    40    39    2
    78    55    54    1
    79    44    39   am
    80    39    38    1
    81    90    88    1
    82    86    85    1
    83    88    85    1
    84    83    81    1
    85    85    84    1
    86    37    38    1
    87    38    41    1
    88    81    82    1
    89    81    80    2
    90    43    41    1
    91    67    66    2
    92    41    42    1
    93    80    79    1
    94    66    65    1
    95    71    70    2
    96    79    78    1
    97    69    70    1
    98    69    68    1
    99    70    72   am
   100    78    77    1
   101    65    68    1
   102    65    64    1
   103    77    74    1
   104    75    74    1
   105    75    76    2
   106    74    73    1
