@<TRIPOS>MOLECULE
tmp/4eelA00.pdb
 107 100 0 0 0
SMALL
GASTEIGER

@<TRIPOS>ATOM
      1  N        -17.0720   13.5950    4.2980 N.3    10  ASP10      -0.1225
      2  CA       -18.3520   12.9750    4.5230 C.3    10  ASP10       0.1805
      3  C        -19.2280   13.8730    5.4130 C.2    10  ASP10       0.2598
      4  O        -18.7110   14.6990    6.1680 O.2    10  ASP10      -0.2718
      5  CB       -18.0680   11.6290    5.2120 C.3    10  ASP10       0.1424
      6  CG       -19.3060   10.9180    5.5910 C.2    10  ASP10       0.3668
      7  OD1      -20.2510   10.8580    4.7690 O.co2  10  ASP10      -0.2456
      8  OD2      -19.3220   10.4450    6.7430 O.co2  10  ASP10      -0.2456
      9  N        -20.5470   13.7100    5.3620 N.am   11  LEU11      -0.1966
     10  CA       -21.4350   14.4810    6.2400 C.3    11  LEU11       0.1728
     11  C        -21.7160   13.7710    7.5570 C.2    11  LEU11       0.2616
     12  O        -21.2630   14.2340    8.6240 O.2    11  LEU11      -0.2715
     13  CB       -22.7450   14.7900    5.5290 C.3    11  LEU11       0.0311
     14  CG       -23.8220   15.5530    6.3320 C.3    11  LEU11       0.0022
     15  CD1      -23.3830   16.9870    6.5320 C.3    11  LEU11       0.0001
     16  CD2      -25.1910   15.5190    5.5780 C.3    11  LEU11       0.0001
     17  N        -22.4590   12.6620    7.4950 N.am   12  ASP12      -0.1971
     18  CA       -22.9250   11.9940    8.7140 C.3    12  ASP12       0.1709
     19  C        -21.8480   11.3190    9.4950 C.2    12  ASP12       0.2293
     20  O        -21.1030   10.5000    8.9700 O.2    12  ASP12      -0.2864
     21  CB       -24.0320   10.9910    8.4350 C.3    12  ASP12       0.1436
     22  CG       -25.3630   11.5710    8.7080 C.2    12  ASP12       0.3671
     23  OD1      -25.8670   11.4260    9.8530 O.co2  12  ASP12      -0.2456
     24  OD2      -25.8580   12.2450    7.8060 O.co2  12  ASP12      -0.2456
     25  N        -28.8460    0.5190   11.6230 N.3    47  THR47      -0.1203
     26  CA       -28.4310    1.6230   10.7530 C.3    47  THR47       0.1994
     27  C        -28.2820    1.2040    9.3000 C.2    47  THR47       0.2618
     28  O        -27.6190    0.2000    8.9880 O.2    47  THR47      -0.2717
     29  CB       -27.1210    2.2210   11.2180 C.3    47  THR47       0.1784
     30  OG1      -27.2810    2.7290   12.5580 O.3    47  THR47      -0.2211
     31  CG2      -26.7220    3.3650   10.2860 C.3    47  THR47       0.0376
     32  N        -28.8990    1.9860    8.4180 N.am   48  GLY48      -0.1956
     33  CA       -28.7970    1.7620    6.9810 C.3    48  GLY48       0.1869
     34  C        -29.4290    0.4510    6.5940 C.2    48  GLY48       0.2309
     35  O        -29.2670   -0.0240    5.4710 O.2    48  GLY48      -0.2863
     36  N        -22.2360   13.2200    0.3730 N.3   109  SER109     -0.1202
     37  CA       -23.0870   12.4050    1.2490 C.3   109  SER109      0.2020
     38  C        -24.0370   11.5660    0.4220 C.2   109  SER109      0.2619
     39  O        -24.5160   11.9990   -0.6250 O.2   109  SER109     -0.2717
     40  CB       -23.9490   13.3110    2.1260 C.3   109  SER109      0.2103
     41  OG       -24.8620   12.5910    2.9790 O.3   109  SER109     -0.2182
     42  N        -24.3880   10.3900    0.9300 N.am  110  ASN110     -0.1960
     43  CA       -25.4250    9.6160    0.2720 C.3   110  ASN110      0.1819
     44  C        -26.8590   10.0990    0.5980 C.2   110  ASN110      0.2622
     45  O        -27.8510    9.6030    0.0320 O.2   110  ASN110     -0.2715
     46  CB       -25.2610    8.1160    0.6160 C.3   110  ASN110      0.1195
     47  CG       -24.3530    7.3840   -0.3300 C.2   110  ASN110      0.2630
     48  OD1      -23.7560    7.9700   -1.2090 O.2   110  ASN110     -0.2716
     49  ND2      -24.2130    6.0600   -0.1150 N.am  110  ASN110     -0.0877
     50  N        -27.0030   11.0100    1.5520 N.am  111  SER111     -0.1950
     51  CA       -28.3390   11.5160    1.8980 C.3   111  SER111      0.1924
     52  C        -29.0330   12.1170    0.7000 C.2   111  SER111      0.2314
     53  O        -28.3720   12.7680   -0.1110 O.2   111  SER111     -0.2863
     54  CB       -28.2310   12.6390    2.9420 C.3   111  SER111      0.2116
     55  OG       -27.8250   12.1020    4.1890 O.3   111  SER111     -0.2180
     56  N        -29.9070   18.6950    7.4610 N.3   119  LYS119     -0.1245
     57  CA       -28.9660   18.3870    8.5420 C.3   119  LYS119      0.1561
     58  C        -27.9340   19.4940    8.7320 C.2   119  LYS119      0.2260
     59  O        -27.6170   19.8640    9.8630 O.2   119  LYS119     -0.2867
     60  CB       -28.2790   17.0250    8.3080 C.3   119  LYS119      0.0271
     61  CG       -29.2630   15.8720    8.5640 C.3   119  LYS119      0.0035
     62  CD       -28.5840   14.5260    8.5270 C.3   119  LYS119      0.0206
     63  CE       -28.4890   13.9940    7.1380 C.3   119  LYS119      0.1093
     64  NZ       -28.2400   12.5070    7.1620 N.3   119  LYS119     -0.1314
     65  N        -22.0070    6.4970   -2.7870 N.3   144  LYS144     -0.1245
     66  CA       -20.9730    5.6840   -2.1730 C.3   144  LYS144      0.1561
     67  C        -21.5320    4.2610   -1.9890 C.2   144  LYS144      0.2260
     68  O        -22.7110    4.0780   -1.7060 O.2   144  LYS144     -0.2867
     69  CB       -20.5730    6.2730   -0.8090 C.3   144  LYS144      0.0271
     70  CG       -20.2140    7.7390   -0.9040 C.3   144  LYS144      0.0035
     71  CD       -20.0690    8.2730    0.5300 C.3   144  LYS144      0.0206
     72  CE       -20.0910    9.7670    0.5720 C.3   144  LYS144      0.1093
     73  NZ       -19.9780   10.1350    2.0230 N.3   144  LYS144     -0.1314
     74  N        -13.5940   10.2650    6.3200 N.3   168  GLU168     -0.1231
     75  CA       -14.7600    9.3770    6.3960 C.3   168  GLU168      0.1699
     76  C        -14.8330    8.5980    7.7140 C.2   168  GLU168      0.2592
     77  O        -13.7970    8.3610    8.3250 O.2   168  GLU168     -0.2718
     78  CB       -14.6960    8.3970    5.2080 C.3   168  GLU168      0.0402
     79  CG       -15.3310    9.0510    3.9540 C.3   168  GLU168      0.1161
     80  CD       -16.8550    8.9210    3.9800 C.2   168  GLU168      0.3649
     81  OE1      -17.4390    8.4590    5.0220 O.co2 168  GLU168     -0.2457
     82  OE2      -17.5180    9.2500    2.9650 O.co2 168  GLU168     -0.2457
     83  N        -16.0320    8.1440    8.0830 N.am  169  ASP169     -0.1960
     84  CA       -16.2210    7.3320    9.3100 C.3   169  ASP169      0.1840
     85  C        -16.8250    5.9680    9.0200 C.2   169  ASP169      0.2622
     86  O        -17.2820    5.2990    9.9430 O.2   169  ASP169     -0.2715
     87  CB       -17.1200    8.0340   10.3460 C.3   169  ASP169      0.1450
     88  CG       -18.5990    7.9890   10.0010 C.2   169  ASP169      0.3671
     89  OD1      -18.9620    7.9040    8.7860 O.co2 169  ASP169     -0.2456
     90  OD2      -19.4680    8.0370   10.9470 O.co2 169  ASP169     -0.2456
     91  N        -16.8360    5.5560    7.7510 N.am  170  SER170     -0.1950
     92  CA       -17.3900    4.2450    7.3720 C.3   170  SER170      0.1924
     93  C        -16.5870    3.6210    6.2490 C.2   170  SER170      0.2314
     94  O        -15.8880    4.3090    5.4940 O.2   170  SER170     -0.2863
     95  CB       -18.8430    4.3800    6.9040 C.3   170  SER170      0.2116
     96  OG       -18.9030    5.1040    5.6480 O.3   170  SER170     -0.2180
     97  N        -18.1190    2.1440    3.7540 N.3   172  THR172     -0.1203
     98  CA       -18.9030    2.5780    2.5860 C.3   172  THR172      0.1994
     99  C        -18.3410    3.8760    2.0060 C.2   172  THR172      0.2618
    100  O        -17.9960    3.9500    0.8080 O.2   172  THR172     -0.2717
    101  CB       -20.3790    2.7740    2.8870 C.3   172  THR172      0.1784
    102  OG1      -20.9520    1.5170    3.2550 O.3   172  THR172     -0.2211
    103  CG2      -21.1030    3.2390    1.6240 C.3   172  THR172      0.0376
    104  N        -18.2030    4.8890    2.8670 N.am  173  GLY173     -0.1956
    105  CA       -17.6610    6.1800    2.4010 C.3   173  GLY173      0.1869
    106  C        -16.1740    6.1650    2.1250 C.2   173  GLY173      0.2309
    107  O        -15.7010    6.7560    1.1580 O.2   173  GLY173     -0.2863
@<TRIPOS>BOND
     1    65    66    1
     2    66    67    1
     3    66    69    1
     4    67    68    2
     5    48    47    2
     6    70    69    1
     7    70    71    1
     8    39    38    2
     9    47    49   am
    10    47    46    1
    11    53    52    2
    12    45    44    2
    13    43    44    1
    14    43    46    1
    15    43    42    1
    16    36    37    1
    17    38    42   am
    18    38    37    1
    19    71    72    1
    20    72    73    1
    21    44    50   am
    22    52    51    1
    23   100    99    2
    24   107   106    2
    25    37    40    1
    26    50    51    1
    27   103   101    1
    28    51    54    1
    29    99    98    1
    30    99   104   am
    31   106   105    1
    32    40    41    1
    33   105   104    1
    34    98   101    1
    35    98    97    1
    36   101   102    1
    37    54    55    1
    38    82    80   ar
    39    79    80    1
    40    79    78    1
    41    80    81   ar
    42     1     2    1
    43     2     5    1
    44     2     3    1
    45     7     6   ar
    46    78    75    1
    47     5     6    1
    48     9     3   am
    49     9    10    1
    50     3     4    2
    51    35    34    2
    52    94    93    2
    53    13    10    1
    54    13    14    1
    55    16    14    1
    56     6     8   ar
    57    96    95    1
    58    10    11    1
    59    93    92    1
    60    74    75    1
    61    14    15    1
    62    75    76    1
    63    34    33    1
    64    95    92    1
    65    33    32    1
    66    63    64    1
    67    63    62    1
    68    92    91    1
    69    56    57    1
    70    17    11   am
    71    17    18    1
    72    11    12    2
    73    76    83   am
    74    76    77    2
    75    91    85   am
    76    24    22   ar
    77    83    84    1
    78    60    57    1
    79    60    61    1
    80    32    27   am
    81    21    22    1
    82    21    18    1
    83    62    61    1
    84    57    58    1
    85    22    23   ar
    86    18    19    1
    87    58    59    2
    88    89    88   ar
    89    20    19    2
    90    28    27    2
    91    85    84    1
    92    85    86    2
    93    27    26    1
    94    84    87    1
    95    88    87    1
    96    88    90   ar
    97    31    29    1
    98    26    29    1
    99    26    25    1
   100    29    30    1
