@<TRIPOS>MOLECULE
tmp/4eemC00.pdb
 132 132 0 0 0
SMALL
GASTEIGER

@<TRIPOS>ATOM
      1  N         32.4640   10.6080  105.1200 N.3   150  LYS150     -0.1231
      2  CA        31.8290    9.3590  105.5440 C.3   150  LYS150      0.1693
      3  C         32.5190    8.7070  106.7210 C.2   150  LYS150      0.2592
      4  O         31.8790    7.9460  107.4390 O.2   150  LYS150     -0.2718
      5  CB        31.5680    8.3960  104.3610 C.3   150  LYS150      0.0285
      6  CG        32.5530    7.2490  104.1570 C.3   150  LYS150      0.0035
      7  CD        31.9580    6.1920  103.2040 C.3   150  LYS150      0.0206
      8  CE        32.9260    5.0330  102.9770 C.3   150  LYS150      0.1093
      9  NZ        32.8160    4.3760  101.6350 N.3   150  LYS150     -0.1314
     10  N         33.8010    8.9980  106.9510 N.am  151  PHE151     -0.1976
     11  CA        34.4760    8.4550  108.1370 C.3   151  PHE151      0.1639
     12  C         34.7160    9.5270  109.2100 C.2   151  PHE151      0.2290
     13  O         35.6420    9.4190  110.0200 O.2   151  PHE151     -0.2864
     14  CB        35.7890    7.7380  107.7830 C.3   151  PHE151      0.0560
     15  CG        35.6190    6.5190  106.9130 C.ar  151  PHE151     -0.0200
     16  CD1       36.4590    6.3170  105.8110 C.ar  151  PHE151     -0.0042
     17  CD2       34.6540    5.5460  107.2090 C.ar  151  PHE151     -0.0042
     18  CE1       36.3280    5.1810  104.9900 C.ar  151  PHE151     -0.0003
     19  CE2       34.5010    4.4140  106.3960 C.ar  151  PHE151     -0.0003
     20  CZ        35.3450    4.2130  105.2890 C.ar  151  PHE151     -0.0000
     21  N         39.7040    5.8640  108.9130 N.3   156  PRO156     -0.2102
     22  CA        38.9810    4.9190  109.7790 C.3   156  PRO156      0.1504
     23  C         39.9210    4.0940  110.6220 C.2   156  PRO156      0.2575
     24  O         39.5360    3.6110  111.6690 O.2   156  PRO156     -0.2718
     25  CB        38.2310    4.0080  108.7930 C.3   156  PRO156      0.0282
     26  CG        38.9750    4.1310  107.4990 C.3   156  PRO156      0.0208
     27  CD        39.5810    5.5270  107.4840 C.3   156  PRO156      0.0893
     28  N         41.1340    3.8630  110.1440 N.am  157  TYR157     -0.1977
     29  CA        42.1750    3.2270  110.9510 C.3   157  TYR157      0.1639
     30  C         43.4790    3.5630  110.2330 C.2   157  TYR157      0.2290
     31  O         43.4720    3.9230  109.0490 O.2   157  TYR157     -0.2864
     32  CB        41.9580    1.7100  111.1500 C.3   157  TYR157      0.0560
     33  CG        41.6780    0.9310  109.8730 C.ar  157  TYR157     -0.0198
     34  CD1       42.6950    0.2200  109.2080 C.ar  157  TYR157     -0.0009
     35  CD2       40.3930    0.9190  109.3180 C.ar  157  TYR157     -0.0009
     36  CE1       42.4220   -0.4830  108.0240 C.ar  157  TYR157      0.0417
     37  CE2       40.1160    0.2440  108.1420 C.ar  157  TYR157      0.0417
     38  CZ        41.1240   -0.4610  107.5020 C.ar  157  TYR157      0.1957
     39  OH        40.7970   -1.1230  106.3470 O.3   157  TYR157     -0.2866
     40  N         44.5290    1.9510  106.8880 N.3   160  TYR160     -0.1241
     41  CA        43.5530    1.9970  105.8050 C.3   160  TYR160      0.1605
     42  C         44.1220    2.6150  104.5190 C.2   160  TYR160      0.2264
     43  O         44.7640    3.6880  104.5550 O.2   160  TYR160     -0.2867
     44  CB        42.3390    2.7850  106.2460 C.3   160  TYR160      0.0534
     45  CG        41.3760    3.1220  105.1420 C.ar  160  TYR160     -0.0201
     46  CD1       40.5550    2.1290  104.5870 C.ar  160  TYR160     -0.0009
     47  CD2       41.2520    4.4380  104.6660 C.ar  160  TYR160     -0.0009
     48  CE1       39.6260    2.4430  103.5830 C.ar  160  TYR160      0.0417
     49  CE2       40.3430    4.7530  103.6410 C.ar  160  TYR160      0.0417
     50  CZ        39.5400    3.7460  103.1110 C.ar  160  TYR160      0.1957
     51  OH        38.6550    4.0130  102.1030 O.3   160  TYR160     -0.2866
     52  N         42.0720    2.2560  101.3250 N.3   162  GLY162     -0.1225
     53  CA        41.0230    2.3010  100.3060 C.3   162  GLY162      0.1811
     54  C         40.7100    3.6840   99.7150 C.2   162  GLY162      0.2280
     55  O         41.3270    4.6840  100.0800 O.2   162  GLY162     -0.2866
     56  N         32.6720   -7.2020   98.2080 N.3   185  TRP185     -0.1227
     57  CA        33.1720   -6.1470   99.0870 C.3   185  TRP185      0.1737
     58  C         34.1500   -6.5900  100.1820 C.2   185  TRP185      0.2596
     59  O         33.9370   -7.6120  100.8670 O.2   185  TRP185     -0.2718
     60  CB        31.9840   -5.4250   99.7210 C.3   185  TRP185      0.0564
     61  CG        32.3810   -4.2030  100.4830 C.ar  185  TRP185      0.0003
     62  CD1       32.3750   -2.9070  100.0220 C.ar  185  TRP185      0.0946
     63  CD2       32.8420   -4.1480  101.8440 C.ar  185  TRP185      0.0152
     64  NE1       32.8090   -2.0540  101.0220 N.ar  185  TRP185     -0.2442
     65  CE2       33.1020   -2.7900  102.1450 C.ar  185  TRP185      0.0810
     66  CE3       33.0540   -5.1110  102.8410 C.ar  185  TRP185      0.0012
     67  CZ2       33.5640   -2.3760  103.3990 C.ar  185  TRP185      0.0191
     68  CZ3       33.5240   -4.6960  104.0940 C.ar  185  TRP185      0.0001
     69  CH2       33.7660   -3.3410  104.3580 C.ar  185  TRP185      0.0015
     70  N         35.2290   -5.8170  100.3190 N.am  186  GLY186     -0.1942
     71  CA        36.1170   -5.8670  101.4810 C.3   186  GLY186      0.2014
     72  C         37.4630   -6.5410  101.3380 C.2   186  GLY186      0.2639
     73  O         37.6150   -7.5220  100.6190 O.2   186  GLY186     -0.2714
     74  N         38.4490   -5.9950  102.0340 N.am  187  GLY187     -0.1939
     75  CA        39.7360   -6.6530  102.2520 C.3   187  GLY187      0.2014
     76  C         40.8070   -6.4310  101.2130 C.2   187  GLY187      0.2639
     77  O         41.9940   -6.5050  101.5260 O.2   187  GLY187     -0.2714
     78  N         40.4090   -6.1740   99.9700 N.am  188  GLU188     -0.1963
     79  CA        41.4060   -6.1300   98.8980 C.3   188  GLU188      0.1733
     80  C         42.3880   -4.9570   99.0940 C.2   188  GLU188      0.2616
     81  O         43.6050   -5.1110   98.9230 O.2   188  GLU188     -0.2715
     82  CB        40.7510   -6.1590   97.5070 C.3   188  GLU188      0.0429
     83  CG        40.3470   -4.8260   96.9360 C.3   188  GLU188      0.1163
     84  CD        39.2580   -4.1440   97.7420 C.2   188  GLU188      0.3649
     85  OE1       39.0910   -2.9190   97.5820 O.co2 188  GLU188     -0.2457
     86  OE2       38.5670   -4.8200   98.5310 O.co2 188  GLU188     -0.2457
     87  N         41.8670   -3.8120   99.5160 N.am  189  ASP189     -0.1957
     88  CA        42.7080   -2.6620   99.8720 C.3   189  ASP189      0.1840
     89  C         43.6380   -2.9740  101.0290 C.2   189  ASP189      0.2622
     90  O         44.8030   -2.5640  101.0380 O.2   189  ASP189     -0.2715
     91  CB        41.8370   -1.4340  100.1830 C.3   189  ASP189      0.1450
     92  CG        40.6900   -1.7520  101.1520 C.2   189  ASP189      0.3671
     93  OD1       40.3470   -2.9570  101.3380 O.co2 189  ASP189     -0.2456
     94  OD2       40.1480   -0.7900  101.7460 O.co2 189  ASP189     -0.2456
     95  N         43.1520   -3.7430  101.9970 N.am  190  ASP190     -0.1971
     96  CA        44.0310   -4.2190  103.0710 C.3   190  ASP190      0.1709
     97  C         45.1410   -5.1080  102.5210 C.2   190  ASP190      0.2293
     98  O         46.3100   -5.0240  102.9320 O.2   190  ASP190     -0.2864
     99  CB        43.1940   -4.9470  104.1480 C.3   190  ASP190      0.1436
    100  CG        42.2730   -3.9810  104.9000 C.2   190  ASP190      0.3671
    101  OD1       42.6870   -2.7990  105.1210 O.co2 190  ASP190     -0.2456
    102  OD2       41.1340   -4.3820  105.2400 O.co2 190  ASP190     -0.2456
    103  N         37.3900  -12.8530  103.2430 N.3   230  ARG230     -0.1231
    104  CA        38.3440  -11.7250  103.1990 C.3   230  ARG230      0.1694
    105  C         39.3750  -11.7030  104.3260 C.2   230  ARG230      0.2592
    106  O         40.5500  -11.4090  104.0700 O.2   230  ARG230     -0.2718
    107  CB        37.6570  -10.3620  103.0520 C.3   230  ARG230      0.0321
    108  CG        36.9720   -9.8390  104.2960 C.3   230  ARG230      0.0489
    109  CD        35.9610   -8.7640  103.9310 C.3   230  ARG230      0.2205
    110  NE        35.2480   -8.2730  105.1090 N.pl3 230  ARG230     -0.0865
    111  CZ        33.9730   -8.5310  105.4010 C.cat 230  ARG230      0.5346
    112  NH1       33.2090   -9.2820  104.6040 N.pl3 230  ARG230      0.1354
    113  NH2       33.4530   -8.0300  106.5120 N.pl3 230  ARG230      0.1354
    114  N         38.9490  -12.0320  105.5520 N.am  231  PHE231     -0.1976
    115  CA        39.8740  -12.1120  106.6970 C.3   231  PHE231      0.1639
    116  C         40.9640  -13.1800  106.5660 C.2   231  PHE231      0.2290
    117  O         42.1370  -12.9230  106.9040 O.2   231  PHE231     -0.2864
    118  CB        39.1280  -12.2220  108.0360 C.3   231  PHE231      0.0560
    119  CG        38.0030  -11.2450  108.1680 C.ar  231  PHE231     -0.0200
    120  CD1       36.6830  -11.6700  108.0700 C.ar  231  PHE231     -0.0042
    121  CD2       38.2590   -9.8850  108.3370 C.ar  231  PHE231     -0.0042
    122  CE1       35.6250  -10.7460  108.1560 C.ar  231  PHE231     -0.0003
    123  CE2       37.2150   -8.9620  108.4220 C.ar  231  PHE231     -0.0003
    124  CZ        35.8990   -9.3910  108.3390 C.ar  231  PHE231     -0.0000
    125  N         43.5490  -11.7330  103.7690 N.3   234  ILE234     -0.1245
    126  CA        44.5300  -10.7190  104.1930 C.3   234  ILE234      0.1561
    127  C         45.6490  -11.2810  105.0890 C.2   234  ILE234      0.2260
    128  O         46.7890  -10.7930  105.0520 O.2   234  ILE234     -0.2867
    129  CB        43.8820   -9.4270  104.7960 C.3   234  ILE234      0.0252
    130  CG1       43.3580   -9.6630  106.2270 C.3   234  ILE234      0.0019
    131  CG2       42.8190   -8.8370  103.8420 C.3   234  ILE234      0.0019
    132  CD1       42.7690   -8.4250  106.9180 C.3   234  ILE234      0.0001
@<TRIPOS>BOND
     1    83    82    1
     2    83    84    1
     3    82    79    1
     4    85    84   ar
     5    84    86   ar
     6    56    57    1
     7    79    80    1
     8    79    78    1
     9    81    80    2
    10    57    60    1
    11    57    58    1
    12    80    87   am
    13    87    88    1
    14    54    55    2
    15    54    53    1
    16    60    61    1
    17    88    91    1
    18    88    89    1
    19    78    76   am
    20    62    61   ar
    21    62    64   ar
    22    58    70   am
    23    58    59    2
    24    91    92    1
    25    53    52    1
    26    70    71    1
    27    61    63   ar
    28    73    72    2
    29    64    65   ar
    30    89    90    2
    31    89    95   am
    32    92    93   ar
    33    92    94   ar
    34    76    77    2
    35    76    75    1
    36    72    71    1
    37    72    74   am
    38     9     8    1
    39    63    65   ar
    40    63    66   ar
    41    95    96    1
    42    74    75    1
    43    51    50    1
    44    65    67   ar
    45    97    98    2
    46    97    96    1
    47    66    68   ar
    48     8     7    1
    49   107   104    1
    50   107   108    1
    51    96    99    1
    52    50    48   ar
    53    50    49   ar
    54   104   103    1
    55   104   105    1
    56     7     6    1
    57    67    69   ar
    58    48    46   ar
    59    49    47   ar
    60   125   126    1
    61   131   129    1
    62   109   108    1
    63   109   110    1
    64   106   105    2
    65    68    69   ar
    66    99   100    1
    67     6     5    1
    68   126   129    1
    69   126   127    1
    70   105   114   am
    71     5     2    1
    72    42    43    2
    73    42    41    1
    74    46    45   ar
    75   112   111    1
    76    47    45   ar
    77   129   130    1
    78   100   101   ar
    79   100   102   ar
    80    18    20   ar
    81    18    16   ar
    82   128   127    2
    83   110   111    2
    84     1     2    1
    85    45    44    1
    86    20    19   ar
    87   111   113    1
    88     2     3    1
    89   114   115    1
    90    41    44    1
    91    41    40    1
    92    16    15   ar
    93   130   132    1
    94    39    38    1
    95    19    17   ar
    96   116   115    1
    97   116   117    2
    98   115   118    1
    99     3    10   am
   100     3     4    2
   101    15    17   ar
   102    15    14    1
   103    10    11    1
   104    27    26    1
   105    27    21    1
   106    26    25    1
   107    38    36   ar
   108    38    37   ar
   109    14    11    1
   110    36    34   ar
   111   118   119    1
   112   120   122   ar
   113   120   119   ar
   114    11    12    1
   115    37    35   ar
   116   122   124   ar
   117   119   121   ar
   118   121   123   ar
   119   124   123   ar
   120    25    22    1
   121    21    22    1
   122    31    30    2
   123    34    33   ar
   124    12    13    2
   125    35    33   ar
   126    22    23    1
   127    33    32    1
   128    28    23   am
   129    28    29    1
   130    30    29    1
   131    23    24    2
   132    29    32    1
