@<TRIPOS>MOLECULE
tmp/4eeoB01.pdb
 132 132 0 0 0
SMALL
GASTEIGER

@<TRIPOS>ATOM
      1  N         52.8860   32.1320   78.6620 N.3   150  LYS150     -0.1231
      2  CA        53.4900   31.9150   77.3380 C.3   150  LYS150      0.1693
      3  C         54.9930   31.8240   77.4550 C.2   150  LYS150      0.2592
      4  O         55.6620   31.4400   76.4980 O.2   150  LYS150     -0.2718
      5  CB        53.0500   32.9200   76.2820 C.3   150  LYS150      0.0285
      6  CG        53.5810   34.3290   76.5130 C.3   150  LYS150      0.0035
      7  CD        53.5840   35.1600   75.2000 C.3   150  LYS150      0.0206
      8  CE        53.5690   36.6620   75.5610 C.3   150  LYS150      0.1093
      9  NZ        53.7400   37.5420   74.3800 N.3   150  LYS150     -0.1314
     10  N         55.4910   32.1140   78.6580 N.am  151  PHE151     -0.1976
     11  CA        56.8960   31.9780   78.9770 C.3   151  PHE151      0.1639
     12  C         57.1560   30.8620   80.0020 C.2   151  PHE151      0.2290
     13  O         58.1710   30.8500   80.6840 O.2   151  PHE151     -0.2864
     14  CB        57.4510   33.3280   79.4530 C.3   151  PHE151      0.0560
     15  CG        57.4530   34.4140   78.3730 C.ar  151  PHE151     -0.0200
     16  CD1       56.9970   35.6930   78.6540 C.ar  151  PHE151     -0.0042
     17  CD2       57.9100   34.1450   77.0870 C.ar  151  PHE151     -0.0042
     18  CE1       56.9860   36.6940   77.6920 C.ar  151  PHE151     -0.0003
     19  CE2       57.8890   35.1360   76.1030 C.ar  151  PHE151     -0.0003
     20  CZ        57.4220   36.4270   76.4230 C.ar  151  PHE151     -0.0000
     21  N         61.0780   35.2310   81.0430 N.3   156  PRO156     -0.2102
     22  CA        61.9130   34.7780   79.9220 C.3   156  PRO156      0.1504
     23  C         63.3840   35.1880   80.0440 C.2   156  PRO156      0.2575
     24  O         64.2300   34.5380   79.4670 O.2   156  PRO156     -0.2718
     25  CB        61.2890   35.4730   78.7090 C.3   156  PRO156      0.0282
     26  CG        60.7100   36.8010   79.3070 C.3   156  PRO156      0.0208
     27  CD        60.2770   36.4310   80.7210 C.3   156  PRO156      0.0893
     28  N         63.6910   36.2780   80.7530 N.am  157  TYR157     -0.1977
     29  CA        65.0700   36.6400   81.0560 C.3   157  TYR157      0.1639
     30  C         64.9980   37.6380   82.1820 C.2   157  TYR157      0.2290
     31  O         63.9600   38.2760   82.3450 O.2   157  TYR157     -0.2864
     32  CB        65.8230   37.2550   79.8400 C.3   157  TYR157      0.0560
     33  CG        65.1270   38.3860   79.0350 C.ar  157  TYR157     -0.0198
     34  CD1       65.5770   39.7280   79.1070 C.ar  157  TYR157     -0.0009
     35  CD2       64.1300   38.0870   78.1140 C.ar  157  TYR157     -0.0009
     36  CE1       64.9750   40.7590   78.3400 C.ar  157  TYR157      0.0417
     37  CE2       63.5390   39.0720   77.3410 C.ar  157  TYR157      0.0417
     38  CZ        63.9590   40.3990   77.4690 C.ar  157  TYR157      0.1957
     39  OH        63.3720   41.3080   76.6870 O.3   157  TYR157     -0.2866
     40  N         63.9470   41.2750   81.4860 N.3   160  TYR160     -0.1241
     41  CA        62.6460   41.3990   80.8520 C.3   160  TYR160      0.1605
     42  C         61.7870   42.4400   81.5610 C.2   160  TYR160      0.2264
     43  O         61.5000   42.2980   82.7440 O.2   160  TYR160     -0.2867
     44  CB        61.9200   40.0600   80.8870 C.3   160  TYR160      0.0534
     45  CG        60.5950   40.1690   80.2110 C.ar  160  TYR160     -0.0201
     46  CD1       60.4970   40.6300   78.8880 C.ar  160  TYR160     -0.0009
     47  CD2       59.4200   39.8660   80.8980 C.ar  160  TYR160     -0.0009
     48  CE1       59.2480   40.7400   78.2610 C.ar  160  TYR160      0.0417
     49  CE2       58.1960   39.9930   80.3020 C.ar  160  TYR160      0.0417
     50  CZ        58.1200   40.4460   79.0000 C.ar  160  TYR160      0.1957
     51  OH        56.8920   40.5160   78.4380 O.3   160  TYR160     -0.2866
     52  N         58.8480   43.5870   79.8460 N.3   162  GLY162     -0.1225
     53  CA        57.6870   43.7580   78.9510 C.3   162  GLY162      0.1811
     54  C         56.3390   43.4610   79.6150 C.2   162  GLY162      0.2280
     55  O         56.3100   42.9810   80.7380 O.2   162  GLY162     -0.2866
     56  N         57.6610   45.7530   66.1210 N.3   185  TRP185     -0.1227
     57  CA        57.7420   44.9110   67.3160 C.3   185  TRP185      0.1737
     58  C         59.1790   44.7410   67.8130 C.2   185  TRP185      0.2596
     59  O         60.0710   44.5360   67.0140 O.2   185  TRP185     -0.2718
     60  CB        57.2220   43.5540   66.9270 C.3   185  TRP185      0.0564
     61  CG        57.2840   42.5500   68.0460 C.ar  185  TRP185      0.0003
     62  CD1       56.2360   42.1660   68.8350 C.ar  185  TRP185      0.0946
     63  CD2       58.4270   41.8030   68.4920 C.ar  185  TRP185      0.0152
     64  NE1       56.6540   41.2510   69.7410 N.ar  185  TRP185     -0.2442
     65  CE2       57.9940   41.0060   69.5680 C.ar  185  TRP185      0.0810
     66  CE3       59.7650   41.7240   68.0820 C.ar  185  TRP185      0.0012
     67  CZ2       58.8550   40.1040   70.2510 C.ar  185  TRP185      0.0191
     68  CZ3       60.6360   40.8670   68.7710 C.ar  185  TRP185      0.0001
     69  CH2       60.1700   40.0460   69.8300 C.ar  185  TRP185      0.0015
     70  N         59.3960   44.8220   69.1220 N.am  186  GLY186     -0.1942
     71  CA        60.6590   44.4020   69.7650 C.3   186  GLY186      0.2014
     72  C         61.4610   45.5520   70.3550 C.2   186  GLY186      0.2639
     73  O         61.5880   46.5890   69.7240 O.2   186  GLY186     -0.2714
     74  N         62.0130   45.3320   71.5550 N.am  187  GLY187     -0.1939
     75  CA        63.1130   46.1510   72.1740 C.3   187  GLY187      0.2014
     76  C         62.7370   47.4480   72.8880 C.2   187  GLY187      0.2639
     77  O         63.5480   48.0070   73.6620 O.2   187  GLY187     -0.2714
     78  N         61.5130   47.9520   72.6790 N.am  188  GLU188     -0.1963
     79  CA        61.1550   49.1970   73.3930 C.3   188  GLU188      0.1733
     80  C         61.1340   48.9560   74.8750 C.2   188  GLU188      0.2616
     81  O         61.4450   49.8430   75.6680 O.2   188  GLU188     -0.2715
     82  CB        59.8400   49.8550   72.8790 C.3   188  GLU188      0.0429
     83  CG        58.5980   49.4260   73.5340 C.3   188  GLU188      0.1163
     84  CD        58.2860   47.9100   73.2430 C.2   188  GLU188      0.3649
     85  OE1       57.6390   47.2790   74.0760 O.co2 188  GLU188     -0.2457
     86  OE2       58.6540   47.3710   72.1880 O.co2 188  GLU188     -0.2457
     87  N         60.7950   47.7340   75.2640 N.am  189  ASP189     -0.1957
     88  CA        60.6740   47.4650   76.6860 C.3   189  ASP189      0.1840
     89  C         62.1130   47.2960   77.2720 C.2   189  ASP189      0.2622
     90  O         62.4300   47.7720   78.3850 O.2   189  ASP189     -0.2715
     91  CB        59.7320   46.2610   76.8930 C.3   189  ASP189      0.1450
     92  CG        60.1360   45.0310   76.0650 C.2   189  ASP189      0.3671
     93  OD1       60.6860   45.1960   74.9450 O.co2 189  ASP189     -0.2456
     94  OD2       59.8860   43.8890   76.5360 O.co2 189  ASP189     -0.2456
     95  N         63.0060   46.6930   76.4770 N.am  190  ASP190     -0.1971
     96  CA        64.4290   46.6110   76.8470 C.3   190  ASP190      0.1709
     97  C         65.0360   48.0340   76.9020 C.2   190  ASP190      0.2293
     98  O         65.8340   48.3810   77.7960 O.2   190  ASP190     -0.2864
     99  CB        65.1310   45.7430   75.8220 C.3   190  ASP190      0.1436
    100  CG        64.5200   44.3830   75.7490 C.2   190  ASP190      0.3671
    101  OD1       64.2850   43.7690   76.8230 O.co2 190  ASP190     -0.2456
    102  OD2       64.2380   43.9250   74.6450 O.co2 190  ASP190     -0.2456
    103  N         66.0930   47.5440   66.1240 N.3   230  ARG230     -0.1231
    104  CA        65.8510   47.5800   67.5660 C.3   230  ARG230      0.1694
    105  C         67.1320   47.3540   68.3640 C.2   230  ARG230      0.2592
    106  O         67.3430   47.9960   69.4210 O.2   230  ARG230     -0.2718
    107  CB        64.7810   46.5700   67.9860 C.3   230  ARG230      0.0321
    108  CG        65.1070   45.0780   67.7520 C.3   230  ARG230      0.0489
    109  CD        63.7830   44.3300   67.8630 C.3   230  ARG230      0.2205
    110  NE        63.9200   42.8950   67.8560 N.pl3 230  ARG230     -0.0865
    111  CZ        63.9630   42.1740   66.7500 C.cat 230  ARG230      0.5346
    112  NH1       63.8550   42.7880   65.5770 N.pl3 230  ARG230      0.1354
    113  NH2       64.0900   40.8510   66.8280 N.pl3 230  ARG230      0.1354
    114  N         67.9890   46.4630   67.8470 N.am  231  PHE231     -0.1976
    115  CA        69.2340   46.0980   68.5400 C.3   231  PHE231      0.1639
    116  C         70.1550   47.2780   68.5600 C.2   231  PHE231      0.2290
    117  O         70.7210   47.5610   69.5850 O.2   231  PHE231     -0.2864
    118  CB        69.9170   44.8840   67.9120 C.3   231  PHE231      0.0560
    119  CG        69.0330   43.6780   67.8670 C.ar  231  PHE231     -0.0200
    120  CD1       68.5070   43.2250   66.6570 C.ar  231  PHE231     -0.0042
    121  CD2       68.6930   43.0040   69.0390 C.ar  231  PHE231     -0.0042
    122  CE1       67.6640   42.1100   66.6170 C.ar  231  PHE231     -0.0003
    123  CE2       67.8490   41.8910   69.0050 C.ar  231  PHE231     -0.0003
    124  CZ        67.3230   41.4500   67.7990 C.ar  231  PHE231     -0.0000
    125  N         68.6220   49.7770   71.2320 N.3   234  ILE234     -0.1245
    126  CA        68.7440   49.5090   72.6630 C.3   234  ILE234      0.1561
    127  C         70.2110   49.7000   73.1320 C.2   234  ILE234      0.2260
    128  O         70.4660   50.1240   74.2500 O.2   234  ILE234     -0.2867
    129  CB        68.1130   48.1430   73.1810 C.3   234  ILE234      0.0252
    130  CG1       69.1580   47.0960   73.3580 C.3   234  ILE234      0.0019
    131  CG2       66.9180   47.5880   72.4280 C.3   234  ILE234      0.0019
    132  CD1       69.5410   47.0290   74.8220 C.3   234  ILE234      0.0001
@<TRIPOS>BOND
     1   112   111    1
     2    56    57    1
     3   103   104    1
     4   122   120   ar
     5   122   124   ar
     6   120   119   ar
     7   111   113    1
     8   111   110    2
     9    60    57    1
    10    60    61    1
    11    59    58    2
    12    57    58    1
    13   104   107    1
    14   104   105    1
    15   108   109    1
    16   108   107    1
    17   124   123   ar
    18    58    70   am
    19   114   105   am
    20   114   115    1
    21   110   109    1
    22   119   118    1
    23   119   121   ar
    24   118   115    1
    25    61    63   ar
    26    61    62   ar
    27    66    63   ar
    28    66    68   ar
    29   105   106    2
    30    63    65   ar
    31   115   116    1
    32   116   117    2
    33    68    69   ar
    34    62    64   ar
    35   123   121   ar
    36    70    71    1
    37    65    64   ar
    38    65    67   ar
    39    73    72    2
    40    71    72    1
    41    69    67   ar
    42    72    74   am
    43   125   126    1
    44    74    75    1
    45    75    76    1
    46    86    84   ar
    47   131   129    1
    48   126   127    1
    49   126   129    1
    50    78    76   am
    51    78    79    1
    52    82    79    1
    53    82    83    1
    54    76    77    2
    55   127   128    2
    56   129   130    1
    57    84    83    1
    58    84    85   ar
    59   130   132    1
    60    79    80    1
    61     9     8    1
    62   102   100   ar
    63    80    87   am
    64    80    81    2
    65    93    92   ar
    66     7     8    1
    67     7     6    1
    68    87    88    1
    69   100    99    1
    70   100   101   ar
    71    99    96    1
    72    92    94   ar
    73    92    91    1
    74    19    20   ar
    75    19    17   ar
    76     5     6    1
    77     5     2    1
    78    20    18   ar
    79    95    96    1
    80    95    89   am
    81     4     3    2
    82    88    91    1
    83    88    89    1
    84    39    38    1
    85    96    97    1
    86    97    98    2
    87    17    15   ar
    88    89    90    2
    89     2     3    1
    90     2     1    1
    91    37    38   ar
    92    37    35   ar
    93     3    10   am
    94    38    36   ar
    95    18    16   ar
    96    35    33   ar
    97    48    46   ar
    98    48    50   ar
    99    36    34   ar
   100    15    16   ar
   101    15    14    1
   102    51    50    1
   103    10    11    1
   104    25    26    1
   105    25    22    1
   106    46    45   ar
   107    53    54    1
   108    53    52    1
   109    11    14    1
   110    11    12    1
   111    50    49   ar
   112    33    34   ar
   113    33    32    1
   114    26    27    1
   115    24    23    2
   116    54    55    2
   117    32    29    1
   118    22    23    1
   119    22    21    1
   120    12    13    2
   121    23    28   am
   122    45    44    1
   123    45    47   ar
   124    49    47   ar
   125    27    21    1
   126    28    29    1
   127    41    44    1
   128    41    40    1
   129    41    42    1
   130    29    30    1
   131    42    43    2
   132    30    31    2
