@<TRIPOS>MOLECULE
tmp/4eeqA01.pdb
 149 146 0 0 0
SMALL
GASTEIGER

@<TRIPOS>ATOM
      1  N         28.8590   40.7580   49.6730 N.3    82  MET82      -0.1230
      2  CA        27.8460   39.7100   49.7090 C.3    82  MET82       0.1702
      3  C         28.3190   38.6150   50.6630 C.2    82  MET82       0.2592
      4  O         29.1850   37.8080   50.3230 O.2    82  MET82      -0.2718
      5  CB        27.6310   39.1260   48.3060 C.3    82  MET82       0.0401
      6  CG        27.0640   40.1170   47.2910 C.3    82  MET82       0.0596
      7  SD        26.6870   39.3930   45.6680 S.3    82  MET82      -0.1393
      8  CE        25.5080   38.0930   46.1410 C.3    82  MET82       0.0692
      9  N         27.7530   38.6020   51.8650 N.am   83  TYR83      -0.1962
     10  CA        28.1660   37.6540   52.8970 C.3    83  TYR83       0.1771
     11  C         27.6500   36.2540   52.5860 C.2    83  TYR83       0.2620
     12  O         26.8410   36.0720   51.6740 O.2    83  TYR83      -0.2715
     13  CB        27.6300   38.1020   54.2580 C.3    83  TYR83       0.0574
     14  CG        28.3120   39.3260   54.8220 C.ar   83  TYR83      -0.0198
     15  CD1       27.7390   40.5820   54.7070 C.ar   83  TYR83      -0.0009
     16  CD2       29.5230   39.2180   55.4940 C.ar   83  TYR83      -0.0009
     17  CE1       28.3540   41.7000   55.2490 C.ar   83  TYR83       0.0417
     18  CE2       30.1430   40.3270   56.0390 C.ar   83  TYR83       0.0417
     19  CZ        29.5550   41.5620   55.9160 C.ar   83  TYR83       0.1957
     20  OH        30.1660   42.6540   56.4790 O.3    83  TYR83      -0.2866
     21  N         28.1250   35.2630   53.3380 N.am   84  SER84      -0.1936
     22  CA        27.4530   33.9680   53.3750 C.3    84  SER84       0.2055
     23  C         26.7060   33.8140   54.7000 C.2    84  SER84       0.2642
     24  O         26.5250   34.7920   55.4250 O.2    84  SER84      -0.2714
     25  CB        28.4600   32.8280   53.1820 C.3    84  SER84       0.2130
     26  OG        29.6340   33.0560   53.9400 O.3    84  SER84      -0.2179
     27  N         26.2540   32.5980   54.9970 N.am   85  LEU85      -0.1977
     28  CA        25.4160   32.3480   56.1710 C.3    85  LEU85       0.1596
     29  C         26.0400   31.3380   57.1220 C.2    85  LEU85       0.2287
     30  O         26.6390   30.3540   56.6840 O.2    85  LEU85      -0.2864
     31  CB        24.0460   31.8230   55.7430 C.3    85  LEU85       0.0297
     32  CG        23.1040   32.7890   55.0290 C.3    85  LEU85       0.0022
     33  CD1       22.0920   31.9950   54.2180 C.3    85  LEU85       0.0001
     34  CD2       22.4120   33.6780   56.0550 C.3    85  LEU85       0.0001
     35  N         12.4800   32.1120   55.2370 N.3   114  GLU114     -0.1231
     36  CA        12.4850   31.9460   53.7930 C.3   114  GLU114      0.1699
     37  C         13.0210   30.5560   53.4670 C.2   114  GLU114      0.2592
     38  O         13.8550   30.0250   54.2040 O.2   114  GLU114     -0.2718
     39  CB        13.3730   33.0240   53.1480 C.3   114  GLU114      0.0402
     40  CG        12.9910   34.4590   53.5190 C.3   114  GLU114      0.1161
     41  CD        13.9680   35.4930   52.9770 C.2   114  GLU114      0.3649
     42  OE1       14.0200   36.6130   53.5310 O.co2 114  GLU114     -0.2457
     43  OE2       14.6840   35.1890   51.9990 O.co2 114  GLU114     -0.2457
     44  N         12.5390   29.9630   52.3780 N.am  115  LEU115     -0.1966
     45  CA        13.1490   28.7380   51.8610 C.3   115  LEU115      0.1728
     46  C         14.5310   29.0800   51.3090 C.2   115  LEU115      0.2616
     47  O         14.7010   30.1010   50.6430 O.2   115  LEU115     -0.2715
     48  CB        12.2930   28.1290   50.7440 C.3   115  LEU115      0.0311
     49  CG        10.8310   27.8290   51.0940 C.3   115  LEU115      0.0022
     50  CD1       10.1540   27.1540   49.9160 C.3   115  LEU115      0.0001
     51  CD2       10.7690   26.9470   52.3380 C.3   115  LEU115      0.0001
     52  N         15.5150   28.2340   51.5980 N.am  116  LYS116     -0.1963
     53  CA        16.8680   28.4450   51.0940 C.3   116  LYS116      0.1728
     54  C         17.0030   27.8400   49.7010 C.2   116  LYS116      0.2616
     55  O         17.1360   26.6290   49.5500 O.2   116  LYS116     -0.2715
     56  CB        17.8930   27.8140   52.0390 C.3   116  LYS116      0.0311
     57  CG        19.3400   28.1400   51.6970 C.3   116  LYS116      0.0038
     58  CD        20.2750   27.6570   52.7930 C.3   116  LYS116      0.0206
     59  CE        21.6780   28.2160   52.6150 C.3   116  LYS116      0.1093
     60  NZ        22.3580   27.6090   51.4460 N.3   116  LYS116     -0.1314
     61  N         16.9670   28.7050   48.6900 N.am  117  ILE117     -0.1977
     62  CA        16.9640   28.2910   47.2900 C.3   117  ILE117      0.1596
     63  C         18.3730   27.8420   46.9200 C.2   117  ILE117      0.2287
     64  O         19.3450   28.5640   47.1460 O.2   117  ILE117     -0.2864
     65  CB        16.5440   29.4690   46.3700 C.3   117  ILE117      0.0276
     66  CG1       15.2470   30.0990   46.8790 C.3   117  ILE117      0.0022
     67  CG2       16.3150   28.9820   44.9650 C.3   117  ILE117      0.0022
     68  CD1       14.0410   29.1810   46.8050 C.3   117  ILE117      0.0001
     69  N         18.7220   34.6650   44.2570 N.3   171  GLU171     -0.1245
     70  CA        19.2630   33.4070   43.7500 C.3   171  GLU171      0.1567
     71  C         18.7910   33.2010   42.3220 C.2   171  GLU171      0.2260
     72  O         17.6080   33.3890   42.0120 O.2   171  GLU171     -0.2867
     73  CB        18.7870   32.2270   44.6070 C.3   171  GLU171      0.0388
     74  CG        19.6800   30.9890   44.5220 C.3   171  GLU171      0.1160
     75  CD        20.9650   31.1650   45.3210 C.2   171  GLU171      0.3649
     76  OE1       21.7520   30.2040   45.4190 O.co2 171  GLU171     -0.2457
     77  OE2       21.1810   32.2710   45.8560 O.co2 171  GLU171     -0.2457
     78  N         15.6470   38.3430   47.2700 N.3   223  TYR223     -0.1227
     79  CA        15.3280   38.4180   48.6960 C.3   223  TYR223      0.1736
     80  C         16.0130   39.5190   49.5180 C.2   223  TYR223      0.2596
     81  O         15.7490   39.6560   50.7130 O.2   223  TYR223     -0.2718
     82  CB        15.5800   37.0600   49.3610 C.3   223  TYR223      0.0548
     83  CG        16.8810   36.3930   48.9730 C.ar  223  TYR223     -0.0200
     84  CD1       16.8850   35.2810   48.1410 C.ar  223  TYR223     -0.0009
     85  CD2       18.1000   36.8610   49.4510 C.ar  223  TYR223     -0.0009
     86  CE1       18.0610   34.6500   47.7960 C.ar  223  TYR223      0.0417
     87  CE2       19.2870   36.2360   49.1090 C.ar  223  TYR223      0.0417
     88  CZ        19.2590   35.1280   48.2820 C.ar  223  TYR223      0.1957
     89  OH        20.4250   34.4710   47.9600 O.3   223  TYR223     -0.2866
     90  N         16.8870   40.3030   48.9010 N.am  224  THR224     -0.1953
     91  CA        17.4810   41.4300   49.6190 C.3   224  THR224      0.1897
     92  C         17.9320   42.5730   48.7200 C.2   224  THR224      0.2313
     93  O         18.1240   42.4000   47.5200 O.2   224  THR224     -0.2863
     94  CB        18.6890   40.9760   50.4860 C.3   224  THR224      0.1794
     95  OG1       19.2170   42.1050   51.1890 O.3   224  THR224     -0.2208
     96  CG2       19.7820   40.3590   49.6250 C.3   224  THR224      0.0378
     97  N         16.2580   29.6550   55.6420 N.3   285  VAL285     -0.1245
     98  CA        17.0050   30.7690   56.2180 C.3   285  VAL285      0.1561
     99  C         16.1500   31.5630   57.2000 C.2   285  VAL285      0.2260
    100  O         15.0570   32.0250   56.8590 O.2   285  VAL285     -0.2867
    101  CB        17.5300   31.7340   55.1280 C.3   285  VAL285      0.0252
    102  CG1       18.4620   32.7710   55.7590 C.3   285  VAL285      0.0019
    103  CG2       18.2630   30.9610   54.0530 C.3   285  VAL285      0.0019
    104  N         15.8120   34.8570   59.4430 N.3   287  LYS287     -0.1245
    105  CA        16.3140   36.2270   59.5470 C.3   287  LYS287      0.1561
    106  C         15.5730   37.0320   60.6040 C.2   287  LYS287      0.2260
    107  O         14.3440   36.9900   60.6730 O.2   287  LYS287     -0.2867
    108  CB        16.1880   36.9380   58.1960 C.3   287  LYS287      0.0271
    109  CG        17.0020   36.2950   57.0860 C.3   287  LYS287      0.0035
    110  CD        16.6020   36.8310   55.7280 C.3   287  LYS287      0.0206
    111  CE        17.2730   36.0410   54.6160 C.3   287  LYS287      0.1093
    112  NZ        16.9280   36.5650   53.2710 N.3   287  LYS287     -0.1314
    113  N         27.5430   41.9960   61.8180 N.3   299  PHE299     -0.1241
    114  CA        28.0670   40.8840   61.0440 C.3   299  PHE299      0.1605
    115  C         29.3750   40.3910   61.6450 C.2   299  PHE299      0.2264
    116  O         30.1940   41.1890   62.1020 O.2   299  PHE299     -0.2867
    117  CB        28.3150   41.3210   59.5950 C.3   299  PHE299      0.0534
    118  CG        27.0740   41.7490   58.8640 C.ar  299  PHE299     -0.0203
    119  CD1       26.5400   43.0090   59.0560 C.ar  299  PHE299     -0.0042
    120  CD2       26.4500   40.8940   57.9700 C.ar  299  PHE299     -0.0042
    121  CE1       25.4010   43.4160   58.3650 C.ar  299  PHE299     -0.0003
    122  CE2       25.3130   41.2910   57.2750 C.ar  299  PHE299     -0.0003
    123  CZ        24.7880   42.5560   57.4740 C.ar  299  PHE299     -0.0000
    124  N         26.2050   37.3670   58.6130 N.3   304  PRO304     -0.2116
    125  CA        25.4090   38.1660   59.5520 C.3   304  PRO304      0.1372
    126  C         25.1900   37.4370   60.8810 C.2   304  PRO304      0.2244
    127  O         25.0880   36.2090   60.9150 O.2   304  PRO304     -0.2868
    128  CB        24.0970   38.4060   58.8020 C.3   304  PRO304      0.0268
    129  CG        24.0160   37.3070   57.7910 C.3   304  PRO304      0.0207
    130  CD        25.4370   36.9650   57.4210 C.3   304  PRO304      0.0892
    131  N         22.4920   38.1420   62.5100 N.3   306  TRP306     -0.1227
    132  CA        21.0390   38.2040   62.5850 C.3   306  TRP306      0.1737
    133  C         20.3600   37.1530   61.7150 C.2   306  TRP306      0.2595
    134  O         19.1430   37.1930   61.5130 O.2   306  TRP306     -0.2718
    135  CB        20.5500   39.6030   62.1890 C.3   306  TRP306      0.0564
    136  CG        21.1820   40.1550   60.9320 C.ar  306  TRP306      0.0003
    137  CD1       22.2440   41.0110   60.8570 C.ar  306  TRP306      0.0946
    138  CD2       20.7690   39.9130   59.5800 C.ar  306  TRP306      0.0152
    139  NE1       22.5140   41.3180   59.5470 N.ar  306  TRP306     -0.2442
    140  CE2       21.6240   40.6600   58.7420 C.ar  306  TRP306      0.0810
    141  CE3       19.7580   39.1400   58.9970 C.ar  306  TRP306      0.0012
    142  CZ2       21.4980   40.6570   57.3490 C.ar  306  TRP306      0.0191
    143  CZ3       19.6350   39.1380   57.6160 C.ar  306  TRP306      0.0001
    144  CH2       20.5000   39.8920   56.8090 C.ar  306  TRP306      0.0015
    145  N         21.1440   36.2090   61.2020 N.am  307  ALA307     -0.1980
    146  CA        20.5810   35.1300   60.4060 C.3   307  ALA307      0.1597
    147  C         21.2700   33.7960   60.6540 C.2   307  ALA307      0.2287
    148  O         22.4160   33.7370   61.0980 O.2   307  ALA307     -0.2864
    149  CB        20.6480   35.4820   58.9190 C.3   307  ALA307      0.0319
@<TRIPOS>BOND
     1    72    71    2
     2    71    70    1
     3    70    69    1
     4    70    73    1
     5    74    73    1
     6    74    75    1
     7    67    65    1
     8    75    76   ar
     9    75    77   ar
    10     7     8    1
    11     7     6    1
    12    65    66    1
    13    65    62    1
    14    68    66    1
    15    63    64    2
    16    63    62    1
    17    78    79    1
    18    62    61    1
    19     6     5    1
    20    93    92    2
    21    86    84   ar
    22    86    88   ar
    23    89    88    1
    24    84    83   ar
    25    88    87   ar
    26     5     2    1
    27    61    54   am
    28    79    82    1
    29    79    80    1
    30    92    91    1
    31    90    80   am
    32    90    91    1
    33    83    82    1
    34    83    85   ar
    35    87    85   ar
    36    80    81    2
    37    55    54    2
    38    91    94    1
    39    96    94    1
    40     1     2    1
    41    54    53    1
    42     2     3    1
    43    50    49    1
    44     4     3    2
    45    94    95    1
    46    47    46    2
    47     3     9   am
    48    48    49    1
    49    48    45    1
    50    49    51    1
    51    53    52    1
    52    53    56    1
    53    46    52   am
    54    46    45    1
    55    60    59    1
    56    12    11    2
    57    57    56    1
    58    57    58    1
    59    45    44    1
    60     9    10    1
    61    43    41   ar
    62    44    37   am
    63    11    10    1
    64    11    21   am
    65    59    58    1
    66    10    13    1
    67    41    40    1
    68    41    42   ar
    69    39    40    1
    70    39    36    1
    71    25    22    1
    72    25    26    1
    73   112   111    1
    74    21    22    1
    75    22    23    1
    76    37    36    1
    77    37    38    2
    78    36    35    1
    79   103   101    1
    80    33    32    1
    81    13    14    1
    82   111   110    1
    83    23    27   am
    84    23    24    2
    85    15    14   ar
    86    15    17   ar
    87    14    16   ar
    88    27    28    1
    89    32    31    1
    90    32    34    1
    91   101   102    1
    92   101    98    1
    93    17    19   ar
    94    16    18   ar
    95    97    98    1
    96   110   109    1
    97    31    28    1
    98    19    18   ar
    99    19    20    1
   100    28    29    1
   101    98    99    1
   102    30    29    2
   103   144   142   ar
   104   144   143   ar
   105   100    99    2
   106   109   108    1
   107   122   123   ar
   108   122   120   ar
   109   142   140   ar
   110   130   129    1
   111   130   124    1
   112   123   121   ar
   113   143   141   ar
   114   129   128    1
   115   120   118   ar
   116   108   105    1
   117   121   119   ar
   118   124   125    1
   119   140   139   ar
   120   140   138   ar
   121   128   125    1
   122   118   119   ar
   123   118   117    1
   124   149   146    1
   125   141   138   ar
   126   104   105    1
   127   105   106    1
   128   139   137   ar
   129   125   126    1
   130   138   136   ar
   131   117   114    1
   132   146   147    1
   133   146   145    1
   134   106   107    2
   135   147   148    2
   136   137   136   ar
   137   126   127    2
   138   136   135    1
   139   114   115    1
   140   114   113    1
   141   145   133   am
   142   134   133    2
   143   115   116    2
   144   133   132    1
   145   135   132    1
   146   131   132    1
