@<TRIPOS>MOLECULE
tmp/4eevA00.pdb
 211 201 0 0 0
SMALL
GASTEIGER

@<TRIPOS>ATOM
      1  N         21.6160   -8.4180   45.9810 N.3    40  ILE40      -0.1231
      2  CA        21.3350   -7.5230   44.8350 C.3    40  ILE40       0.1692
      3  C         21.7390   -6.1050   45.2250 C.2    40  ILE40       0.2592
      4  O         22.3560   -5.3790   44.4470 O.2    40  ILE40      -0.2718
      5  CB        19.8450   -7.5560   44.4330 C.3    40  ILE40       0.0266
      6  CG1       19.5100   -8.9030   43.7740 C.3    40  ILE40       0.0019
      7  CG2       19.4990   -6.4600   43.4130 C.3    40  ILE40       0.0020
      8  CD1       18.0380   -9.0750   43.5080 C.3    40  ILE40       0.0001
      9  N         21.4230   -5.7130   46.4420 N.am   41  GLY41      -0.1957
     10  CA        21.7990   -4.3940   46.9380 C.3    41  GLY41       0.1869
     11  C         21.6400   -4.3640   48.4240 C.2    41  GLY41       0.2309
     12  O         20.7710   -5.0570   48.9700 O.2    41  GLY41      -0.2863
     13  N         18.5240   -6.5370   49.8140 N.3    48  VAL48      -0.1245
     14  CA        17.7390   -7.1840   48.7610 C.3    48  VAL48       0.1561
     15  C         18.5460   -8.3250   48.1480 C.2    48  VAL48       0.2260
     16  O         19.6770   -8.1150   47.6930 O.2    48  VAL48      -0.2867
     17  CB        17.2810   -6.1790   47.6670 C.3    48  VAL48       0.0252
     18  CG1       16.3400   -6.8710   46.6710 C.3    48  VAL48       0.0019
     19  CG2       16.6230   -4.9660   48.3170 C.3    48  VAL48       0.0019
     20  N         12.8830  -10.8270   43.6870 N.3    64  ALA64      -0.1245
     21  CA        13.8120  -10.0680   44.5450 C.3    64  ALA64       0.1562
     22  C         13.2200  -10.0860   45.9440 C.2    64  ALA64       0.2260
     23  O         12.0220   -9.9460   46.0880 O.2    64  ALA64      -0.2867
     24  CB        13.9540   -8.6310   44.0430 C.3    64  ALA64       0.0290
     25  N         13.2790   -8.5200   49.7810 N.3    66  LYS66      -0.1245
     26  CA        13.7500   -7.4220   50.6370 C.3    66  LYS66       0.1561
     27  C         13.5640   -7.7770   52.1180 C.2    66  LYS66       0.2260
     28  O         12.4950   -8.2050   52.5070 O.2    66  LYS66      -0.2867
     29  CB        12.9530   -6.1460   50.3560 C.3    66  LYS66       0.0271
     30  CG        13.5050   -4.9150   51.0710 C.3    66  LYS66       0.0035
     31  CD        12.6360   -3.6930   50.8110 C.3    66  LYS66       0.0206
     32  CE        13.2290   -2.4710   51.5150 C.3    66  LYS66       0.1093
     33  NZ        12.2100   -1.3980   51.6250 N.3    66  LYS66      -0.1314
     34  N          4.6890    0.0420   54.2210 N.3    83  GLU83      -0.1231
     35  CA         5.2120    0.3130   52.8560 C.3    83  GLU83       0.1699
     36  C          4.8480   -0.7660   51.8580 C.2    83  GLU83       0.2592
     37  O          4.2840   -0.4940   50.7930 O.2    83  GLU83      -0.2718
     38  CB         6.7250    0.4810   52.8820 C.3    83  GLU83       0.0402
     39  CG         7.1960    1.7790   53.5190 C.3    83  GLU83       0.1161
     40  CD         8.6910    1.7700   53.8550 C.2    83  GLU83       0.3649
     41  OE1        9.4110    0.7960   53.4960 O.co2  83  GLU83      -0.2457
     42  OE2        9.1460    2.7400   54.5050 O.co2  83  GLU83      -0.2457
     43  N          5.1430   -2.0100   52.2090 N.am   84  GLY84      -0.1957
     44  CA         4.7960   -3.1310   51.3940 C.3    84  GLY84       0.1869
     45  C          3.3300   -3.1740   51.0490 C.2    84  GLY84       0.2309
     46  O          2.9530   -3.4380   49.9140 O.2    84  GLY84      -0.2863
     47  N          1.1130   -0.7390   50.9270 N.3    86  ILE86      -0.1231
     48  CA         0.6870    0.3320   49.9690 C.3    86  ILE86       0.1692
     49  C          0.7280   -0.1760   48.5270 C.2    86  ILE86       0.2591
     50  O         -0.2010    0.0420   47.7350 O.2    86  ILE86      -0.2718
     51  CB         1.5560    1.6020   50.1210 C.3    86  ILE86       0.0266
     52  CG1        1.2030    2.3510   51.4000 C.3    86  ILE86       0.0019
     53  CG2        1.3730    2.5400   48.9250 C.3    86  ILE86       0.0020
     54  CD1        2.2470    3.3570   51.7990 C.3    86  ILE86       0.0001
     55  N          1.7500   -0.9660   48.2220 N.am   87  MET87      -0.1979
     56  CA         1.9020   -1.5490   46.8880 C.3    87  MET87       0.1605
     57  C          0.8450   -2.5660   46.5060 C.2    87  MET87       0.2287
     58  O          0.6000   -2.7810   45.3270 O.2    87  MET87      -0.2864
     59  CB         3.2650   -2.2140   46.7370 C.3    87  MET87       0.0413
     60  CG         4.4050   -1.2720   46.5710 C.3    87  MET87       0.0598
     61  SD         5.8630   -2.2290   46.0550 S.3    87  MET87      -0.1393
     62  CE         6.4420   -2.6920   47.6760 C.3    87  MET87       0.0692
     63  N         -1.7370   -1.3500   44.1860 N.3    90  PHE90      -0.1241
     64  CA        -1.3560   -0.9850   42.8120 C.3    90  PHE90       0.1605
     65  C         -1.4440   -2.1230   41.8290 C.2    90  PHE90       0.2264
     66  O         -0.8110   -3.1730   42.0090 O.2    90  PHE90      -0.2867
     67  CB         0.0740   -0.4540   42.7470 C.3    90  PHE90       0.0534
     68  CG         0.3400    0.7500   43.6050 C.ar   90  PHE90      -0.0203
     69  CD1       -0.6590    1.6170   43.9750 C.ar   90  PHE90      -0.0042
     70  CD2        1.6440    1.0340   43.9900 C.ar   90  PHE90      -0.0042
     71  CE1       -0.3860    2.6960   44.7900 C.ar   90  PHE90      -0.0003
     72  CE2        1.9320    2.1410   44.7720 C.ar   90  PHE90      -0.0003
     73  CZ         0.8980    2.9780   45.1600 C.ar   90  PHE90      -0.0000
     74  N          3.6720    0.2950   37.1250 N.3    95  VAL95      -0.1231
     75  CA         3.7900    0.5400   38.5460 C.3    95  VAL95       0.1692
     76  C          4.2510   -0.7260   39.2470 C.2    95  VAL95       0.2591
     77  O          3.6620   -1.7860   39.0720 O.2    95  VAL95      -0.2718
     78  CB         2.4360    1.0350   39.1620 C.3    95  VAL95       0.0266
     79  CG1        2.5710    1.3090   40.6360 C.3    95  VAL95       0.0020
     80  CG2        1.9720    2.2980   38.4610 C.3    95  VAL95       0.0020
     81  N          5.3120   -0.5940   40.0430 N.am   96  LEU96      -0.1980
     82  CA         5.8830   -1.7350   40.7510 C.3    96  LEU96       0.1596
     83  C          4.8530   -2.2360   41.7720 C.2    96  LEU96       0.2287
     84  O          4.3000   -1.4480   42.5450 O.2    96  LEU96      -0.2864
     85  CB         7.1730   -1.3770   41.4450 C.3    96  LEU96       0.0297
     86  CG         7.8460   -2.5560   42.1470 C.3    96  LEU96       0.0022
     87  CD1        8.2910   -3.6340   41.1680 C.3    96  LEU96       0.0001
     88  CD2        8.9870   -2.0150   43.0220 C.3    96  LEU96       0.0001
     89  N          9.6670   -8.9840   52.0960 N.3   111  VAL111     -0.1245
     90  CA         8.8470   -8.4400   51.0410 C.3   111  VAL111      0.1561
     91  C          9.3480   -8.9570   49.6810 C.2   111  VAL111      0.2260
     92  O         10.5080   -8.7870   49.3390 O.2   111  VAL111     -0.2867
     93  CB         8.8190   -6.9080   51.0690 C.3   111  VAL111      0.0252
     94  CG1        8.1470   -6.3580   49.8140 C.3   111  VAL111      0.0019
     95  CG2        8.1050   -6.4160   52.3030 C.3   111  VAL111      0.0019
     96  N          9.2720   -9.1860   45.6880 N.3   113  LEU113     -0.1231
     97  CA         9.0380   -8.2770   44.5310 C.3   113  LEU113      0.1678
     98  C          9.3690   -9.0160   43.2330 C.2   113  LEU113      0.2434
     99  O         10.2210   -9.9160   43.1970 O.2   113  LEU113     -0.2733
    100  CB         9.9330   -7.0300   44.6570 C.3   113  LEU113      0.0284
    101  CG         9.7660   -6.2040   45.9380 C.3   113  LEU113      0.0019
    102  CD1       10.8060   -5.0830   45.9730 C.3   113  LEU113      0.0001
    103  CD2        8.3840   -5.5720   45.9590 C.3   113  LEU113      0.0001
    104  N          8.7190   -8.6120   42.1220 N.am  114  PRO114     -0.2718
    105  CA         9.0950   -9.2060   40.8700 C.3   114  PRO114      0.1535
    106  C         10.5650   -8.8190   40.5120 C.2   114  PRO114      0.2599
    107  O         11.0520   -7.7580   40.8780 O.2   114  PRO114     -0.2715
    108  CB         8.0620   -8.6390   39.8660 C.3   114  PRO114      0.0310
    109  CG         7.5490   -7.3910   40.5030 C.3   114  PRO114      0.0237
    110  CD         7.6480   -7.6010   41.9920 C.3   114  PRO114      0.0939
    111  N         11.2340   -9.7230   39.8290 N.am  115  TYR115     -0.1960
    112  CA        12.6220   -9.5040   39.4660 C.3   115  TYR115      0.1771
    113  C         12.6260   -8.6170   38.2300 C.2   115  TYR115      0.2619
    114  O         11.8980   -8.8950   37.2800 O.2   115  TYR115     -0.2715
    115  CB        13.2660  -10.7980   39.0990 C.3   115  TYR115      0.0574
    116  CG        14.7210  -10.5990   38.7590 C.ar  115  TYR115     -0.0198
    117  CD1       15.5980  -10.1460   39.6950 C.ar  115  TYR115     -0.0009
    118  CD2       15.1990  -10.8820   37.4900 C.ar  115  TYR115     -0.0009
    119  CE1       16.9340   -9.9510   39.4020 C.ar  115  TYR115      0.0417
    120  CE2       16.5330  -10.6770   37.1890 C.ar  115  TYR115      0.0417
    121  CZ        17.3810  -10.2210   38.1310 C.ar  115  TYR115      0.1957
    122  OH        18.7310  -10.0520   37.8240 O.3   115  TYR115     -0.2866
    123  N         13.4130   -7.5520   38.2950 N.am  116  MET116     -0.1963
    124  CA        13.5100   -6.5260   37.2180 C.3   116  MET116      0.1736
    125  C         14.9160   -6.6490   36.6140 C.2   116  MET116      0.2616
    126  O         15.8790   -6.0630   37.1270 O.2   116  MET116     -0.2715
    127  CB        13.3820   -5.1420   37.8010 C.3   116  MET116      0.0427
    128  CG        12.0750   -4.8960   38.5510 C.3   116  MET116      0.0599
    129  SD        10.7530   -4.7420   37.3350 S.3   116  MET116     -0.1393
    130  CE         9.6930   -6.1250   37.6250 C.3   116  MET116      0.0692
    131  N         14.9830   -7.4270   35.5420 N.am  117  LYS117     -0.1977
    132  CA        16.2470   -7.9010   34.8990 C.3   117  LYS117      0.1596
    133  C         17.2230   -6.7810   34.6150 C.2   117  LYS117      0.2287
    134  O         18.4330   -6.9170   34.8610 O.2   117  LYS117     -0.2864
    135  CB        15.9160   -8.6660   33.6010 C.3   117  LYS117      0.0298
    136  CG        17.1500   -9.2150   32.8280 C.3   117  LYS117      0.0038
    137  CD        16.7230   -9.9580   31.5790 C.3   117  LYS117      0.0206
    138  CE        17.9490  -10.3910   30.7420 C.3   117  LYS117      0.1093
    139  NZ        17.5100  -10.9220   29.4420 N.3   117  LYS117     -0.1314
    140  N         17.3070   -3.7310   35.9960 N.3   119  GLY119     -0.1225
    141  CA        17.6510   -2.8160   37.0750 C.3   119  GLY119      0.1811
    142  C         16.9800   -1.4460   36.9910 C.2   119  GLY119      0.2280
    143  O         15.9160   -1.3080   36.3710 O.2   119  GLY119     -0.2866
    144  N         -1.3490    6.2600   39.1220 N.3   151  LEU151     -0.1245
    145  CA        -1.1420    6.7250   40.4820 C.3   151  LEU151      0.1561
    146  C         -1.9390    7.9790   40.8270 C.2   151  LEU151      0.2260
    147  O         -2.5840    8.0460   41.9000 O.2   151  LEU151     -0.2867
    148  CB         0.3430    6.9570   40.7400 C.3   151  LEU151      0.0270
    149  CG         1.1020    5.6400   40.7560 C.3   151  LEU151      0.0019
    150  CD1        2.5860    5.9450   40.9290 C.3   151  LEU151      0.0001
    151  CD2        0.6530    4.6580   41.8530 C.3   151  LEU151      0.0001
    152  N         -2.4910    9.0420   44.7540 N.3   156  PHE156     -0.1241
    153  CA        -1.1950    8.8030   45.3040 C.3   156  PHE156      0.1605
    154  C         -0.2270    9.8430   44.7600 C.2   156  PHE156      0.2264
    155  O         -0.0650    9.9870   43.5270 O.2   156  PHE156     -0.2867
    156  CB        -0.7210    7.3980   44.9380 C.3   156  PHE156      0.0534
    157  CG         0.6180    7.0270   45.4990 C.ar  156  PHE156     -0.0203
    158  CD1        0.7330    6.5230   46.7820 C.ar  156  PHE156     -0.0042
    159  CD2        1.7540    7.0940   44.7120 C.ar  156  PHE156     -0.0042
    160  CE1        1.9560    6.1560   47.2890 C.ar  156  PHE156     -0.0003
    161  CE2        2.9820    6.7330   45.2150 C.ar  156  PHE156     -0.0003
    162  CZ         3.0820    6.2510   46.5080 C.ar  156  PHE156     -0.0000
    163  N          3.6950   10.6780   44.6170 N.3   158  HIS158     -0.1241
    164  CA         4.9440    9.9460   44.6800 C.3   158  HIS158      0.1621
    165  C          5.9730   10.6060   45.5800 C.2   158  HIS158      0.2264
    166  O          6.6120    9.9470   46.4040 O.2   158  HIS158     -0.2867
    167  CB         5.4860    9.7830   43.2620 C.3   158  HIS158      0.0745
    168  CG         6.5860    8.7920   43.1480 C.ar  158  HIS158      0.0817
    169  ND1        7.7960    8.9680   43.7340 N.ar  158  HIS158     -0.2268
    170  CD2        6.6530    7.5960   42.4590 C.ar  158  HIS158      0.1154
    171  CE1        8.5790    7.9260   43.4490 C.ar  158  HIS158      0.1986
    172  NE2        7.8860    7.0720   42.6900 N.ar  158  HIS158     -0.2212
    173  N         12.2840    1.1460   37.4740 N.3   167  MET167     -0.1245
    174  CA        12.9760   -0.0570   37.1190 C.3   167  MET167      0.1570
    175  C         12.5020   -0.6050   35.8000 C.2   167  MET167      0.2261
    176  O         11.4280   -0.2180   35.2720 O.2   167  MET167     -0.2867
    177  CB        12.8450   -1.0600   38.2940 C.3   167  MET167      0.0387
    178  CG        13.7820   -0.6190   39.4520 C.3   167  MET167      0.0595
    179  SD        13.8870   -1.9890   40.6450 S.3   167  MET167     -0.1393
    180  CE        12.1750   -1.9470   41.1200 C.3   167  MET167      0.0692
    181  N          7.3660    2.2620   37.6610 N.3   176  VAL176     -0.1231
    182  CA         7.5760    3.3600   38.5810 C.3   176  VAL176      0.1692
    183  C          7.6610    2.7650   40.0150 C.2   176  VAL176      0.2592
    184  O          6.8500    1.9270   40.3760 O.2   176  VAL176     -0.2718
    185  CB         6.4870    4.3770   38.5030 C.3   176  VAL176      0.0266
    186  CG1        6.7160    5.4430   39.5560 C.3   176  VAL176      0.0020
    187  CG2        6.4320    5.0060   37.0770 C.3   176  VAL176      0.0020
    188  N          8.6370    3.2160   40.7840 N.am  177  ALA177     -0.1966
    189  CA         8.8920    2.6670   42.1290 C.3   177  ALA177      0.1728
    190  C          9.4980    3.6960   43.0410 C.2   177  ALA177      0.2616
    191  O          9.6490    4.8410   42.6780 O.2   177  ALA177     -0.2715
    192  CB         9.7800    1.4460   42.0320 C.3   177  ALA177      0.0334
    193  N          9.9110    3.3030   44.2480 N.am  178  ASP178     -0.1957
    194  CA        10.6220    4.2610   45.1090 C.3   178  ASP178      0.1840
    195  C         11.6170    3.4520   45.9460 C.2   178  ASP178      0.2622
    196  O         11.1790    2.6470   46.7820 O.2   178  ASP178     -0.2715
    197  CB         9.6330    4.9660   45.9850 C.3   178  ASP178      0.1450
    198  CG        10.2510    6.0480   46.8420 C.2   178  ASP178      0.3671
    199  OD1       11.4930    6.1400   46.9320 O.co2 178  ASP178     -0.2456
    200  OD2        9.4640    6.8270   47.4140 O.co2 178  ASP178     -0.2456
    201  N         12.9200    3.6510   45.6980 N.am  179  PHE179     -0.1974
    202  CA        13.9510    2.8910   46.3950 C.3   179  PHE179      0.1639
    203  C         14.0090    3.3020   47.8740 C.2   179  PHE179      0.2290
    204  O         14.5400    2.5570   48.7000 O.2   179  PHE179     -0.2864
    205  CB        15.3180    3.0480   45.7190 C.3   179  PHE179      0.0560
    206  CG        15.4900    2.1710   44.4920 C.ar  179  PHE179     -0.0200
    207  CD1       16.3680    1.1120   44.4890 C.ar  179  PHE179     -0.0042
    208  CD2       14.7520    2.4080   43.3410 C.ar  179  PHE179     -0.0042
    209  CE1       16.5240    0.3220   43.3560 C.ar  179  PHE179     -0.0003
    210  CE2       14.9110    1.6280   42.2040 C.ar  179  PHE179     -0.0003
    211  CZ        15.8160    0.5900   42.2090 C.ar  179  PHE179     -0.0000
@<TRIPOS>BOND
     1   139   138    1
     2   138   137    1
     3   137   136    1
     4   136   135    1
     5   135   132    1
     6   133   134    2
     7   133   132    1
     8   132   131    1
     9   176   175    2
    10   131   125   am
    11   175   174    1
    12   140   141    1
    13   143   142    2
    14   125   126    2
    15   125   124    1
    16   142   141    1
    17   187   185    1
    18   174   173    1
    19   174   177    1
    20    74    75    1
    21   120   118   ar
    22   120   121   ar
    23   124   127    1
    24   124   123    1
    25   114   113    2
    26   129   130    1
    27   129   128    1
    28   118   116   ar
    29   181   182    1
    30   127   128    1
    31   122   121    1
    32   121   119   ar
    33   113   123   am
    34   113   112    1
    35   177   178    1
    36    80    78    1
    37   185   182    1
    38   185   186    1
    39    75    78    1
    40    75    76    1
    41   182   183    1
    42   116   115    1
    43   116   117   ar
    44    77    76    2
    45   115   112    1
    46   144   145    1
    47    78    79    1
    48    76    81   am
    49   119   117   ar
    50   178   179    1
    51   112   111    1
    52   111   106   am
    53   108   109    1
    54   108   105    1
    55   183   184    2
    56   183   188   am
    57    81    82    1
    58   145   148    1
    59   145   146    1
    60   109   110    1
    61   106   105    1
    62   106   107    2
    63   179   180    1
    64   148   149    1
    65    82    85    1
    66    82    83    1
    67   149   150    1
    68   149   151    1
    69   188   189    1
    70   146   147    2
    71   105   104    1
    72    87    86    1
    73    85    86    1
    74    83    84    2
    75    65    66    2
    76    65    64    1
    77   110   104    1
    78   192   189    1
    79   104    98   am
    80   189   190    1
    81    86    88    1
    82   210   211   ar
    83   210   208   ar
    84   211   209   ar
    85   170   172   ar
    86   170   168   ar
    87   191   190    2
    88   172   171   ar
    89    67    64    1
    90    67    68    1
    91    64    63    1
    92   190   193   am
    93   168   167    1
    94   168   169   ar
    95    99    98    2
    96    98    97    1
    97   167   164    1
    98   208   206   ar
    99   209   207   ar
   100     7     5    1
   101   171   169   ar
   102     8     6    1
   103   155   154    2
   104    68    69   ar
   105    68    70   ar
   106    20    21    1
   107     6     5    1
   108    69    71   ar
   109    70    72   ar
   110    24    21    1
   111   193   194    1
   112     5     2    1
   113     4     3    2
   114   207   206   ar
   115   206   205    1
   116    97   100    1
   117    97    96    1
   118    21    22    1
   119   163   164    1
   120   100   101    1
   121   164   165    1
   122   159   161   ar
   123   159   157   ar
   124   152   153    1
   125   154   153    1
   126    72    73   ar
   127    71    73   ar
   128     2     3    1
   129     2     1    1
   130   156   153    1
   131   156   157    1
   132   194   195    1
   133   194   197    1
   134   161   162   ar
   135     3     9   am
   136    58    57    2
   137   157   158   ar
   138   165   166    2
   139   201   195   am
   140   201   202    1
   141   205   202    1
   142   101   103    1
   143   101   102    1
   144    22    23    2
   145   195   196    2
   146   197   198    1
   147    61    60    1
   148    61    62    1
   149   202   203    1
   150     9    10    1
   151    57    56    1
   152   162   160   ar
   153    60    59    1
   154    18    17    1
   155    59    56    1
   156   158   160   ar
   157   198   199   ar
   158   198   200   ar
   159    56    55    1
   160    10    11    1
   161    17    19    1
   162    17    14    1
   163    16    15    2
   164    50    49    2
   165   203   204    2
   166    15    14    1
   167    55    49   am
   168    11    12    2
   169    49    48    1
   170    14    13    1
   171    53    51    1
   172    92    91    2
   173    91    90    1
   174    25    26    1
   175    94    93    1
   176    46    45    2
   177    48    51    1
   178    48    47    1
   179    51    52    1
   180    29    26    1
   181    29    30    1
   182    26    27    1
   183    37    36    2
   184    31    30    1
   185    31    32    1
   186    90    93    1
   187    90    89    1
   188    45    44    1
   189    93    95    1
   190    44    43    1
   191    52    54    1
   192    32    33    1
   193    36    43   am
   194    36    35    1
   195    27    28    2
   196    35    38    1
   197    35    34    1
   198    38    39    1
   199    41    40   ar
   200    39    40    1
   201    40    42   ar
