@<TRIPOS>MOLECULE
tmp/4ef1A00.pdb
 140 135 0 0 0
SMALL
GASTEIGER

@<TRIPOS>ATOM
      1  N        -11.8550  -25.4880   -5.7350 N.3    14  HIS14      -0.1241
      2  CA       -11.4660  -26.8680   -5.4170 C.3    14  HIS14       0.1621
      3  C        -12.5320  -27.7130   -4.7490 C.2    14  HIS14       0.2264
      4  O        -12.8860  -28.7700   -5.2650 O.2    14  HIS14      -0.2867
      5  CB       -10.1840  -26.9070   -4.6070 C.3    14  HIS14       0.0745
      6  CG        -9.0800  -26.0580   -5.1850 C.ar   14  HIS14       0.0817
      7  ND1       -9.1530  -24.7110   -5.2230 N.ar   14  HIS14      -0.2268
      8  CD2       -7.8650  -26.3920   -5.7040 C.ar   14  HIS14       0.1154
      9  CE1       -8.0630  -24.2110   -5.7720 C.ar   14  HIS14       0.1986
     10  NE2       -7.2510  -25.2310   -6.0620 N.ar   14  HIS14      -0.2212
     11  N         -3.0310  -21.8940    3.2970 N.3    40  TYR40      -0.1241
     12  CA        -2.1340  -22.6840    2.4790 C.3    40  TYR40       0.1605
     13  C         -1.1240  -23.5130    3.2860 C.2    40  TYR40       0.2264
     14  O         -0.2770  -24.1640    2.6990 O.2    40  TYR40      -0.2867
     15  CB        -1.3690  -21.7890    1.4560 C.3    40  TYR40       0.0534
     16  CG        -2.1170  -21.1340    0.2960 C.ar   40  TYR40      -0.0201
     17  CD1       -3.4200  -21.4850   -0.0420 C.ar   40  TYR40      -0.0009
     18  CD2       -1.4740  -20.1530   -0.4930 C.ar   40  TYR40      -0.0009
     19  CE1       -4.0660  -20.8870   -1.1080 C.ar   40  TYR40       0.0417
     20  CE2       -2.1230  -19.5740   -1.5540 C.ar   40  TYR40       0.0417
     21  CZ        -3.4160  -19.9330   -1.8500 C.ar   40  TYR40       0.1957
     22  OH        -4.0740  -19.3640   -2.9170 O.3    40  TYR40      -0.2866
     23  N         -5.1130  -28.0510   -3.5480 N.3    57  PHE57      -0.1227
     24  CA        -5.0600  -26.6040   -3.2940 C.3    57  PHE57       0.1736
     25  C         -3.8090  -25.9040   -3.8510 C.2    57  PHE57       0.2598
     26  O         -3.8290  -24.6880   -4.0120 O.2    57  PHE57      -0.2717
     27  CB        -5.1750  -26.3250   -1.7660 C.3    57  PHE57       0.0547
     28  CG        -3.8640  -26.3990   -1.0490 C.ar   57  PHE57      -0.0202
     29  CD1       -3.3050  -27.6240   -0.7320 C.ar   57  PHE57      -0.0042
     30  CD2       -3.2000  -25.2490   -0.6800 C.ar   57  PHE57      -0.0042
     31  CE1       -2.1000  -27.6920   -0.0840 C.ar   57  PHE57      -0.0003
     32  CE2       -1.9780  -25.3120   -0.0340 C.ar   57  PHE57      -0.0003
     33  CZ        -1.4340  -26.5320    0.2680 C.ar   57  PHE57      -0.0000
     34  N         -2.7180  -26.6300   -4.0770 N.am   58  GLN58      -0.1920
     35  CA        -1.4110  -26.0100   -4.4020 C.3    58  GLN58       0.1949
     36  C         -0.8760  -26.3620   -5.7710 C.2    58  GLN58       0.2658
     37  O         -1.1850  -27.4350   -6.2990 O.2    58  GLN58      -0.2711
     38  CB        -0.3640  -26.4460   -3.3750 C.2    58  GLN58       0.0091
     39  CG         0.0360  -27.9120   -3.3920 C.2    58  GLN58       0.0587
     40  CD         0.7470  -28.4050   -2.1350 C.2    58  GLN58       0.2841
     41  OE1        1.6290  -27.7280   -1.5940 O.2    58  GLN58      -0.2667
     42  NE2        0.3550  -29.6120   -1.6610 N.am   58  GLN58      -0.0837
     43  N         -0.0130  -25.4800   -6.2910 N.am   59  HIS59      -0.1970
     44  CA         0.7520  -25.7110   -7.5020 C.3    59  HIS59       0.1656
     45  C          2.1280  -26.2610   -7.1600 C.2    59  HIS59       0.2291
     46  O          2.5050  -26.2570   -6.0020 O.2    59  HIS59      -0.2864
     47  CB         0.8100  -24.4520   -8.3950 C.3    59  HIS59       0.0771
     48  CG         1.2740  -23.1720   -7.7050 C.ar   59  HIS59       0.0820
     49  ND1        2.5010  -23.0460   -7.1400 N.ar   59  HIS59      -0.2267
     50  CD2        0.6920  -21.9150   -7.6530 C.ar   59  HIS59       0.1154
     51  CE1        2.6590  -21.7830   -6.6620 C.ar   59  HIS59       0.1986
     52  NE2        1.5600  -21.0850   -6.9750 N.ar   59  HIS59      -0.2212
     53  N          4.8840  -24.1550   -5.2230 N.3    62  PHE62      -0.1241
     54  CA         4.5240  -24.0180   -3.8340 C.3    62  PHE62       0.1605
     55  C          4.8030  -25.3560   -3.1070 C.2    62  PHE62       0.2264
     56  O          5.3700  -25.3720   -2.0340 O.2    62  PHE62      -0.2867
     57  CB         3.0480  -23.6460   -3.6820 C.3    62  PHE62       0.0534
     58  CG         2.6300  -23.4310   -2.2520 C.ar   62  PHE62      -0.0203
     59  CD1        2.2550  -24.4950   -1.4730 C.ar   62  PHE62      -0.0042
     60  CD2        2.6030  -22.1560   -1.7060 C.ar   62  PHE62      -0.0042
     61  CE1        1.8830  -24.3140   -0.1410 C.ar   62  PHE62      -0.0003
     62  CE2        2.2290  -21.9560   -0.3840 C.ar   62  PHE62      -0.0003
     63  CZ         1.8570  -23.0370    0.4050 C.ar   62  PHE62      -0.0000
     64  N         -5.0020  -21.5020  -12.5540 N.3    83  GLU83      -0.1245
     65  CA        -5.7030  -20.2930  -12.1150 C.3    83  GLU83       0.1567
     66  C         -4.8360  -19.0600  -12.4720 C.2    83  GLU83       0.2260
     67  O         -4.0790  -18.5710  -11.6100 O.2    83  GLU83      -0.2867
     68  CB        -5.8650  -20.3250  -10.5940 C.3    83  GLU83       0.0388
     69  CG        -6.7780  -21.3880  -10.1010 C.3    83  GLU83       0.1160
     70  CD        -6.9560  -21.3600   -8.5890 C.2    83  GLU83       0.3649
     71  OE1       -6.5550  -20.3710   -7.8630 O.co2  83  GLU83      -0.2457
     72  OE2       -7.5110  -22.3740   -8.1430 O.co2  83  GLU83      -0.2457
     73  N         -3.3750  -15.8190  -12.5020 N.3    85  VAL85      -0.1245
     74  CA        -3.4570  -14.9010  -11.3810 C.3    85  VAL85       0.1561
     75  C         -3.5470  -13.4370  -11.8720 C.2    85  VAL85       0.2260
     76  O         -2.9410  -13.0270  -12.8780 O.2    85  VAL85      -0.2867
     77  CB        -2.2450  -15.1040  -10.4410 C.3    85  VAL85       0.0252
     78  CG1       -0.9630  -14.6000  -11.1090 C.3    85  VAL85       0.0019
     79  CG2       -2.4800  -14.4640   -9.0740 C.3    85  VAL85       0.0019
     80  N          4.8730  -17.4720   -5.6480 N.3   112  ASP112     -0.1239
     81  CA         3.9920  -16.6620   -6.5180 C.3   112  ASP112      0.1674
     82  C          4.6690  -15.3610   -6.9700 C.2   112  ASP112      0.2266
     83  O          4.1180  -14.6440   -7.7900 O.2   112  ASP112     -0.2867
     84  CB         2.6720  -16.2960   -5.8150 C.3   112  ASP112      0.1410
     85  CG         1.6700  -17.4450   -5.7600 C.2   112  ASP112      0.3668
     86  OD1        1.6780  -18.3110   -6.6640 O.co2 112  ASP112     -0.2456
     87  OD2        0.8310  -17.4490   -4.8330 O.co2 112  ASP112     -0.2456
     88  N          5.2150  -14.6250  -10.6960 N.3   115  ARG115     -0.1197
     89  CA         3.9770  -14.3880  -11.4150 C.3   115  ARG115      0.1779
     90  C          3.6440  -12.8890  -11.5300 C.2   115  ARG115      0.2305
     91  O          3.2490  -12.4390  -12.5860 O.2   115  ARG115     -0.2863
     92  CB         2.8460  -15.1470  -10.7430 C.2   115  ARG115     -0.0007
     93  CG         3.0970  -16.6480  -10.5490 C.2   115  ARG115      0.0176
     94  CD         1.9860  -17.4000   -9.8720 C.3   115  ARG115      0.2464
     95  NE         0.8510  -17.7440  -10.7390 N.pl3 115  ARG115     -0.0815
     96  CZ        -0.2450  -18.3560  -10.3090 C.cat 115  ARG115      0.5349
     97  NH1       -0.3330  -18.7790   -9.0420 N.pl3 115  ARG115      0.1354
     98  NH2       -1.2150  -18.6300  -11.1580 N.pl3 115  ARG115      0.1354
     99  N         -4.5870  -14.5820   -5.3300 N.3   174  ASN174     -0.1225
    100  CA        -4.7140  -15.9100   -5.9450 C.3   174  ASN174      0.1785
    101  C         -6.2000  -16.0940   -6.3130 C.2   174  ASN174      0.2598
    102  O         -7.0990  -15.7150   -5.5610 O.2   174  ASN174     -0.2718
    103  CB        -4.2580  -17.0580   -5.0120 C.3   174  ASN174      0.1169
    104  CG        -2.8130  -16.9510   -4.5880 C.2   174  ASN174      0.2627
    105  OD1       -2.5120  -16.3150   -3.5670 O.2   174  ASN174     -0.2716
    106  ND2       -1.9210  -17.6320   -5.3060 N.am  174  ASN174     -0.0877
    107  N         -6.4570  -16.6650   -7.4730 N.am  175  SER175     -0.1938
    108  CA        -7.8340  -16.7560   -8.0110 C.3   175  SER175      0.2055
    109  C         -8.8200  -17.4990   -7.1410 C.2   175  SER175      0.2643
    110  O         -9.9900  -17.1430   -7.1410 O.2   175  SER175     -0.2714
    111  CB        -7.8370  -17.3240   -9.4140 C.3   175  SER175      0.2130
    112  OG        -7.0980  -16.4930  -10.2740 O.3   175  SER175     -0.2179
    113  N         -8.3510  -18.4970   -6.3880 N.am  176  ASN176     -0.1971
    114  CA        -9.2340  -19.2360   -5.4750 C.3   176  ASN176      0.1688
    115  C         -9.8900  -18.2850   -4.4830 C.2   176  ASN176      0.2292
    116  O        -11.1080  -18.3120   -4.2830 O.2   176  ASN176     -0.2864
    117  CB        -8.5140  -20.4260   -4.7920 C.3   176  ASN176      0.1181
    118  CG        -7.5280  -20.0240   -3.7410 C.2   176  ASN176      0.2629
    119  OD1       -6.4120  -19.6300   -4.0530 O.2   176  ASN176     -0.2716
    120  ND2       -7.9480  -20.1070   -2.4590 N.am  176  ASN176     -0.0877
    121  N          2.0210  -23.2690  -13.0130 N.3   199  TYR199     -0.1241
    122  CA         1.2380  -23.0950  -11.7970 C.3   199  TYR199      0.1605
    123  C         -0.0550  -23.9210  -11.7660 C.2   199  TYR199      0.2264
    124  O         -0.9950  -23.5430  -11.1050 O.2   199  TYR199     -0.2867
    125  CB         0.9510  -21.5920  -11.5620 C.3   199  TYR199      0.0534
    126  CG         2.2520  -20.8650  -11.4620 C.ar  199  TYR199     -0.0201
    127  CD1        3.0580  -21.0020  -10.3330 C.ar  199  TYR199     -0.0009
    128  CD2        2.7720  -20.1480  -12.5780 C.ar  199  TYR199     -0.0009
    129  CE1        4.3220  -20.4190  -10.2930 C.ar  199  TYR199      0.0417
    130  CE2        3.9940  -19.5340  -12.5120 C.ar  199  TYR199      0.0417
    131  CZ         4.7620  -19.6650  -11.3730 C.ar  199  TYR199      0.1957
    132  OH         5.9670  -19.0870  -11.3420 O.3   199  TYR199     -0.2866
    133  N         -2.5940  -26.5040  -10.4270 N.3   201  ASN201     -0.1240
    134  CA        -2.9260  -26.9850   -9.1000 C.3   201  ASN201      0.1653
    135  C         -3.0220  -28.5100   -9.1480 C.2   201  ASN201      0.2266
    136  O         -3.6420  -29.0650  -10.0650 O.2   201  ASN201     -0.2867
    137  CB        -4.2260  -26.3800   -8.6010 C.3   201  ASN201      0.1155
    138  CG        -4.0650  -24.9450   -8.1200 C.2   201  ASN201      0.2627
    139  OD1       -4.7620  -24.4910   -7.1980 O.2   201  ASN201     -0.2716
    140  ND2       -3.1270  -24.2140   -8.7490 N.am  201  ASN201     -0.0877
@<TRIPOS>BOND
     1   121   122    1
     2    76    75    2
     3    91    90    2
     4   128   130   ar
     5   128   126   ar
     6    64    65    1
     7   130   131   ar
     8    73    74    1
     9    66    65    1
    10    66    67    2
    11    65    68    1
    12    75    74    1
    13   122   123    1
    14   122   125    1
    15   123   124    2
    16   125   126    1
    17    90    89    1
    18   126   127   ar
    19    89    92    1
    20    89    88    1
    21    74    77    1
    22   131   132    1
    23   131   129   ar
    24    98    96    1
    25    78    77    1
    26    92    93    2
    27    95    96    2
    28    95    94    1
    29    68    69    1
    30    93    94    1
    31    77    79    1
    32   133   134    1
    33   127   129   ar
    34    96    97    1
    35   112   111    1
    36    69    70    1
    37   136   135    2
    38   111   108    1
    39   135   134    1
    40   134   137    1
    41   140   138   am
    42   137   138    1
    43    70    72   ar
    44    70    71   ar
    45    47    48    1
    46    47    44    1
    47   138   139    2
    48   108   107    1
    49   108   109    1
    50    83    82    2
    51    48    50   ar
    52    48    49   ar
    53    50    52   ar
    54    44    45    1
    55    44    43    1
    56   107   101   am
    57    45    46    2
    58   110   109    2
    59   109   113   am
    60    49    51   ar
    61    52    51   ar
    62    82    81    1
    63    86    85   ar
    64    81    84    1
    65    81    80    1
    66   113   114    1
    67   101   100    1
    68   101   102    2
    69    37    36    2
    70    43    36   am
    71    10     9   ar
    72    10     8   ar
    73   100    99    1
    74   100   103    1
    75    84    85    1
    76     9     7   ar
    77    36    35    1
    78    85    87   ar
    79     1     2    1
    80     8     6   ar
    81   114   117    1
    82   114   115    1
    83     2     3    1
    84     2     5    1
    85   106   104   am
    86     4     3    2
    87     7     6   ar
    88    53    54    1
    89     6     5    1
    90   103   104    1
    91   117   118    1
    92   104   105    2
    93   115   116    2
    94    35    34    1
    95    35    38    1
    96    34    25   am
    97   119   118    2
    98    26    25    2
    99    25    24    1
   100    54    57    1
   101    54    55    1
   102   118   120   am
   103    57    58    1
   104    23    24    1
   105    39    38    2
   106    39    40    1
   107    24    27    1
   108    55    56    2
   109    22    21    1
   110    58    60   ar
   111    58    59   ar
   112    40    42   am
   113    40    41    2
   114    21    20   ar
   115    21    19   ar
   116    27    28    1
   117    60    62   ar
   118    20    18   ar
   119    59    61   ar
   120    19    17   ar
   121    28    29   ar
   122    28    30   ar
   123    29    31   ar
   124    30    32   ar
   125    18    16   ar
   126    62    63   ar
   127    61    63   ar
   128    31    33   ar
   129    17    16   ar
   130    32    33   ar
   131    16    15    1
   132    15    12    1
   133    12    13    1
   134    12    11    1
   135    14    13    2
