@<TRIPOS>MOLECULE
tmp/4ef2A02.pdb
 123 118 0 0 0
SMALL
GASTEIGER

@<TRIPOS>ATOM
      1  N         10.5670   13.3220   23.6040 N.3    61  PRO61      -0.2116
      2  CA        11.7830   13.6380   22.7760 C.3    61  PRO61       0.1372
      3  C         12.6960   12.4250   22.5510 C.2    61  PRO61       0.2244
      4  O         13.1950   12.2290   21.4430 O.2    61  PRO61      -0.2868
      5  CB        12.4710   14.7420   23.5640 C.3    61  PRO61       0.0268
      6  CG        11.3360   15.4130   24.2950 C.3    61  PRO61       0.0207
      7  CD        10.3490   14.3320   24.6560 C.3    61  PRO61       0.0892
      8  N         19.2220   19.3310   25.9930 N.3   114  PRO114     -0.2102
      9  CA        18.6320   20.6560   26.2350 C.3   114  PRO114      0.1504
     10  C         18.2320   20.9180   27.6790 C.2   114  PRO114      0.2575
     11  O         18.1320   22.0600   28.0720 O.2   114  PRO114     -0.2718
     12  CB        17.4300   20.6890   25.3110 C.3   114  PRO114      0.0282
     13  CG        17.7290   19.6710   24.2250 C.3   114  PRO114      0.0208
     14  CD        18.4870   18.5890   24.9470 C.3   114  PRO114      0.0893
     15  N         18.0990   19.8580   28.4700 N.am  115  ARG115     -0.1980
     16  CA        17.6830   19.9550   29.8540 C.3   115  ARG115      0.1597
     17  C         18.8510   20.5100   30.7050 C.2   115  ARG115      0.2287
     18  O         18.6470   21.4090   31.5180 O.2   115  ARG115     -0.2864
     19  CB        17.1750   18.5890   30.3870 C.3   115  ARG115      0.0334
     20  CG        16.1020   17.9430   29.5230 C.3   115  ARG115      0.0492
     21  CD        15.6950   16.5450   29.9280 C.3   115  ARG115      0.2205
     22  NE        14.7430   16.5610   31.0580 N.pl3 115  ARG115     -0.0865
     23  CZ        14.2860   15.4790   31.6730 C.cat 115  ARG115      0.5346
     24  NH1       14.6850   14.3100   31.2770 N.pl3 115  ARG115      0.1354
     25  NH2       13.4730   15.5710   32.7460 N.pl3 115  ARG115      0.1354
     26  N         21.2170   22.2650   29.4770 N.3   117  LEU117     -0.1231
     27  CA        21.4330   23.5700   28.9330 C.3   117  LEU117      0.1693
     28  C         20.4720   24.5510   29.5790 C.2   117  LEU117      0.2592
     29  O         20.9140   25.6440   29.9330 O.2   117  LEU117     -0.2718
     30  CB        21.3170   23.5830   27.3570 C.3   117  LEU117      0.0284
     31  CG        22.4390   22.8300   26.5860 C.3   117  LEU117      0.0019
     32  CD1       22.2310   22.7350   25.0340 C.3   117  LEU117      0.0001
     33  CD2       23.8060   23.4430   26.8980 C.3   117  LEU117      0.0001
     34  N         19.1780   24.1800   29.7780 N.am  118  THR118     -0.1953
     35  CA        18.2590   25.0760   30.5170 C.3   118  THR118      0.1897
     36  C         18.6610   25.3100   31.9560 C.2   118  THR118      0.2313
     37  O         18.4570   26.4280   32.4850 O.2   118  THR118     -0.2863
     38  CB        16.7410   24.6170   30.4750 C.3   118  THR118      0.1794
     39  OG1       16.5500   23.3640   31.2010 O.3   118  THR118     -0.2208
     40  CG2       16.2530   24.4700   29.0190 C.3   118  THR118      0.0378
     41  N         21.6000   27.8430   31.8420 N.3   121  GLU121     -0.1245
     42  CA        21.0510   29.1040   31.4360 C.3   121  GLU121      0.1567
     43  C         20.3270   29.7740   32.6060 C.2   121  GLU121      0.2260
     44  O         20.5660   30.9480   32.8860 O.2   121  GLU121     -0.2867
     45  CB        20.1090   28.9370   30.2490 C.3   121  GLU121      0.0388
     46  CG        19.8360   30.2590   29.5540 C.3   121  GLU121      0.1160
     47  CD        19.0770   30.1070   28.2370 C.2   121  GLU121      0.3649
     48  OE1       18.4350   29.0950   27.9790 O.co2 121  GLU121     -0.2457
     49  OE2       19.1200   31.0250   27.4460 O.co2 121  GLU121     -0.2457
     50  N         22.7010   30.9630   24.9320 N.3   128  LEU128     -0.1245
     51  CA        22.5990   30.2430   23.6670 C.3   128  LEU128      0.1561
     52  C         22.5970   31.2270   22.5440 C.2   128  LEU128      0.2260
     53  O         22.1050   32.3330   22.7030 O.2   128  LEU128     -0.2867
     54  CB        21.3480   29.3780   23.6580 C.3   128  LEU128      0.0270
     55  CG        21.3300   28.2470   24.7200 C.3   128  LEU128      0.0019
     56  CD1       20.0000   27.5240   24.6370 C.3   128  LEU128      0.0001
     57  CD2       22.4850   27.2470   24.6170 C.3   128  LEU128      0.0001
     58  N         15.8770   25.6360   19.9150 N.3   134  ARG134     -0.1231
     59  CA        15.8450   25.1350   21.3030 C.3   134  ARG134      0.1694
     60  C         15.2170   23.7760   21.4710 C.2   134  ARG134      0.2592
     61  O         15.4120   23.1510   22.5200 O.2   134  ARG134     -0.2718
     62  CB        15.1650   26.1240   22.2810 C.3   134  ARG134      0.0321
     63  CG        15.9840   27.3380   22.6510 C.3   134  ARG134      0.0489
     64  CD        15.1660   28.4060   23.3650 C.3   134  ARG134      0.2205
     65  NE        16.0340   29.5430   23.6650 N.pl3 134  ARG134     -0.0865
     66  CZ        16.8080   29.6740   24.7510 C.cat 134  ARG134      0.5346
     67  NH1       16.8190   28.7990   25.7140 N.pl3 134  ARG134      0.1354
     68  NH2       17.6100   30.7200   24.8830 N.pl3 134  ARG134      0.1354
     69  N         14.4720   23.2820   20.4790 N.am  135  THR135     -0.1953
     70  CA        13.8770   21.9290   20.6300 C.3   135  THR135      0.1897
     71  C         14.9300   20.8500   20.4960 C.2   135  THR135      0.2313
     72  O         14.7670   19.7750   21.0230 O.2   135  THR135     -0.2863
     73  CB        12.7550   21.6420   19.6320 C.3   135  THR135      0.1794
     74  OG1       13.2820   21.6170   18.2950 O.3   135  THR135     -0.2208
     75  CG2       11.6670   22.7270   19.6910 C.3   135  THR135      0.0378
     76  N         18.4780   21.6570   21.1150 N.3   137  ALA137     -0.1245
     77  CA        19.6840   22.3940   21.5320 C.3   137  ALA137      0.1562
     78  C         20.8210   21.4330   21.9110 C.2   137  ALA137      0.2260
     79  O         20.5690   20.3650   22.4360 O.2   137  ALA137     -0.2867
     80  CB        19.4020   23.3910   22.6740 C.3   137  ALA137      0.0290
     81  N         13.6580   23.5090   35.7460 N.3   194  LYS194     -0.1231
     82  CA        12.5470   24.3400   36.2210 C.3   194  LYS194      0.1693
     83  C         11.2030   23.9810   35.5470 C.2   194  LYS194      0.2591
     84  O         10.1400   24.1290   36.1600 O.2   194  LYS194     -0.2718
     85  CB        12.8370   25.8300   36.0560 C.3   194  LYS194      0.0285
     86  CG        12.5940   26.3470   34.6580 C.3   194  LYS194      0.0035
     87  CD        12.7430   27.8610   34.5860 C.3   194  LYS194      0.0206
     88  CE        12.8710   28.2470   33.1240 C.3   194  LYS194      0.1093
     89  NZ        13.1480   29.6740   33.0040 N.3   194  LYS194     -0.1314
     90  N         11.2620   23.4990   34.3070 N.am  195  GLU195     -0.1979
     91  CA        10.0620   23.1710   33.5400 C.3   195  GLU195      0.1602
     92  C         10.2780   21.8360   32.7670 C.2   195  GLU195      0.2287
     93  O         10.9340   21.7740   31.7310 O.2   195  GLU195     -0.2864
     94  CB         9.7110   24.3310   32.5800 C.3   195  GLU195      0.0415
     95  CG         8.5580   24.0820   31.6300 C.3   195  GLU195      0.1163
     96  CD         7.2590   23.8680   32.3850 C.2   195  GLU195      0.3649
     97  OE1        6.5260   24.8610   32.6560 O.co2 195  GLU195     -0.2457
     98  OE2        6.9320   22.6830   32.6410 O.co2 195  GLU195     -0.2457
     99  N          7.6630   19.6910   31.6300 N.3   197  SER197     -0.1203
    100  CA         6.5020   19.2200   30.8770 C.3   197  SER197      0.2005
    101  C          6.8100   18.6030   29.4930 C.2   197  SER197      0.2461
    102  O          6.1370   17.6370   29.1100 O.2   197  SER197     -0.2732
    103  CB         5.4240   20.2870   30.7790 C.3   197  SER197      0.2103
    104  OG         5.8900   21.3650   30.0110 O.3   197  SER197     -0.2182
    105  N          7.8660   19.0690   28.7890 N.am  198  PRO198     -0.2717
    106  CA         8.1340   18.3790   27.5130 C.3   198  PRO198      0.1535
    107  C          8.6530   16.9410   27.6870 C.2   198  PRO198      0.2598
    108  O          8.6610   16.1920   26.7030 O.2   198  PRO198     -0.2715
    109  CB         9.2050   19.2500   26.8540 C.3   198  PRO198      0.0310
    110  CG         9.1440   20.5770   27.5730 C.3   198  PRO198      0.0237
    111  CD         8.7770   20.2210   28.9790 C.3   198  PRO198      0.0939
    112  N          9.0240   16.5560   28.9180 N.am  199  TYR199     -0.1974
    113  CA         9.6640   15.2930   29.2150 C.3   199  TYR199      0.1639
    114  C          8.7790   14.3030   29.9900 C.2   199  TYR199      0.2290
    115  O          9.2750   13.5210   30.7880 O.2   199  TYR199     -0.2864
    116  CB        11.0200   15.5460   29.9330 C.3   199  TYR199      0.0560
    117  CG        11.8980   16.4220   29.1020 C.ar  199  TYR199     -0.0198
    118  CD1       12.5670   15.9000   27.9720 C.ar  199  TYR199     -0.0009
    119  CD2       11.9890   17.8240   29.3590 C.ar  199  TYR199     -0.0009
    120  CE1       13.3560   16.7090   27.1700 C.ar  199  TYR199      0.0417
    121  CE2       12.7910   18.6320   28.5600 C.ar  199  TYR199      0.0417
    122  CZ        13.4410   18.0830   27.4450 C.ar  199  TYR199      0.1957
    123  OH        14.2220   18.8450   26.5990 O.3   199  TYR199     -0.2866
@<TRIPOS>BOND
     1    74    73    1
     2    73    75    1
     3    73    70    1
     4    58    59    1
     5    69    70    1
     6    69    60   am
     7    71    70    1
     8    71    72    2
     9    76    77    1
    10    59    60    1
    11    59    62    1
    12     4     3    2
    13    60    61    2
    14    77    78    1
    15    77    80    1
    16    78    79    2
    17    62    63    1
    18    52    53    2
    19    52    51    1
    20     3     2    1
    21    63    64    1
    22     2     5    1
    23     2     1    1
    24    64    65    1
    25     5     6    1
    26     1     7    1
    27    54    51    1
    28    54    55    1
    29    65    66    2
    30    51    50    1
    31    13    14    1
    32    13    12    1
    33     6     7    1
    34    57    55    1
    35    56    55    1
    36    66    68    1
    37    66    67    1
    38    14     8    1
    39    32    31    1
    40    12     9    1
    41     8     9    1
    42     9    10    1
    43    31    33    1
    44    31    30    1
    45   123   122    1
    46   108   107    2
    47   109   106    1
    48   109   110    1
    49   120   122   ar
    50   120   118   ar
    51    30    27    1
    52   122   121   ar
    53    49    47   ar
    54   106   107    1
    55   106   105    1
    56   110   111    1
    57    10    11    2
    58    10    15   am
    59   107   112   am
    60   118   117   ar
    61    48    47   ar
    62    47    46    1
    63    15    16    1
    64   121   119   ar
    65   105   111    1
    66   105   101   am
    67   112   113    1
    68    27    26    1
    69    27    28    1
    70    40    38    1
    71   117   119   ar
    72   117   116    1
    73   102   101    2
    74   113   116    1
    75   113   114    1
    76   101   100    1
    77    20    21    1
    78    20    19    1
    79    46    45    1
    80    28    34   am
    81    28    29    2
    82    34    35    1
    83    16    19    1
    84    16    17    1
    85    21    22    1
    86   114   115    2
    87   104   103    1
    88    45    42    1
    89    38    35    1
    90    38    39    1
    91    35    36    1
    92    17    18    2
    93   103   100    1
    94   100    99    1
    95    22    23    2
    96    24    23    1
    97    42    41    1
    98    42    43    1
    99    95    96    1
   100    95    94    1
   101    23    25    1
   102    93    92    2
   103    36    37    2
   104    96    98   ar
   105    96    97   ar
   106    94    91    1
   107    43    44    2
   108    92    91    1
   109    89    88    1
   110    88    87    1
   111    91    90    1
   112    90    83   am
   113    87    86    1
   114    86    85    1
   115    83    84    2
   116    83    82    1
   117    81    82    1
   118    85    82    1
