@<TRIPOS>MOLECULE
tmp/4ef3A00.pdb
 100 96 0 0 0
SMALL
GASTEIGER

@<TRIPOS>ATOM
      1  N         22.3270  -14.6010   -2.0800 N.3    53  ARG53      -0.1245
      2  CA        21.0670  -15.1280   -2.6190 C.3    53  ARG53       0.1563
      3  C         21.2880  -16.5610   -3.1000 C.2    53  ARG53       0.2260
      4  O         22.2740  -16.8550   -3.7770 O.2    53  ARG53      -0.2867
      5  CB        20.5240  -14.2710   -3.7660 C.3    53  ARG53       0.0307
      6  CG        19.1880  -14.7710   -4.2790 C.3    53  ARG53       0.0489
      7  CD        18.5270  -13.8480   -5.2770 C.3    53  ARG53       0.2205
      8  NE        17.1190  -14.2110   -5.4160 N.pl3  53  ARG53      -0.0865
      9  CZ        16.1910  -13.4840   -6.0330 C.cat  53  ARG53       0.5346
     10  NH1       16.4990  -12.3260   -6.6090 N.pl3  53  ARG53       0.1354
     11  NH2       14.9380  -13.9330   -6.0820 N.pl3  53  ARG53       0.1354
     12  N         13.3030  -12.1360    3.8950 N.3    77  GLU77      -0.1245
     13  CA        12.1740  -12.9520    3.4890 C.3    77  GLU77       0.1567
     14  C         12.4650  -14.3950    3.9120 C.2    77  GLU77       0.2260
     15  O         13.0220  -15.1950    3.1430 O.2    77  GLU77      -0.2867
     16  CB        11.9620  -12.8240    1.9820 C.3    77  GLU77       0.0388
     17  CG        11.6240  -11.4000    1.5340 C.3    77  GLU77       0.1160
     18  CD        11.6810  -11.2010    0.0140 C.2    77  GLU77       0.3649
     19  OE1       11.5800  -12.1910   -0.7540 O.co2  77  GLU77      -0.2457
     20  OE2       11.8240  -10.0320   -0.4130 O.co2  77  GLU77      -0.2457
     21  N         16.7260  -15.9910   -0.1870 N.3   103  ASP103     -0.1225
     22  CA        16.1870  -15.9620   -1.5470 C.3   103  ASP103      0.1805
     23  C         15.4730  -14.6500   -1.8340 C.2   103  ASP103      0.2598
     24  O         14.2460  -14.5870   -1.9760 O.2   103  ASP103     -0.2718
     25  CB        15.2730  -17.1440   -1.8160 C.3   103  ASP103      0.1424
     26  CG        14.8490  -17.2330   -3.2780 C.2   103  ASP103      0.3668
     27  OD1       15.5600  -16.7060   -4.1820 O.co2 103  ASP103     -0.2456
     28  OD2       13.7890  -17.8310   -3.5110 O.co2 103  ASP103     -0.2456
     29  N         16.2860  -13.6090   -1.9260 N.am  104  GLN104     -0.1966
     30  CA        15.8260  -12.2930   -2.2900 C.3   104  GLN104      0.1718
     31  C         16.9950  -11.5180   -2.8830 C.2   104  GLN104      0.2458
     32  O         18.1570  -11.9200   -2.7290 O.2   104  GLN104     -0.2730
     33  CB        15.2560  -11.5740   -1.0670 C.3   104  GLN104      0.0407
     34  CG        16.2880  -11.2040   -0.0200 C.3   104  GLN104      0.0908
     35  CD        15.6460  -10.8320    1.2930 C.2   104  GLN104      0.2608
     36  OE1       15.3370  -11.7000    2.1130 O.2   104  GLN104     -0.2717
     37  NE2       15.4330   -9.5370    1.5020 N.am  104  GLN104     -0.0878
     38  N         16.6970  -10.3950   -3.5520 N.am  105  PRO105     -0.2727
     39  CA        17.7720   -9.6410   -4.1890 C.3   105  PRO105      0.1402
     40  C         18.7420   -8.9910   -3.2060 C.2   105  PRO105      0.2269
     41  O         18.4550   -8.8700   -2.0040 O.2   105  PRO105     -0.2865
     42  CB        17.0310   -8.5660   -5.0010 C.3   105  PRO105      0.0296
     43  CG        15.6090   -9.0070   -5.0640 C.3   105  PRO105      0.0237
     44  CD        15.3640   -9.8430   -3.8620 C.3   105  PRO105      0.0939
     45  N         16.3360   -3.9580  -12.6690 N.3   307  SER307     -0.1217
     46  CA        15.0180   -3.9320  -13.2780 C.3   307  SER307      0.1889
     47  C         13.9830   -4.3110  -12.2150 C.2   307  SER307      0.2288
     48  O         14.0580   -5.3990  -11.6460 O.2   307  SER307     -0.2866
     49  CB        14.9870   -4.9280  -14.4360 C.3   307  SER307      0.2089
     50  OG        13.8520   -4.7360  -15.2540 O.3   307  SER307     -0.2183
     51  N         10.0760   -5.3600  -11.3680 N.3   309  PRO309     -0.2116
     52  CA         8.8600   -5.7870  -12.0580 C.3   309  PRO309      0.1372
     53  C          7.7750   -4.7170  -11.9740 C.2   309  PRO309      0.2244
     54  O          7.8440   -3.8300  -11.1180 O.2   309  PRO309     -0.2868
     55  CB         8.4380   -7.0460  -11.2950 C.3   309  PRO309      0.0268
     56  CG         9.0220   -6.8890   -9.9400 C.3   309  PRO309      0.0207
     57  CD        10.3120   -6.1350  -10.1350 C.3   309  PRO309      0.0892
     58  N         -0.1410  -11.6290   -4.1780 N.3   378  TYR378     -0.1241
     59  CA        -0.1170  -10.2200   -3.8040 C.3   378  TYR378      0.1605
     60  C         -1.4350   -9.8550   -3.1210 C.2   378  TYR378      0.2264
     61  O         -2.5170  -10.2800   -3.5480 O.2   378  TYR378     -0.2867
     62  CB         0.1230   -9.3120   -5.0200 C.3   378  TYR378      0.0534
     63  CG         1.5830   -9.0320   -5.3170 C.ar  378  TYR378     -0.0201
     64  CD1        2.3080   -8.1510   -4.5290 C.ar  378  TYR378     -0.0009
     65  CD2        2.2310   -9.6290   -6.3990 C.ar  378  TYR378     -0.0009
     66  CE1        3.6490   -7.8710   -4.7980 C.ar  378  TYR378      0.0417
     67  CE2        3.5750   -9.3600   -6.6760 C.ar  378  TYR378      0.0417
     68  CZ         4.2760   -8.4780   -5.8720 C.ar  378  TYR378      0.1957
     69  OH         5.6060   -8.1910   -6.1270 O.3   378  TYR378     -0.2866
     70  N         11.6610   -1.5630   -3.7020 N.3   418  TRP418     -0.1241
     71  CA        11.3940   -2.5720   -2.6810 C.3   418  TRP418      0.1605
     72  C         11.5440   -1.9500   -1.2980 C.2   418  TRP418      0.2264
     73  O         12.6100   -1.4130   -0.9540 O.2   418  TRP418     -0.2867
     74  CB        12.3230   -3.7700   -2.8430 C.3   418  TRP418      0.0550
     75  CG        12.0920   -4.5300   -4.1230 C.ar  418  TRP418      0.0003
     76  CD1       12.9460   -4.6330   -5.1850 C.ar  418  TRP418      0.0946
     77  CD2       10.9140   -5.2610   -4.4860 C.ar  418  TRP418      0.0152
     78  NE1       12.3780   -5.3870   -6.1850 N.ar  418  TRP418     -0.2442
     79  CE2       11.1310   -5.7890   -5.7800 C.ar  418  TRP418      0.0810
     80  CE3        9.6980   -5.5230   -3.8430 C.ar  418  TRP418      0.0012
     81  CZ2       10.1820   -6.5720   -6.4340 C.ar  418  TRP418      0.0191
     82  CZ3        8.7550   -6.3050   -4.4910 C.ar  418  TRP418      0.0001
     83  CH2        9.0020   -6.8190   -5.7780 C.ar  418  TRP418      0.0015
     84  N          3.4960   -9.4090   -0.9430 N.3   434  LYS434     -0.1245
     85  CA         3.4480  -10.8460   -1.1580 C.3   434  LYS434      0.1561
     86  C          4.3530  -11.5550   -0.1610 C.2   434  LYS434      0.2260
     87  O          5.4510  -11.0860    0.1440 O.2   434  LYS434     -0.2867
     88  CB         3.8810  -11.1930   -2.5910 C.3   434  LYS434      0.0271
     89  CG         3.8070  -12.6860   -2.9100 C.3   434  LYS434      0.0035
     90  CD         3.8670  -12.9860   -4.4040 C.3   434  LYS434      0.0206
     91  CE         5.1330  -12.4510   -5.0630 C.3   434  LYS434      0.1093
     92  NZ         6.3900  -12.8880   -4.3930 N.3   434  LYS434     -0.1314
     93  N          6.2910  -15.0590    0.4350 N.3   436  ASN436     -0.1240
     94  CA         6.7960  -16.2580   -0.2250 C.3   436  ASN436      0.1653
     95  C          6.9830  -17.4370    0.7300 C.2   436  ASN436      0.2266
     96  O          7.2390  -18.5600    0.2810 O.2   436  ASN436     -0.2867
     97  CB         8.1360  -15.9530   -0.9040 C.3   436  ASN436      0.1155
     98  CG         8.0200  -14.9160   -2.0070 C.2   436  ASN436      0.2627
     99  OD1        6.9980  -14.8240   -2.6840 O.2   436  ASN436     -0.2716
    100  ND2        9.0850  -14.1390   -2.2040 N.am  436  ASN436     -0.0877
@<TRIPOS>BOND
     1    50    49    1
     2    49    46    1
     3    46    45    1
     4    46    47    1
     5    47    48    2
     6    52    53    1
     7    52    51    1
     8    52    55    1
     9    53    54    2
    10    51    57    1
    11    55    56    1
    12    57    56    1
    13    67    65   ar
    14    67    68   ar
    15    10     9    1
    16    81    79   ar
    17    81    83   ar
    18    65    63   ar
    19    78    79   ar
    20    78    76   ar
    21    69    68    1
    22    11     9    1
    23     9     8    2
    24    68    66   ar
    25    79    77   ar
    26    83    82   ar
    27     8     7    1
    28    63    62    1
    29    63    64   ar
    30     7     6    1
    31    76    75   ar
    32    43    42    1
    33    43    44    1
    34    91    90    1
    35    91    92    1
    36    62    59    1
    37    42    39    1
    38    66    64   ar
    39    82    80   ar
    40    77    75   ar
    41    77    80   ar
    42    90    89    1
    43     6     5    1
    44    39    38    1
    45    39    40    1
    46    27    26   ar
    47    58    59    1
    48    75    74    1
    49    44    38    1
    50    59    60    1
    51     4     3    2
    52     5     2    1
    53    70    71    1
    54    38    31   am
    55    61    60    2
    56    28    26   ar
    57    26    25    1
    58    40    41    2
    59     3     2    1
    60    89    88    1
    61    31    32    2
    62    31    30    1
    63    74    71    1
    64    99    98    2
    65    71    72    1
    66     2     1    1
    67    88    85    1
    68    30    29    1
    69    30    33    1
    70   100    98   am
    71    98    97    1
    72    24    23    2
    73    29    23   am
    74    23    22    1
    75    25    22    1
    76    22    21    1
    77    72    73    2
    78    85    84    1
    79    85    86    1
    80    33    34    1
    81    97    94    1
    82    19    18   ar
    83    20    18   ar
    84    94    93    1
    85    94    95    1
    86    86    87    2
    87    34    35    1
    88    18    17    1
    89    96    95    2
    90    35    37   am
    91    35    36    2
    92    17    16    1
    93    16    13    1
    94    15    14    2
    95    13    12    1
    96    13    14    1
