@<TRIPOS>MOLECULE
tmp/4ef6A00.pdb
 124 120 0 0 0
SMALL
GASTEIGER

@<TRIPOS>ATOM
      1  N         14.8080   17.9720   -2.1230 N.3    43  HIS43      -0.1241
      2  CA        15.0250   18.0950   -3.5470 C.3    43  HIS43       0.1621
      3  C         13.8070   17.4500   -4.2410 C.2    43  HIS43       0.2264
      4  O         12.8370   17.1010   -3.5890 O.2    43  HIS43      -0.2867
      5  CB        16.3170   17.3430   -3.9260 C.3    43  HIS43       0.0745
      6  CG        16.4220   15.9490   -3.3530 C.ar   43  HIS43       0.0817
      7  ND1       15.6520   14.8900   -3.7950 N.ar   43  HIS43      -0.2268
      8  CD2       17.2600   15.4300   -2.4130 C.ar   43  HIS43       0.1154
      9  CE1       15.9880   13.7840   -3.1440 C.ar   43  HIS43       0.1986
     10  NE2       16.9530   14.0870   -2.2840 N.ar   43  HIS43      -0.2212
     11  N         13.2660   14.5510   -5.4750 N.3    45  GLY45      -0.1210
     12  CA        12.8920   13.2400   -4.9550 C.3    45  GLY45       0.1956
     13  C         11.8730   13.3430   -3.8050 C.2    45  GLY45       0.2611
     14  O         10.8690   12.6550   -3.8070 O.2    45  GLY45      -0.2717
     15  N         12.1540   14.1870   -2.8040 N.am   46  HIS46      -0.1975
     16  CA        11.2250   14.4420   -1.7180 C.3    46  HIS46       0.1656
     17  C          9.9410   15.0650   -2.2560 C.2    46  HIS46       0.2291
     18  O          8.8760   14.7630   -1.7360 O.2    46  HIS46      -0.2864
     19  CB        11.8150   15.4300   -0.6870 C.3    46  HIS46       0.0771
     20  CG        13.0720   14.9410   -0.0260 C.ar   46  HIS46       0.0820
     21  ND1       14.3020   15.5050   -0.2770 N.ar   46  HIS46      -0.2267
     22  CD2       13.2750   13.9860    0.9120 C.ar   46  HIS46       0.1154
     23  CE1       15.2140   14.9050    0.4660 C.ar   46  HIS46       0.1986
     24  NE2       14.6210   13.9680    1.1850 N.ar   46  HIS46      -0.2212
     25  N          7.4770   12.5320   -3.2020 N.3    49  LEU49      -0.1245
     26  CA         6.8490   11.9350   -2.0260 C.3    49  LEU49       0.1561
     27  C          5.6840   12.8540   -1.5950 C.2    49  LEU49       0.2260
     28  O          4.5790   12.3610   -1.3550 O.2    49  LEU49      -0.2867
     29  CB         7.8520   11.7460   -0.8570 C.3    49  LEU49       0.0270
     30  CG         9.1770   10.9830   -1.0930 C.3    49  LEU49       0.0019
     31  CD1       10.0100   10.8420    0.2140 C.3    49  LEU49       0.0001
     32  CD2        8.8970    9.6050   -1.7060 C.3    49  LEU49       0.0001
     33  N         26.0070   16.5880    7.5170 N.3    81  TYR81      -0.1241
     34  CA        24.7250   16.4800    6.8150 C.3    81  TYR81       0.1605
     35  C         24.2040   17.8690    6.3490 C.2    81  TYR81       0.2264
     36  O         24.2600   18.8110    7.1340 O.2    81  TYR81      -0.2867
     37  CB        23.6640   15.7440    7.6650 C.3    81  TYR81       0.0534
     38  CG        22.6490   15.1350    6.7720 C.ar   81  TYR81      -0.0201
     39  CD1       22.9030   13.9020    6.1590 C.ar   81  TYR81      -0.0009
     40  CD2       21.4480   15.8190    6.4760 C.ar   81  TYR81      -0.0009
     41  CE1       21.9400   13.3250    5.2440 C.ar   81  TYR81       0.0417
     42  CE2       20.4960   15.2780    5.5650 C.ar   81  TYR81       0.0417
     43  CZ        20.7690   14.0130    4.9730 C.ar   81  TYR81       0.1957
     44  OH        19.8860   13.4490    4.0970 O.3    81  TYR81      -0.2866
     45  N         11.0180    6.9440   -0.4020 N.3   157  GLY157     -0.1225
     46  CA        11.5440    6.6820   -1.7260 C.3   157  GLY157      0.1811
     47  C         12.0220    5.2420   -1.8460 C.2   157  GLY157      0.2280
     48  O         12.5380    4.6930   -0.8920 O.2   157  GLY157     -0.2866
     49  N         14.6630    4.7760   -3.5360 N.3   159  LYS159     -0.1231
     50  CA        16.0790    5.0410   -3.6330 C.3   159  LYS159      0.1693
     51  C         16.8750    4.3550   -2.4710 C.2   159  LYS159      0.2592
     52  O         17.8460    3.6520   -2.6900 O.2   159  LYS159     -0.2718
     53  CB        16.3270    6.5700   -3.6670 C.3   159  LYS159      0.0285
     54  CG        17.7740    6.9330   -4.1660 C.3   159  LYS159      0.0035
     55  CD        18.8310    6.8360   -3.1230 C.3   159  LYS159      0.0206
     56  CE        18.7820    8.0790   -2.3060 C.3   159  LYS159      0.1093
     57  NZ        19.7490    8.1820   -1.1620 N.3   159  LYS159     -0.1314
     58  N         16.4430    4.5710   -1.2420 N.am  160  ASP160     -0.1974
     59  CA        17.0630    3.8900   -0.1220 C.3   160  ASP160      0.1709
     60  C         16.2290    2.6310    0.0960 C.2   160  ASP160      0.2293
     61  O         15.4030    2.5250    1.0080 O.2   160  ASP160     -0.2864
     62  CB        17.0350    4.8040    1.0720 C.3   160  ASP160      0.1436
     63  CG        17.9140    6.0070    0.8700 C.2   160  ASP160      0.3671
     64  OD1       19.0980    5.8140    0.6990 O.co2 160  ASP160     -0.2456
     65  OD2       17.3930    7.1250    0.7580 O.co2 160  ASP160     -0.2456
     66  N          7.7440    5.0980   -3.1070 N.3   183  VAL183     -0.1231
     67  CA         7.6510    5.9410   -4.3030 C.3   183  VAL183      0.1678
     68  C          8.8910    5.7430   -5.1790 C.2   183  VAL183      0.2434
     69  O         10.0200    5.7680   -4.6480 O.2   183  VAL183     -0.2733
     70  CB         7.5200    7.4220   -3.8870 C.3   183  VAL183      0.0265
     71  CG1        7.5330    8.4310   -5.1100 C.3   183  VAL183      0.0020
     72  CG2        6.2780    7.5760   -3.1070 C.3   183  VAL183      0.0020
     73  N          8.6870    5.5300   -6.5160 N.am  184  PRO184     -0.2718
     74  CA         9.8070    5.3590   -7.4480 C.3   184  PRO184      0.1535
     75  C         10.8700    6.4460   -7.3270 C.2   184  PRO184      0.2599
     76  O         10.5400    7.6160   -7.1540 O.2   184  PRO184     -0.2715
     77  CB         9.1260    5.4150   -8.8260 C.3   184  PRO184      0.0310
     78  CG         7.7470    4.6750   -8.5180 C.3   184  PRO184      0.0237
     79  CD         7.3720    5.2780   -7.1690 C.3   184  PRO184      0.0939
     80  N         12.1230    6.0360   -7.3840 N.am  185  THR185     -0.1937
     81  CA        13.2700    6.9760   -7.4350 C.3   185  THR185      0.2028
     82  C         13.1460    8.0960   -8.5280 C.2   185  THR185      0.2642
     83  O         12.8390    7.8070   -9.6910 O.2   185  THR185     -0.2714
     84  CB        14.5770    6.1370   -7.6510 C.3   185  THR185      0.1808
     85  OG1       14.7380    5.2110   -6.5410 O.3   185  THR185     -0.2208
     86  CG2       15.8310    7.0370   -7.8190 C.3   185  THR185      0.0379
     87  N         13.3580    9.3560   -8.1550 N.am  186  VAL186     -0.1977
     88  CA        13.3070   10.4620   -9.1050 C.3   186  VAL186      0.1596
     89  C         14.7350   10.6170   -9.6250 C.2   186  VAL186      0.2287
     90  O         15.6730   10.5610   -8.8620 O.2   186  VAL186     -0.2864
     91  CB        12.7410   11.7940   -8.4590 C.3   186  VAL186      0.0276
     92  CG1       12.7520   12.9670   -9.4990 C.3   186  VAL186      0.0022
     93  CG2       11.3710   11.5570   -7.8720 C.3   186  VAL186      0.0022
     94  N         18.2250   11.0440   -7.8030 N.3   194  MET194     -0.1230
     95  CA        18.1880   12.2200   -6.8830 C.3   194  MET194      0.1702
     96  C         18.6690   11.8660   -5.4580 C.2   194  MET194      0.2593
     97  O         18.3020   10.8380   -4.9100 O.2   194  MET194     -0.2718
     98  CB        16.7820   12.7910   -6.7630 C.3   194  MET194      0.0401
     99  CG        16.2180   13.4080   -8.0450 C.3   194  MET194      0.0596
    100  SD        16.9000   15.0330   -8.3060 S.3   194  MET194     -0.1393
    101  CE        16.0130   15.5960   -9.7960 C.3   194  MET194      0.0692
    102  N         19.5190   12.7200   -4.8720 N.am  195  SER195     -0.1938
    103  CA        19.9410   12.4930   -3.4830 C.3   195  SER195      0.2055
    104  C         20.5150   13.7840   -2.9360 C.2   195  SER195      0.2644
    105  O         21.1070   14.5780   -3.7020 O.2   195  SER195     -0.2714
    106  CB        21.0290   11.3960   -3.4000 C.3   195  SER195      0.2130
    107  OG        21.5150   11.3640   -2.0690 O.3   195  SER195     -0.2179
    108  N         20.3310   13.9920   -1.6340 N.am  196  SER196     -0.1935
    109  CA        20.8900   15.1670   -0.9550 C.3   196  SER196      0.2055
    110  C         22.4090   15.1070   -1.0150 C.2   196  SER196      0.2642
    111  O         23.0640   16.1310   -0.8650 O.2   196  SER196     -0.2714
    112  CB        20.4280   15.2350    0.5270 C.3   196  SER196      0.2130
    113  OG        19.0170   15.4140    0.6440 O.3   196  SER196     -0.2179
    114  N         22.9590   13.9110   -1.2190 N.am  197  ARG197     -0.1977
    115  CA        24.4020   13.7420   -1.3670 C.3   197  ARG197      0.1597
    116  C         24.9920   14.1310   -2.7540 C.2   197  ARG197      0.2287
    117  O         26.2310   14.2580   -2.8610 O.2   197  ARG197     -0.2864
    118  CB        24.8410   12.3080   -1.0110 C.3   197  ARG197      0.0334
    119  CG        24.4210   11.8160    0.4300 C.3   197  ARG197      0.0492
    120  CD        24.0490   12.9760    1.4390 C.3   197  ARG197      0.2205
    121  NE        24.7540   12.7670    2.7000 N.pl3 197  ARG197     -0.0865
    122  CZ        24.5610   11.7010    3.4840 C.cat 197  ARG197      0.5346
    123  NH1       23.6360   10.7960    3.1380 N.pl3 197  ARG197      0.1354
    124  NH2       25.2870   11.5450    4.6020 N.pl3 197  ARG197      0.1354
@<TRIPOS>BOND
     1   101   100    1
     2    83    82    2
     3    89    88    1
     4    89    90    2
     5    92    91    1
     6    88    91    1
     7    88    87    1
     8    77    78    1
     9    77    74    1
    10    82    87   am
    11    82    81    1
    12    78    79    1
    13    91    93    1
    14   100    99    1
    15    99    98    1
    16    86    84    1
    17    94    95    1
    18    84    81    1
    19    84    85    1
    20    74    75    1
    21    74    73    1
    22    81    80    1
    23    80    75   am
    24    75    76    2
    25    79    73    1
    26    95    98    1
    27    95    96    1
    28    73    68   am
    29    11    12    1
    30    96    97    2
    31    96   102   am
    32    68    69    2
    33    68    67    1
    34    71    70    1
    35    12    13    1
    36   102   103    1
    37    67    70    1
    38    67    66    1
    39     3     4    2
    40     3     2    1
    41    54    53    1
    42    54    55    1
    43     5     2    1
    44     5     6    1
    45    70    72    1
    46    14    13    2
    47    13    15   am
    48     7     6   ar
    49     7     9   ar
    50   105   104    2
    51    53    50    1
    52    50    49    1
    53    50    51    1
    54     2     1    1
    55   103   106    1
    56   103   104    1
    57   106   107    1
    58     6     8   ar
    59    25    26    1
    60     9    10   ar
    61    55    56    1
    62   104   108   am
    63   117   116    2
    64    15    16    1
    65   116   115    1
    66    52    51    2
    67    51    58   am
    68     8    10   ar
    69    56    57    1
    70    17    18    2
    71    17    16    1
    72    26    27    1
    73    26    29    1
    74    47    46    1
    75    47    48    2
    76    46    45    1
    77    16    19    1
    78    32    30    1
    79   108   109    1
    80    27    28    2
    81   115   114    1
    82   115   118    1
    83    58    59    1
    84   114   110   am
    85    30    29    1
    86    30    31    1
    87   110   109    1
    88   110   111    2
    89   118   119    1
    90   109   112    1
    91    19    20    1
    92    21    20   ar
    93    21    23   ar
    94    59    60    1
    95    59    62    1
    96    20    22   ar
    97    60    61    2
    98   119   120    1
    99    23    24   ar
   100   112   113    1
   101    64    63   ar
   102    65    63   ar
   103    63    62    1
   104    22    24   ar
   105   120   121    1
   106   121   122    2
   107   123   122    1
   108   122   124    1
   109    44    43    1
   110    43    41   ar
   111    43    42   ar
   112    41    39   ar
   113    42    40   ar
   114    39    38   ar
   115    35    34    1
   116    35    36    2
   117    40    38   ar
   118    38    37    1
   119    34    33    1
   120    34    37    1
