@<TRIPOS>MOLECULE
tmp/4ef8A01.pdb
 117 109 0 0 0
SMALL
GASTEIGER

@<TRIPOS>ATOM
      1  N        -63.2780   22.3270  -21.1150 N.3   102  GLY102     -0.1210
      2  CA       -63.9380   23.5470  -21.5620 C.3   102  GLY102      0.1956
      3  C        -63.9750   24.5820  -20.4490 C.2   102  GLY102      0.2612
      4  O        -63.9410   24.2350  -19.2600 O.2   102  GLY102     -0.2717
      5  N        -64.0700   25.8520  -20.8300 N.am  103  LEU103     -0.1965
      6  CA       -64.0160   26.9390  -19.8590 C.3   103  LEU103      0.1728
      7  C        -65.3980   27.5050  -19.5340 C.2   103  LEU103      0.2617
      8  O        -65.5210   28.5210  -18.8480 O.2   103  LEU103     -0.2715
      9  CB       -63.0480   28.0320  -20.3310 C.3   103  LEU103      0.0311
     10  CG       -61.6120   27.5050  -20.4730 C.3   103  LEU103      0.0022
     11  CD1      -60.6650   28.6020  -20.9230 C.3   103  LEU103      0.0001
     12  CD2      -61.1280   26.8640  -19.1770 C.3   103  LEU103      0.0001
     13  N        -66.4270   26.8160  -20.0140 N.am  104  SER104     -0.1936
     14  CA       -67.8010   27.0950  -19.6060 C.3   104  SER104      0.2055
     15  C        -68.6380   25.8300  -19.7360 C.2   104  SER104      0.2642
     16  O        -68.2040   24.8390  -20.3260 O.2   104  SER104     -0.2714
     17  CB       -68.4040   28.2020  -20.4800 C.3   104  SER104      0.2130
     18  OG       -68.6710   27.7290  -21.7900 O.3   104  SER104     -0.2179
     19  N        -69.8540   25.8780  -19.1990 N.am  105  MET105     -0.1976
     20  CA       -70.8070   24.7950  -19.3910 C.3   105  MET105      0.1605
     21  C        -71.0950   24.6030  -20.8780 C.2   105  MET105      0.2287
     22  O        -71.0690   23.4800  -21.3770 O.2   105  MET105     -0.2864
     23  CB       -72.1070   25.0710  -18.6260 C.3   105  MET105      0.0413
     24  CG       -73.1510   23.9790  -18.8050 C.3   105  MET105      0.0598
     25  SD       -74.7570   24.4920  -18.1550 S.3   105  MET105     -0.1393
     26  CE       -75.2500   25.6770  -19.4060 C.3   105  MET105      0.0692
     27  N        -68.2920   22.6920  -22.8050 N.3   108  ASN108     -0.1240
     28  CA       -68.3130   21.2510  -22.6020 C.3   108  ASN108      0.1653
     29  C        -69.5280   20.5640  -23.2170 C.2   108  ASN108      0.2266
     30  O        -69.4130   19.4740  -23.7630 O.2   108  ASN108     -0.2867
     31  CB       -68.2190   20.9120  -21.1140 C.3   108  ASN108      0.1155
     32  CG       -66.8070   21.0370  -20.5810 C.2   108  ASN108      0.2627
     33  OD1      -65.8400   20.9560  -21.3390 O.2   108  ASN108     -0.2716
     34  ND2      -66.6770   21.1870  -19.2690 N.am  108  ASN108     -0.0877
     35  N        -63.6570   14.0630  -17.8150 N.3   128  LEU128     -0.1245
     36  CA       -64.0750   15.4640  -17.7560 C.3   128  LEU128      0.1561
     37  C        -63.2770   16.1730  -16.6710 C.2   128  LEU128      0.2260
     38  O        -63.3280   15.7730  -15.5060 O.2   128  LEU128     -0.2867
     39  CB       -65.5780   15.5500  -17.4600 C.3   128  LEU128      0.0270
     40  CG       -66.2060   16.9410  -17.3670 C.3   128  LEU128      0.0019
     41  CD1      -66.2370   17.5730  -18.7490 C.3   128  LEU128      0.0001
     42  CD2      -67.6060   16.8570  -16.7710 C.3   128  LEU128      0.0001
     43  N        -62.8460   18.7250  -14.1320 N.3   130  LEU130     -0.1245
     44  CA       -63.5440   19.6980  -13.2970 C.3   130  LEU130      0.1561
     45  C        -62.5790   20.5250  -12.4550 C.2   130  LEU130      0.2260
     46  O        -62.9920   21.5030  -11.8230 O.2   130  LEU130     -0.2867
     47  CB       -64.5760   19.0080  -12.4000 C.3   130  LEU130      0.0270
     48  CG       -65.8180   18.4510  -13.1040 C.3   130  LEU130      0.0019
     49  CD1      -66.7330   17.7670  -12.0990 C.3   130  LEU130      0.0001
     50  CD2      -66.5630   19.5530  -13.8400 C.3   130  LEU130      0.0001
     51  N        -60.7650   22.8330  -13.1540 N.3   132  CYS132     -0.1221
     52  CA       -60.5170   23.8060  -14.2050 C.3   132  CYS132      0.1794
     53  C        -60.9000   25.2210  -13.7830 C.2   132  CYS132      0.2443
     54  O        -61.6870   25.4090  -12.8560 O.2   132  CYS132     -0.2733
     55  CB       -61.2990   23.3850  -15.4570 C.3   132  CYS132      0.0970
     56  SG       -63.1050   23.4850  -15.3150 S.3   132  CYS132     -0.0800
     57  N        -60.3450   26.2320  -14.4700 N.am  133  PRO133     -0.2718
     58  CA       -60.6450   27.6160  -14.1150 C.3   133  PRO133      0.1535
     59  C        -62.1260   27.9460  -14.2550 C.2   133  PRO133      0.2599
     60  O        -62.8100   27.4190  -15.1370 O.2   133  PRO133     -0.2715
     61  CB       -59.8280   28.4320  -15.1220 C.3   133  PRO133      0.0310
     62  CG       -58.7460   27.5160  -15.5790 C.3   133  PRO133      0.0237
     63  CD       -59.3100   26.1260  -15.5140 C.3   133  PRO133      0.0939
     64  N        -62.5940   28.8060  -13.3580 N.am  134  ASN134     -0.1959
     65  CA       -63.9830   29.2440  -13.2960 C.3   134  ASN134      0.1819
     66  C        -64.0470   30.7130  -13.7170 C.2   134  ASN134      0.2621
     67  O        -63.0230   31.3180  -14.0510 O.2   134  ASN134     -0.2715
     68  CB       -64.4720   29.0930  -11.8520 C.3   134  ASN134      0.1195
     69  CG       -65.9690   28.8700  -11.7380 C.2   134  ASN134      0.2630
     70  OD1      -66.7390   29.1930  -12.6440 O.2   134  ASN134     -0.2716
     71  ND2      -66.3860   28.3070  -10.6070 N.am  134  ASN134     -0.0877
     72  N        -65.2470   31.2830  -13.6940 N.am  135  VAL135     -0.1977
     73  CA       -65.4460   32.7010  -13.9950 C.3   135  VAL135      0.1596
     74  C        -64.6610   33.5900  -13.0300 C.2   135  VAL135      0.2287
     75  O        -64.3140   33.1600  -11.9290 O.2   135  VAL135     -0.2864
     76  CB       -66.9430   33.0720  -13.9190 C.3   135  VAL135      0.0276
     77  CG1      -67.7560   32.1600  -14.8230 C.3   135  VAL135      0.0022
     78  CG2      -67.4520   32.9930  -12.4870 C.3   135  VAL135      0.0022
     79  N        -63.6550   24.9610  -10.7010 N.3   141  VAL141     -0.1245
     80  CA       -65.0210   24.4470  -10.7410 C.3   141  VAL141      0.1561
     81  C        -65.3510   23.4750   -9.6120 C.2   141  VAL141      0.2260
     82  O        -66.3820   23.6110   -8.9650 O.2   141  VAL141     -0.2867
     83  CB       -65.4050   23.8520  -12.1130 C.3   141  VAL141      0.0252
     84  CG1      -66.7650   23.1540  -12.0450 C.3   141  VAL141      0.0019
     85  CG2      -65.4510   24.9720  -13.1460 C.3   141  VAL141      0.0019
     86  N        -71.3390   25.0660   -9.1900 N.3   147  ALA147     -0.1245
     87  CA       -70.8170   24.9860  -10.5470 C.3   147  ALA147      0.1562
     88  C        -70.5550   23.5350  -10.9280 C.2   147  ALA147      0.2260
     89  O        -70.8200   23.1130  -12.0590 O.2   147  ALA147     -0.2867
     90  CB       -69.5430   25.8090  -10.6960 C.3   147  ALA147      0.0290
     91  N        -73.9090   21.7960  -11.5910 N.3   150  GLN150     -0.1231
     92  CA       -74.4370   22.2340  -12.8880 C.3   150  GLN150      0.1698
     93  C        -73.7200   21.5810  -14.0680 C.2   150  GLN150      0.2592
     94  O        -74.3680   21.0560  -14.9840 O.2   150  GLN150     -0.2718
     95  CB       -74.4170   23.7620  -13.0370 C.3   150  GLN150      0.0381
     96  CG       -75.2010   24.2040  -14.2730 C.3   150  GLN150      0.0905
     97  CD       -75.3560   25.7110  -14.4540 C.2   150  GLN150      0.2608
     98  OE1      -74.3720   26.4690  -14.5100 O.2   150  GLN150     -0.2717
     99  NE2      -76.6080   26.1480  -14.6200 N.am  150  GLN150     -0.0878
    100  N        -72.4520   21.4940  -13.9890 N.am  151  CYS151     -0.1970
    101  CA       -71.6150   20.8930  -15.0130 C.3   151  CYS151      0.1712
    102  C        -71.9540   19.4620  -15.1630 C.2   151  CYS151      0.2296
    103  O        -72.1630   18.9920  -16.2810 O.2   151  CYS151     -0.2864
    104  CB       -70.1370   21.0540  -14.6870 C.3   151  CYS151      0.0983
    105  SG       -69.4320   22.6540  -15.0650 S.3   151  CYS151     -0.0798
    106  N        -75.4040   19.0440  -16.7990 N.3   154  ALA154     -0.1231
    107  CA       -75.4280   19.3640  -18.2250 C.3   154  ALA154      0.1694
    108  C        -74.7790   18.2610  -19.0570 C.2   154  ALA154      0.2591
    109  O        -75.3140   17.8290  -20.0740 O.2   154  ALA154     -0.2718
    110  CB       -74.7490   20.7010  -18.4750 C.3   154  ALA154      0.0304
    111  N        -73.5980   17.8180  -18.6390 N.am  155  VAL155     -0.1980
    112  CA       -72.9060   16.7570  -19.3730 C.3   155  VAL155      0.1595
    113  C        -73.7420   15.4770  -19.3460 C.2   155  VAL155      0.2287
    114  O        -73.9070   14.8230  -20.3760 O.2   155  VAL155     -0.2864
    115  CB       -71.4820   16.5200  -18.8150 C.3   155  VAL155      0.0276
    116  CG1      -70.8400   15.3020  -19.4650 C.3   155  VAL155      0.0022
    117  CG2      -70.6220   17.7540  -19.0650 C.3   155  VAL155      0.0022
@<TRIPOS>BOND
     1    30    29    2
     2    29    28    1
     3    27    28    1
     4    28    31    1
     5    18    17    1
     6     2     1    1
     7     2     3    1
     8    22    21    2
     9    33    32    2
    10    31    32    1
    11    11    10    1
    12    21    20    1
    13     5     3   am
    14     5     6    1
    15    32    34   am
    16    17    14    1
    17    10     9    1
    18    10    12    1
    19     3     4    2
    20   114   113    2
    21     9     6    1
    22    16    15    2
    23   109   108    2
    24    13    14    1
    25    13     7   am
    26     6     7    1
    27    15    14    1
    28    15    19   am
    29     7     8    2
    30   116   115    1
    31    26    25    1
    32    20    19    1
    33    20    23    1
    34   112   113    1
    35   112   115    1
    36   112   111    1
    37   117   115    1
    38   108   111   am
    39   108   107    1
    40    24    23    1
    41    24    25    1
    42    41    40    1
    43   110   107    1
    44   107   106    1
    45    35    36    1
    46    36    39    1
    47    36    37    1
    48    39    40    1
    49    40    42    1
    50    37    38    2
    51   103   102    2
    52    62    63    1
    53    62    61    1
    54    63    57    1
    55    55    56    1
    56    55    52    1
    57   102   101    1
    58    60    59    2
    59    61    58    1
    60   105   104    1
    61   101   104    1
    62   101   100    1
    63    94    93    2
    64    77    76    1
    65    99    97   am
    66    98    97    2
    67    57    58    1
    68    57    53   am
    69    97    96    1
    70    96    95    1
    71    59    58    1
    72    59    64   am
    73    52    53    1
    74    52    51    1
    75    43    44    1
    76    93   100   am
    77    93    92    1
    78    67    66    2
    79    73    76    1
    80    73    72    1
    81    73    74    1
    82    76    78    1
    83    50    48    1
    84    53    54    2
    85    66    72   am
    86    66    65    1
    87    64    65    1
    88    44    45    1
    89    44    47    1
    90    65    68    1
    91    85    83    1
    92    48    47    1
    93    48    49    1
    94    95    92    1
    95    74    75    2
    96    92    91    1
    97    70    69    2
    98    45    46    2
    99    83    84    1
   100    83    80    1
   101    89    88    2
   102    68    69    1
   103    69    71   am
   104    88    87    1
   105    80    79    1
   106    80    81    1
   107    90    87    1
   108    87    86    1
   109    81    82    2
