@<TRIPOS>MOLECULE
tmp/4ef9B00.pdb
 99 92 0 0 0
SMALL
GASTEIGER

@<TRIPOS>ATOM
      1  N        -54.1520  -39.3290   20.9710 N.3   102  GLY102     -0.1210
      2  CA       -54.4340  -40.6830   21.4470 C.3   102  GLY102      0.1956
      3  C        -54.0780  -41.7180   20.3930 C.2   102  GLY102      0.2612
      4  O        -54.1190  -41.4370   19.1900 O.2   102  GLY102     -0.2717
      5  N        -53.7250  -42.9200   20.8460 N.am  103  LEU103     -0.1965
      6  CA       -53.3230  -44.0040   19.9510 C.3   103  LEU103      0.1728
      7  C        -54.4920  -44.9110   19.5600 C.2   103  LEU103      0.2617
      8  O        -54.3030  -45.9500   18.9250 O.2   103  LEU103     -0.2715
      9  CB       -52.1770  -44.8060   20.5720 C.3   103  LEU103      0.0311
     10  CG       -50.8840  -44.0050   20.7680 C.3   103  LEU103      0.0022
     11  CD1      -49.7560  -44.9000   21.2570 C.3   103  LEU103      0.0001
     12  CD2      -50.4780  -43.3030   19.4810 C.3   103  LEU103      0.0001
     13  N        -55.6990  -44.5040   19.9410 N.am  104  SER104     -0.1936
     14  CA       -56.9180  -45.1670   19.4970 C.3   104  SER104      0.2055
     15  C        -58.0510  -44.1570   19.5700 C.2   104  SER104      0.2642
     16  O        -57.9330  -43.1320   20.2450 O.2   104  SER104     -0.2714
     17  CB       -57.2450  -46.3790   20.3700 C.3   104  SER104      0.2130
     18  OG       -57.8130  -45.9780   21.6010 O.3   104  SER104     -0.2179
     19  N        -59.1660  -44.4740   18.9180 N.am  105  MET105     -0.1976
     20  CA       -60.3360  -43.6130   18.9910 C.3   105  MET105      0.1605
     21  C        -60.8040  -43.4830   20.4400 C.2   105  MET105      0.2287
     22  O        -61.0630  -42.3810   20.9230 O.2   105  MET105     -0.2864
     23  CB       -61.4590  -44.1540   18.1020 C.3   105  MET105      0.0413
     24  CG       -62.6480  -43.2170   18.0220 C.3   105  MET105      0.0598
     25  SD       -63.9770  -43.8550   16.9850 S.3   105  MET105     -0.1393
     26  CE       -64.6290  -45.1480   18.0400 C.3   105  MET105      0.0692
     27  N        -58.7670  -41.0110   22.5440 N.3   108  ASN108     -0.1240
     28  CA       -59.1510  -39.6230   22.3040 C.3   108  ASN108      0.1653
     29  C        -60.4940  -39.2700   22.9330 C.2   108  ASN108      0.2266
     30  O        -60.6480  -38.2050   23.5340 O.2   108  ASN108     -0.2867
     31  CB       -59.1650  -39.3240   20.8040 C.3   108  ASN108      0.1155
     32  CG       -57.7680  -39.1560   20.2400 C.2   108  ASN108      0.2627
     33  OD1      -56.8910  -38.6060   20.9010 O.2   108  ASN108     -0.2716
     34  ND2      -57.5740  -39.5700   18.9970 N.am  108  ASN108     -0.0877
     35  N        -56.7180  -31.4980   17.6650 N.3   128  LEU128     -0.1231
     36  CA       -56.7080  -32.9620   17.6040 C.3   128  LEU128      0.1693
     37  C        -55.7780  -33.4250   16.4850 C.2   128  LEU128      0.2592
     38  O        -55.9910  -33.1180   15.3120 O.2   128  LEU128     -0.2718
     39  CB       -58.1370  -33.5020   17.4250 C.3   128  LEU128      0.0284
     40  CG       -58.3450  -35.0140   17.3250 C.3   128  LEU128      0.0019
     41  CD1      -57.9500  -35.6960   18.6300 C.3   128  LEU128      0.0001
     42  CD2      -59.7920  -35.3310   16.9610 C.3   128  LEU128      0.0001
     43  N        -54.7580  -34.1990   16.8490 N.am  129  ASN129     -0.1960
     44  CA       -53.7740  -34.6640   15.8840 C.3   129  ASN129      0.1819
     45  C        -54.2520  -35.9220   15.1680 C.2   129  ASN129      0.2621
     46  O        -54.2920  -36.9980   15.7670 O.2   129  ASN129     -0.2715
     47  CB       -52.4650  -34.9500   16.6240 C.3   129  ASN129      0.1195
     48  CG       -51.2930  -35.2090   15.6930 C.2   129  ASN129      0.2630
     49  OD1      -51.4340  -35.2360   14.4700 O.2   129  ASN129     -0.2716
     50  ND2      -50.1130  -35.3780   16.2830 N.am  129  ASN129     -0.0877
     51  N        -54.5800  -35.7960   13.8860 N.am  130  LEU130     -0.1977
     52  CA       -54.9810  -36.9510   13.0940 C.3   130  LEU130      0.1596
     53  C        -53.8400  -37.4590   12.2020 C.2   130  LEU130      0.2287
     54  O        -54.1000  -38.2410   11.2870 O.2   130  LEU130     -0.2864
     55  CB       -56.2030  -36.6020   12.2350 C.3   130  LEU130      0.0297
     56  CG       -57.4480  -36.0240   12.9210 C.3   130  LEU130      0.0022
     57  CD1      -58.5130  -35.6420   11.9040 C.3   130  LEU130      0.0001
     58  CD2      -58.0030  -36.9870   13.9590 C.3   130  LEU130      0.0001
     59  N        -48.4410  -47.7630   13.6800 N.3   138  LYS138     -0.1231
     60  CA       -49.6570  -46.9600   13.7900 C.3   138  LYS138      0.1678
     61  C        -49.9770  -46.2520   12.4750 C.2   138  LYS138      0.2434
     62  O        -49.1110  -45.5970   11.8970 O.2   138  LYS138     -0.2733
     63  CB       -49.5330  -45.9400   14.9260 C.3   138  LYS138      0.0284
     64  CG       -49.7080  -46.5290   16.3040 C.3   138  LYS138      0.0035
     65  CD       -51.1330  -46.9970   16.5020 C.3   138  LYS138      0.0206
     66  CE       -51.3010  -47.7120   17.8230 C.3   138  LYS138      0.1093
     67  NZ       -50.4790  -48.9470   17.8610 N.3   138  LYS138     -0.1314
     68  N        -51.2290  -46.3740   12.0040 N.am  139  PRO139     -0.2729
     69  CA       -51.6310  -45.7790   10.7330 C.3   139  PRO139      0.1401
     70  C        -51.8650  -44.2730   10.8270 C.2   139  PRO139      0.2269
     71  O        -52.1270  -43.7500   11.9110 O.2   139  PRO139     -0.2865
     72  CB       -52.9550  -46.4830   10.4320 C.3   139  PRO139      0.0296
     73  CG       -53.5290  -46.7560   11.7830 C.3   139  PRO139      0.0237
     74  CD       -52.3500  -47.0690   12.6650 C.3   139  PRO139      0.0939
     75  N        -54.2700  -41.8300   10.6410 N.3   141  VAL141     -0.1245
     76  CA       -55.7290  -41.7910   10.6380 C.3   141  VAL141      0.1561
     77  C        -56.2780  -40.9420    9.4890 C.2   141  VAL141      0.2260
     78  O        -57.2680  -41.3030    8.8470 O.2   141  VAL141     -0.2867
     79  CB       -56.2860  -41.2840   11.9870 C.3   141  VAL141      0.0252
     80  CG1      -57.7730  -40.9780   11.8830 C.3   141  VAL141      0.0019
     81  CG2      -56.0220  -42.3080   13.0820 C.3   141  VAL141      0.0019
     82  N        -62.0270  -44.0870    8.7540 N.3   147  ALA147     -0.1245
     83  CA       -61.5770  -43.9630   10.1330 C.3   147  ALA147      0.1562
     84  C        -61.6920  -42.5200   10.6190 C.2   147  ALA147      0.2260
     85  O        -62.1910  -42.2740   11.7140 O.2   147  ALA147     -0.2867
     86  CB       -60.1480  -44.4610   10.2770 C.3   147  ALA147      0.0290
     87  N        -63.7920  -41.1610   13.8440 N.3   151  CYS151     -0.1235
     88  CA       -63.1610  -40.5670   14.9870 C.3   151  CYS151      0.1677
     89  C        -63.7450  -39.2200   15.2530 C.2   151  CYS151      0.2270
     90  O        -63.9990  -38.8420   16.3910 O.2   151  CYS151     -0.2867
     91  CB       -61.7040  -40.4340   14.7010 C.3   151  CYS151      0.0956
     92  SG       -61.0080  -42.0590   14.6590 S.3   151  CYS151     -0.0801
     93  N        -65.5270  -38.0920   18.7600 N.3   155  VAL155     -0.1245
     94  CA       -65.0860  -36.9230   19.5180 C.3   155  VAL155      0.1561
     95  C        -66.1950  -35.8720   19.6360 C.2   155  VAL155      0.2260
     96  O        -66.4300  -35.3240   20.7150 O.2   155  VAL155     -0.2867
     97  CB       -63.8120  -36.3070   18.8960 C.3   155  VAL155      0.0252
     98  CG1      -63.5240  -34.9360   19.4950 C.3   155  VAL155      0.0019
     99  CG2      -62.6250  -37.2380   19.1070 C.3   155  VAL155      0.0019
@<TRIPOS>BOND
     1    82    83    1
     2    78    77    2
     3    77    76    1
     4    83    86    1
     5    83    84    1
     6    72    69    1
     7    72    73    1
     8    84    85    2
     9    76    75    1
    10    76    79    1
    11    69    70    1
    12    69    68    1
    13    70    71    2
    14    54    53    2
    15    73    74    1
    16    80    79    1
    17    62    61    2
    18    57    56    1
    19    79    81    1
    20    68    61   am
    21    68    74    1
    22    53    52    1
    23    55    56    1
    24    55    52    1
    25    61    60    1
    26    56    58    1
    27    52    51    1
    28    59    60    1
    29    60    63    1
    30    87    88    1
    31    51    45   am
    32    49    48    2
    33    92    91    1
    34    91    88    1
    35    63    64    1
    36    88    89    1
    37    45    46    2
    38    45    44    1
    39    89    90    2
    40    38    37    2
    41    48    50   am
    42    48    47    1
    43    44    47    1
    44    44    43    1
    45    64    65    1
    46    37    43   am
    47    37    36    1
    48    65    66    1
    49    42    40    1
    50    25    24    1
    51    25    26    1
    52    40    39    1
    53    40    41    1
    54    39    36    1
    55    36    35    1
    56    66    67    1
    57    24    23    1
    58    23    20    1
    59    93    94    1
    60    97    99    1
    61    97    98    1
    62    97    94    1
    63    19    20    1
    64    19    15   am
    65     8     7    2
    66    20    21    1
    67    34    32   am
    68     4     3    2
    69    12    10    1
    70    14    15    1
    71    14    13    1
    72    14    17    1
    73    94    95    1
    74     7    13   am
    75     7     6    1
    76    15    16    2
    77    95    96    2
    78     6     9    1
    79     6     5    1
    80    32    31    1
    81    32    33    2
    82    17    18    1
    83     3     5   am
    84     3     2    1
    85    21    22    2
    86     9    10    1
    87    10    11    1
    88    31    28    1
    89     1     2    1
    90    28    27    1
    91    28    29    1
    92    29    30    2
