@<TRIPOS>MOLECULE
tmp/4efbA01.pdb
 176 170 0 0 0
SMALL
GASTEIGER

@<TRIPOS>ATOM
      1  N         28.8070   40.8810   49.4850 N.3    82  MET82      -0.1230
      2  CA        27.8250   39.8110   49.5330 C.3    82  MET82       0.1702
      3  C         28.2590   38.7750   50.5490 C.2    82  MET82       0.2592
      4  O         29.1270   37.9520   50.2760 O.2    82  MET82      -0.2718
      5  CB        27.6790   39.1550   48.1570 C.3    82  MET82       0.0401
      6  CG        26.9200   40.0040   47.1580 C.3    82  MET82       0.0596
      7  SD        26.7720   39.2440   45.5420 S.3    82  MET82      -0.1393
      8  CE        25.2350   38.3870   45.6850 C.3    82  MET82       0.0692
      9  N         27.6440   38.8200   51.7230 N.am   83  TYR83      -0.1962
     10  CA        28.0150   37.9440   52.8200 C.3    83  TYR83       0.1771
     11  C         27.5890   36.5020   52.5980 C.2    83  TYR83       0.2620
     12  O         26.8480   36.2070   51.6610 O.2    83  TYR83      -0.2715
     13  CB        27.4080   38.4660   54.1150 C.3    83  TYR83       0.0574
     14  CG        28.0930   39.7060   54.6010 C.ar   83  TYR83      -0.0198
     15  CD1       27.6340   40.9600   54.2390 C.ar   83  TYR83      -0.0009
     16  CD2       29.2370   39.6240   55.3850 C.ar   83  TYR83      -0.0009
     17  CE1       28.2970   42.1000   54.6420 C.ar   83  TYR83       0.0417
     18  CE2       29.9060   40.7550   55.7930 C.ar   83  TYR83       0.0417
     19  CZ        29.4330   41.9900   55.4190 C.ar   83  TYR83       0.1957
     20  OH        30.0910   43.1230   55.8350 O.3    83  TYR83      -0.2866
     21  N         28.0780   35.6150   53.4650 N.am   84  SER84      -0.1936
     22  CA        27.6550   34.2180   53.5100 C.3    84  SER84       0.2055
     23  C         26.6940   33.9950   54.6710 C.2    84  SER84       0.2642
     24  O         26.2680   34.9460   55.3210 O.2    84  SER84      -0.2714
     25  CB        28.8630   33.2930   53.6880 C.3    84  SER84       0.2130
     26  OG        29.7040   33.2960   52.5510 O.3    84  SER84      -0.2179
     27  N         26.3650   32.7290   54.9210 N.am   85  LEU85      -0.1977
     28  CA        25.4190   32.3500   55.9710 C.3    85  LEU85       0.1596
     29  C         26.0320   31.3790   56.9530 C.2    85  LEU85       0.2287
     30  O         26.5670   30.3450   56.5530 O.2    85  LEU85      -0.2864
     31  CB        24.1810   31.6810   55.3740 C.3    85  LEU85       0.0297
     32  CG        23.0840   32.5560   54.7790 C.3    85  LEU85       0.0022
     33  CD1       22.1080   31.6600   54.0070 C.3    85  LEU85       0.0001
     34  CD2       22.3870   33.3340   55.8960 C.3    85  LEU85       0.0001
     35  N         12.7370   32.1490   55.1790 N.3   114  GLU114     -0.1231
     36  CA        12.7160   31.9170   53.7460 C.3   114  GLU114      0.1699
     37  C         13.3580   30.5640   53.4560 C.2   114  GLU114      0.2592
     38  O         14.1860   30.0850   54.2380 O.2   114  GLU114     -0.2718
     39  CB        13.4930   33.0230   53.0400 C.3   114  GLU114      0.0402
     40  CG        13.0440   34.4070   53.4320 C.3   114  GLU114      0.1161
     41  CD        14.0200   35.4670   52.9930 C.2   114  GLU114      0.3649
     42  OE1       13.9780   36.5980   53.5240 O.co2 114  GLU114     -0.2457
     43  OE2       14.8400   35.1670   52.1080 O.co2 114  GLU114     -0.2457
     44  N         12.9790   29.9520   52.3370 N.am  115  LEU115     -0.1966
     45  CA        13.6100   28.7130   51.8930 C.3   115  LEU115      0.1728
     46  C         14.9310   29.0480   51.2250 C.2   115  LEU115      0.2616
     47  O         14.9860   29.9290   50.3640 O.2   115  LEU115     -0.2715
     48  CB        12.7140   27.9710   50.8920 C.3   115  LEU115      0.0311
     49  CG        11.2460   27.7830   51.2890 C.3   115  LEU115      0.0022
     50  CD1       10.5210   27.0200   50.1980 C.3   115  LEU115      0.0001
     51  CD2       11.1570   27.0460   52.6160 C.3   115  LEU115      0.0001
     52  N         15.9920   28.3490   51.6240 N.am  116  LYS116     -0.1963
     53  CA        17.2990   28.5320   51.0120 C.3   116  LYS116      0.1728
     54  C         17.3350   27.8620   49.6360 C.2   116  LYS116      0.2616
     55  O         17.3300   26.6350   49.5330 O.2   116  LYS116     -0.2715
     56  CB        18.3710   27.9300   51.9070 C.3   116  LYS116      0.0311
     57  CG        19.7890   28.2910   51.5270 C.3   116  LYS116      0.0038
     58  CD        20.7470   27.9460   52.6710 C.3   116  LYS116      0.0206
     59  CE        22.1840   28.2640   52.3170 C.3   116  LYS116      0.1093
     60  NZ        22.6930   27.3530   51.2610 N.3   116  LYS116     -0.1314
     61  N         17.3760   28.6790   48.5860 N.am  117  ILE117     -0.1977
     62  CA        17.3290   28.1830   47.2190 C.3   117  ILE117      0.1596
     63  C         18.6890   27.6950   46.7620 C.2   117  ILE117      0.2287
     64  O         19.6820   28.4170   46.8280 O.2   117  ILE117     -0.2864
     65  CB        16.8530   29.2760   46.2370 C.3   117  ILE117      0.0276
     66  CG1       15.4390   29.7120   46.5930 C.3   117  ILE117      0.0022
     67  CG2       16.8430   28.7400   44.8210 C.3   117  ILE117      0.0022
     68  CD1       14.4570   28.5720   46.5560 C.3   117  ILE117      0.0001
     69  N         23.9650   32.6300   43.7650 N.3   121  ALA121     -0.1245
     70  CA        23.6300   33.9600   44.2570 C.3   121  ALA121      0.1562
     71  C         23.9880   34.9810   43.1850 C.2   121  ALA121      0.2260
     72  O         25.0360   34.8850   42.5560 O.2   121  ALA121     -0.2867
     73  CB        24.3970   34.2590   45.5430 C.3   121  ALA121      0.0290
     74  N         28.3310   36.3890   43.1400 N.3   137  ARG137     -0.1245
     75  CA        28.8420   36.7960   44.4350 C.3   137  ARG137      0.1563
     76  C         30.3490   36.7390   44.4710 C.2   137  ARG137      0.2260
     77  O         30.9810   37.5210   45.1750 O.2   137  ARG137     -0.2867
     78  CB        28.3100   35.9090   45.5510 C.3   137  ARG137      0.0307
     79  CG        29.1520   36.0180   46.8070 C.3   137  ARG137      0.0489
     80  CD        28.4630   35.4370   48.0150 C.3   137  ARG137      0.2205
     81  NE        28.2430   33.9990   47.9040 N.pl3 137  ARG137     -0.0865
     82  CZ        28.8420   33.0850   48.6660 C.cat 137  ARG137      0.5346
     83  NH1       29.7150   33.4540   49.6010 N.pl3 137  ARG137      0.1354
     84  NH2       28.5460   31.8010   48.5170 N.pl3 137  ARG137      0.1354
     85  N         19.7970   41.4930   45.4630 N.3   169  ARG169     -0.1245
     86  CA        20.5180   40.2430   45.4010 C.3   169  ARG169      0.1563
     87  C         19.5340   39.1190   45.6020 C.2   169  ARG169      0.2260
     88  O         18.4990   39.3010   46.2420 O.2   169  ARG169     -0.2867
     89  CB        21.5710   40.2110   46.4990 C.3   169  ARG169      0.0307
     90  CG        22.2670   41.5440   46.6740 C.3   169  ARG169      0.0489
     91  CD        23.5900   41.4140   47.3890 C.3   169  ARG169      0.2205
     92  NE        24.4850   42.4720   46.9440 N.pl3 169  ARG169     -0.0865
     93  CZ        25.4290   43.0280   47.6920 C.cat 169  ARG169      0.5346
     94  NH1       25.6170   42.6290   48.9430 N.pl3 169  ARG169      0.1354
     95  NH2       26.1810   43.9910   47.1840 N.pl3 169  ARG169      0.1354
     96  N         18.8330   34.5860   44.2790 N.3   171  GLU171     -0.1245
     97  CA        19.3540   33.3570   43.6890 C.3   171  GLU171      0.1567
     98  C         18.9280   33.1670   42.2330 C.2   171  GLU171      0.2260
     99  O         17.7940   33.4630   41.8640 O.2   171  GLU171     -0.2867
    100  CB        18.9010   32.1450   44.5040 C.3   171  GLU171      0.0388
    101  CG        19.8530   30.9740   44.4090 C.3   171  GLU171      0.1160
    102  CD        21.0500   31.1530   45.3200 C.2   171  GLU171      0.3649
    103  OE1       22.0300   30.3960   45.1880 O.co2 171  GLU171     -0.2457
    104  OE2       21.0020   32.0610   46.1760 O.co2 171  GLU171     -0.2457
    105  N         15.6890   38.2080   47.1910 N.3   223  TYR223     -0.1227
    106  CA        15.3680   38.2080   48.6120 C.3   223  TYR223      0.1736
    107  C         16.0560   39.2800   49.4380 C.2   223  TYR223      0.2596
    108  O         15.6430   39.5660   50.5580 O.2   223  TYR223     -0.2718
    109  CB        15.6590   36.8410   49.2140 C.3   223  TYR223      0.0548
    110  CG        17.0090   36.2890   48.8530 C.ar  223  TYR223     -0.0200
    111  CD1       17.1190   35.2100   47.9950 C.ar  223  TYR223     -0.0009
    112  CD2       18.1710   36.8310   49.3820 C.ar  223  TYR223     -0.0009
    113  CE1       18.3400   34.6780   47.6700 C.ar  223  TYR223      0.0417
    114  CE2       19.4110   36.3050   49.0630 C.ar  223  TYR223      0.0417
    115  CZ        19.4900   35.2240   48.2060 C.ar  223  TYR223      0.1957
    116  OH        20.7100   34.6630   47.8910 O.3   223  TYR223     -0.2866
    117  N         17.1060   39.8800   48.9100 N.am  224  THR224     -0.1953
    118  CA        17.7130   40.9830   49.6330 C.3   224  THR224      0.1897
    119  C         17.8660   42.2450   48.7980 C.2   224  THR224      0.2313
    120  O         18.1680   42.1910   47.6080 O.2   224  THR224     -0.2863
    121  CB        19.0930   40.5870   50.2370 C.3   224  THR224      0.1794
    122  OG1       19.8780   41.7690   50.4270 O.3   224  THR224     -0.2208
    123  CG2       19.8390   39.6270   49.3390 C.3   224  THR224      0.0378
    124  N         16.3750   29.5430   55.5340 N.3   285  VAL285     -0.1245
    125  CA        17.1150   30.6950   56.0170 C.3   285  VAL285      0.1561
    126  C         16.2690   31.4570   57.0220 C.2   285  VAL285      0.2260
    127  O         15.1320   31.8410   56.7230 O.2   285  VAL285     -0.2867
    128  CB        17.4860   31.6450   54.8740 C.3   285  VAL285      0.0252
    129  CG1       18.3510   32.7760   55.4100 C.3   285  VAL285      0.0019
    130  CG2       18.2270   30.8870   53.7880 C.3   285  VAL285      0.0019
    131  N         15.9550   34.8110   59.3280 N.3   287  LYS287     -0.1245
    132  CA        16.4720   36.1690   59.4420 C.3   287  LYS287      0.1561
    133  C         15.7440   36.9530   60.5210 C.2   287  LYS287      0.2260
    134  O         14.5240   36.8790   60.6280 O.2   287  LYS287     -0.2867
    135  CB        16.3310   36.8880   58.1040 C.3   287  LYS287      0.0271
    136  CG        17.0070   36.1720   56.9670 C.3   287  LYS287      0.0035
    137  CD        16.7370   36.8520   55.6570 C.3   287  LYS287      0.0206
    138  CE        17.2700   36.0170   54.4980 C.3   287  LYS287      0.1093
    139  NZ        16.9910   36.6570   53.1840 N.3   287  LYS287     -0.1314
    140  N         27.4460   42.3280   61.7000 N.3   299  PHE299     -0.1241
    141  CA        28.1370   41.3270   60.9030 C.3   299  PHE299      0.1605
    142  C         29.4500   40.8110   61.5130 C.2   299  PHE299      0.2264
    143  O         30.2770   41.5860   61.9990 O.2   299  PHE299     -0.2867
    144  CB        28.4320   41.8990   59.5130 C.3   299  PHE299      0.0534
    145  CG        27.2140   42.1380   58.6870 C.ar  299  PHE299     -0.0203
    146  CD1       26.5790   43.3660   58.7100 C.ar  299  PHE299     -0.0042
    147  CD2       26.7160   41.1480   57.8650 C.ar  299  PHE299     -0.0042
    148  CE1       25.4640   43.6070   57.9190 C.ar  299  PHE299     -0.0003
    149  CE2       25.6030   41.3790   57.0710 C.ar  299  PHE299     -0.0003
    150  CZ        24.9780   42.6110   57.0990 C.ar  299  PHE299     -0.0000
    151  N         26.3940   37.4380   58.3970 N.3   304  PRO304     -0.2116
    152  CA        25.6430   38.2980   59.3250 C.3   304  PRO304      0.1372
    153  C         25.3270   37.6230   60.6570 C.2   304  PRO304      0.2244
    154  O         25.1520   36.4080   60.7190 O.2   304  PRO304     -0.2868
    155  CB        24.3600   38.6290   58.5610 C.3   304  PRO304      0.0268
    156  CG        24.1880   37.5010   57.6160 C.3   304  PRO304      0.0207
    157  CD        25.5900   37.0920   57.2110 C.3   304  PRO304      0.0892
    158  N         22.6240   38.3060   62.2600 N.3   306  TRP306     -0.1227
    159  CA        21.1720   38.3470   62.3860 C.3   306  TRP306      0.1737
    160  C         20.4940   37.3040   61.5070 C.2   306  TRP306      0.2595
    161  O         19.2990   37.3910   61.2290 O.2   306  TRP306     -0.2718
    162  CB        20.6660   39.7430   62.0230 C.3   306  TRP306      0.0564
    163  CG        21.3470   40.3180   60.8260 C.ar  306  TRP306      0.0003
    164  CD1       22.3750   41.2130   60.8240 C.ar  306  TRP306      0.0946
    165  CD2       21.0380   40.0560   59.4480 C.ar  306  TRP306      0.0152
    166  NE1       22.7240   41.5290   59.5320 N.ar  306  TRP306     -0.2442
    167  CE2       21.9180   40.8330   58.6680 C.ar  306  TRP306      0.0810
    168  CE3       20.1030   39.2440   58.7990 C.ar  306  TRP306      0.0012
    169  CZ2       21.8880   40.8230   57.2730 C.ar  306  TRP306      0.0191
    170  CZ3       20.0770   39.2360   57.4180 C.ar  306  TRP306      0.0001
    171  CH2       20.9620   40.0210   56.6700 C.ar  306  TRP306      0.0015
    172  N         21.2600   36.3170   61.0680 N.am  307  ALA307     -0.1980
    173  CA        20.7150   35.2980   60.1910 C.3   307  ALA307      0.1597
    174  C         21.4810   33.9880   60.3140 C.2   307  ALA307      0.2287
    175  O         22.6330   33.9650   60.7540 O.2   307  ALA307     -0.2864
    176  CB        20.7490   35.7870   58.7650 C.3   307  ALA307      0.0319
@<TRIPOS>BOND
     1    99    98    2
     2    98    97    1
     3    72    71    2
     4    74    75    1
     5    71    70    1
     6    97    96    1
     7    97   100    1
     8    69    70    1
     9    70    73    1
    10   101   100    1
    11   101   102    1
    12    75    76    1
    13    75    78    1
    14    76    77    2
    15    67    65    1
    16   103   102   ar
    17   102   104   ar
    18    86    85    1
    19    86    87    1
    20    86    89    1
    21     7     8    1
    22     7     6    1
    23    78    79    1
    24    87    88    2
    25    65    66    1
    26    65    62    1
    27    89    90    1
    28    68    66    1
    29    90    91    1
    30    63    64    2
    31    63    62    1
    32    79    80    1
    33    92    91    1
    34    92    93    2
    35     6     5    1
    36    95    93    1
    37   105   106    1
    38    62    61    1
    39   120   119    2
    40   113   111   ar
    41   113   115   ar
    42    93    94    1
    43   116   115    1
    44    81    80    1
    45    81    82    2
    46   111   110   ar
    47     5     2    1
    48   115   114   ar
    49    84    82    1
    50    61    54   am
    51   106   109    1
    52   106   107    1
    53    82    83    1
    54   119   118    1
    55   110   109    1
    56   110   112   ar
    57   117   107   am
    58   117   118    1
    59   114   112   ar
    60   123   121    1
    61   107   108    2
    62     1     2    1
    63     2     3    1
    64    55    54    2
    65   118   121    1
    66    54    53    1
    67    50    49    1
    68   121   122    1
    69     4     3    2
    70    47    46    2
    71     3     9   am
    72    48    49    1
    73    48    45    1
    74    53    52    1
    75    53    56    1
    76    46    52   am
    77    46    45    1
    78    60    59    1
    79    49    51    1
    80    57    56    1
    81    57    58    1
    82    12    11    2
    83     9    10    1
    84    45    44    1
    85    43    41   ar
    86    59    58    1
    87    44    37   am
    88    26    25    1
    89    11    10    1
    90    11    21   am
    91    10    13    1
    92    41    40    1
    93    41    42   ar
    94    39    40    1
    95    39    36    1
    96   139   138    1
    97    37    36    1
    98    37    38    2
    99    21    22    1
   100    22    25    1
   101    22    23    1
   102    36    35    1
   103   130   128    1
   104    33    32    1
   105    13    14    1
   106    15    14   ar
   107    15    17   ar
   108   138   137    1
   109    14    16   ar
   110    17    19   ar
   111    23    27   am
   112    23    24    2
   113    32    31    1
   114    32    34    1
   115   128   129    1
   116   128   125    1
   117    27    28    1
   118    31    28    1
   119    16    18   ar
   120    19    18   ar
   121    19    20    1
   122   124   125    1
   123   137   136    1
   124    28    29    1
   125   125   126    1
   126    30    29    2
   127   171   169   ar
   128   171   170   ar
   129   127   126    2
   130   136   135    1
   131   149   150   ar
   132   149   147   ar
   133   150   148   ar
   134   157   156    1
   135   157   151    1
   136   169   167   ar
   137   170   168   ar
   138   156   155    1
   139   147   145   ar
   140   148   146   ar
   141   135   132    1
   142   151   152    1
   143   155   152    1
   144   167   165   ar
   145   167   166   ar
   146   145   146   ar
   147   145   144    1
   148   176   173    1
   149   168   165   ar
   150   152   153    1
   151   131   132    1
   152   132   133    1
   153   165   163   ar
   154   144   141    1
   155   166   164   ar
   156   173   174    1
   157   173   172    1
   158   174   175    2
   159   133   134    2
   160   153   154    2
   161   164   163   ar
   162   163   162    1
   163   141   142    1
   164   141   140    1
   165   172   160   am
   166   161   160    2
   167   160   159    1
   168   142   143    2
   169   162   159    1
   170   158   159    1
