@<TRIPOS>MOLECULE
tmp/4efeA01.pdb
 176 170 0 0 0
SMALL
GASTEIGER

@<TRIPOS>ATOM
      1  N         28.9020   40.8640   49.7090 N.3    82  MET82      -0.1230
      2  CA        27.8890   39.8210   49.7720 C.3    82  MET82       0.1702
      3  C         28.3710   38.7310   50.7240 C.2    82  MET82       0.2592
      4  O         29.2260   37.9130   50.3760 O.2    82  MET82      -0.2718
      5  CB        27.6390   39.2420   48.3730 C.3    82  MET82       0.0401
      6  CG        27.2070   40.2860   47.3440 C.3    82  MET82       0.0596
      7  SD        26.9100   39.6130   45.6730 S.3    82  MET82      -0.1393
      8  CE        25.3540   38.7970   45.9050 C.3    82  MET82       0.0692
      9  N         27.8330   38.7400   51.9380 N.am   83  TYR83      -0.1962
     10  CA        28.2370   37.7800   52.9570 C.3    83  TYR83       0.1771
     11  C         27.6820   36.3890   52.6730 C.2    83  TYR83       0.2620
     12  O         26.8670   36.2000   51.7610 O.2    83  TYR83      -0.2715
     13  CB        27.7490   38.2450   54.3270 C.3    83  TYR83       0.0574
     14  CG        28.5250   39.4140   54.8880 C.ar   83  TYR83      -0.0198
     15  CD1       28.1120   40.7230   54.6690 C.ar   83  TYR83      -0.0009
     16  CD2       29.6590   39.2040   55.6610 C.ar   83  TYR83      -0.0009
     17  CE1       28.8130   41.7950   55.2140 C.ar   83  TYR83       0.0417
     18  CE2       30.3630   40.2600   56.2050 C.ar   83  TYR83       0.0417
     19  CZ        29.9400   41.5480   55.9820 C.ar   83  TYR83       0.1957
     20  OH        30.6510   42.5870   56.5340 O.3    83  TYR83      -0.2866
     21  N         28.1300   35.4140   53.4550 N.am   84  SER84      -0.1936
     22  CA        27.4750   34.1170   53.4660 C.3    84  SER84       0.2055
     23  C         26.8110   33.8870   54.8190 C.2    84  SER84       0.2642
     24  O         26.7250   34.8050   55.6300 O.2    84  SER84      -0.2714
     25  CB        28.4740   33.0020   53.1440 C.3    84  SER84       0.2130
     26  OG        29.7060   33.2030   53.8070 O.3    84  SER84      -0.2179
     27  N         26.3210   32.6720   55.0470 N.am   85  LEU85      -0.1977
     28  CA        25.4740   32.3850   56.2050 C.3    85  LEU85       0.1596
     29  C         26.1440   31.4500   57.2000 C.2    85  LEU85       0.2287
     30  O         26.8230   30.5000   56.8030 O.2    85  LEU85      -0.2864
     31  CB        24.1610   31.7450   55.7460 C.3    85  LEU85       0.0297
     32  CG        23.0040   32.6520   55.3380 C.3    85  LEU85       0.0022
     33  CD1       21.9800   31.8600   54.5300 C.3    85  LEU85       0.0001
     34  CD2       22.3690   33.2360   56.5840 C.3    85  LEU85       0.0001
     35  N         12.6540   32.1750   55.2200 N.3   114  GLU114     -0.1231
     36  CA        12.6310   31.9920   53.7760 C.3   114  GLU114      0.1699
     37  C         13.2290   30.6370   53.4190 C.2   114  GLU114      0.2592
     38  O         14.1380   30.1500   54.1020 O.2   114  GLU114     -0.2718
     39  CB        13.4260   33.1100   53.1010 C.3   114  GLU114      0.0402
     40  CG        12.9810   34.5120   53.4860 C.3   114  GLU114      0.1161
     41  CD        13.9120   35.5890   52.9550 C.2   114  GLU114      0.3649
     42  OE1       13.9310   36.6990   53.5230 O.co2 114  GLU114     -0.2457
     43  OE2       14.6270   35.3300   51.9680 O.co2 114  GLU114     -0.2457
     44  N         12.7160   30.0260   52.3540 N.am  115  LEU115     -0.1966
     45  CA        13.3020   28.7940   51.8410 C.3   115  LEU115      0.1728
     46  C         14.6770   29.1060   51.2700 C.2   115  LEU115      0.2616
     47  O         14.8410   30.1000   50.5650 O.2   115  LEU115     -0.2715
     48  CB        12.4220   28.1980   50.7400 C.3   115  LEU115      0.0311
     49  CG        10.9560   27.9480   51.0970 C.3   115  LEU115      0.0022
     50  CD1       10.2620   27.3040   49.9140 C.3   115  LEU115      0.0001
     51  CD2       10.8580   27.0610   52.3330 C.3   115  LEU115      0.0001
     52  N         15.6600   28.2590   51.5690 N.am  116  LYS116     -0.1963
     53  CA        17.0070   28.4490   51.0390 C.3   116  LYS116      0.1728
     54  C         17.1230   27.8560   49.6390 C.2   116  LYS116      0.2616
     55  O         17.2580   26.6460   49.4710 O.2   116  LYS116     -0.2715
     56  CB        18.0500   27.8040   51.9580 C.3   116  LYS116      0.0311
     57  CG        19.4800   28.2300   51.6500 C.3   116  LYS116      0.0038
     58  CD        20.4450   27.7710   52.7330 C.3   116  LYS116      0.0206
     59  CE        21.8680   28.2460   52.4550 C.3   116  LYS116      0.1093
     60  NZ        22.4420   27.6410   51.2170 N.3   116  LYS116     -0.1314
     61  N         17.0850   28.7300   48.6390 N.am  117  ILE117     -0.1977
     62  CA        17.0660   28.3150   47.2450 C.3   117  ILE117      0.1596
     63  C         18.4260   27.7390   46.8570 C.2   117  ILE117      0.2287
     64  O         19.4430   28.4190   46.9560 O.2   117  ILE117     -0.2864
     65  CB        16.7550   29.5150   46.3260 C.3   117  ILE117      0.0276
     66  CG1       15.4940   30.2310   46.8170 C.3   117  ILE117      0.0022
     67  CG2       16.5880   29.0450   44.8940 C.3   117  ILE117      0.0022
     68  CD1       14.2610   29.3490   46.8630 C.3   117  ILE117      0.0001
     69  N         24.2280   32.8390   44.0700 N.3   121  ALA121     -0.1245
     70  CA        23.8840   34.1820   44.5270 C.3   121  ALA121      0.1562
     71  C         24.2140   35.2140   43.4540 C.2   121  ALA121      0.2260
     72  O         25.3000   35.1930   42.8750 O.2   121  ALA121     -0.2867
     73  CB        24.6340   34.5040   45.8050 C.3   121  ALA121      0.0290
     74  N         28.2240   36.3190   43.1200 N.3   137  ARG137     -0.1245
     75  CA        28.7550   36.6670   44.4290 C.3   137  ARG137      0.1563
     76  C         30.2800   36.5300   44.4420 C.2   137  ARG137      0.2260
     77  O         30.9750   37.3270   45.0640 O.2   137  ARG137     -0.2867
     78  CB        28.1450   35.7560   45.5070 C.3   137  ARG137      0.0307
     79  CG        28.4290   36.1930   46.9460 C.3   137  ARG137      0.0489
     80  CD        27.9250   35.1670   47.9690 C.3   137  ARG137      0.2205
     81  NE        28.9240   34.1340   48.2160 N.pl3 137  ARG137     -0.0865
     82  CZ        29.8290   34.1800   49.1950 C.cat 137  ARG137      0.5346
     83  NH1       29.8570   35.2120   50.0360 N.pl3 137  ARG137      0.1354
     84  NH2       30.7310   33.2070   49.3190 N.pl3 137  ARG137      0.1354
     85  N         19.6230   41.7890   45.3840 N.3   169  ARG169     -0.1245
     86  CA        20.3460   40.5280   45.3950 C.3   169  ARG169      0.1563
     87  C         19.4120   39.3600   45.6770 C.2   169  ARG169      0.2260
     88  O         18.3960   39.5090   46.3610 O.2   169  ARG169     -0.2867
     89  CB        21.4560   40.5900   46.4420 C.3   169  ARG169      0.0307
     90  CG        22.5520   41.5780   46.0630 C.3   169  ARG169      0.0489
     91  CD        23.4370   41.9680   47.2260 C.3   169  ARG169      0.2205
     92  NE        24.5200   42.8370   46.7710 N.pl3 169  ARG169     -0.0865
     93  CZ        25.4900   43.3010   47.5500 C.cat 169  ARG169      0.5346
     94  NH1       25.5200   42.9830   48.8400 N.pl3 169  ARG169      0.1354
     95  NH2       26.4340   44.0790   47.0340 N.pl3 169  ARG169      0.1354
     96  N         18.8230   34.7820   44.4500 N.3   171  GLU171     -0.1245
     97  CA        19.3290   33.5320   43.8950 C.3   171  GLU171      0.1567
     98  C         18.8580   33.3310   42.4530 C.2   171  GLU171      0.2260
     99  O         17.7010   33.5970   42.1220 O.2   171  GLU171     -0.2867
    100  CB        18.8570   32.3450   44.7430 C.3   171  GLU171      0.0388
    101  CG        19.7990   31.1550   44.7160 C.3   171  GLU171      0.1160
    102  CD        21.0380   31.4130   45.5470 C.2   171  GLU171      0.3649
    103  OE1       21.9460   30.5500   45.5590 O.co2 171  GLU171     -0.2457
    104  OE2       21.0910   32.4900   46.1880 O.co2 171  GLU171     -0.2457
    105  N         15.8180   38.5210   47.2450 N.3   223  TYR223     -0.1227
    106  CA        15.5100   38.5830   48.6740 C.3   223  TYR223      0.1736
    107  C         16.1970   39.6750   49.5070 C.2   223  TYR223      0.2596
    108  O         16.0030   39.7370   50.7210 O.2   223  TYR223     -0.2718
    109  CB        15.7510   37.2120   49.3280 C.3   223  TYR223      0.0548
    110  CG        17.0770   36.5600   48.9840 C.ar  223  TYR223     -0.0200
    111  CD1       17.1260   35.4540   48.1510 C.ar  223  TYR223     -0.0009
    112  CD2       18.2730   37.0550   49.4890 C.ar  223  TYR223     -0.0009
    113  CE1       18.3190   34.8550   47.8260 C.ar  223  TYR223      0.0417
    114  CE2       19.4850   36.4620   49.1720 C.ar  223  TYR223      0.0417
    115  CZ        19.5000   35.3610   48.3390 C.ar  223  TYR223      0.1957
    116  OH        20.6860   34.7490   48.0300 O.3   223  TYR223     -0.2866
    117  N         16.9910   40.5370   48.8810 N.am  224  THR224     -0.1953
    118  CA        17.5650   41.6570   49.6270 C.3   224  THR224      0.1897
    119  C         18.0790   42.7640   48.7120 C.2   224  THR224      0.2313
    120  O         18.1270   42.5970   47.4960 O.2   224  THR224     -0.2863
    121  CB        18.7040   41.1610   50.5760 C.3   224  THR224      0.1794
    122  OG1       19.1840   42.2490   51.3790 O.3   224  THR224     -0.2208
    123  CG2       19.8510   40.5730   49.7800 C.3   224  THR224      0.0378
    124  N         16.2920   29.6560   55.6200 N.3   285  VAL285     -0.1245
    125  CA        17.0410   30.7910   56.1390 C.3   285  VAL285      0.1561
    126  C         16.1900   31.5630   57.1410 C.2   285  VAL285      0.2260
    127  O         15.0850   31.9990   56.8230 O.2   285  VAL285     -0.2867
    128  CB        17.4600   31.7560   55.0150 C.3   285  VAL285      0.0252
    129  CG1       18.3380   32.8640   55.5900 C.3   285  VAL285      0.0019
    130  CG2       18.2010   31.0010   53.9190 C.3   285  VAL285      0.0019
    131  N         15.8890   34.8790   59.3740 N.3   287  LYS287     -0.1245
    132  CA        16.4400   36.2190   59.5140 C.3   287  LYS287      0.1561
    133  C         15.7110   37.0260   60.5820 C.2   287  LYS287      0.2260
    134  O         14.4760   37.0170   60.6540 O.2   287  LYS287     -0.2867
    135  CB        16.3710   36.9630   58.1770 C.3   287  LYS287      0.0271
    136  CG        16.9800   36.1960   57.0090 C.3   287  LYS287      0.0035
    137  CD        16.8240   36.9700   55.7040 C.3   287  LYS287      0.0206
    138  CE        17.3540   36.1690   54.5170 C.3   287  LYS287      0.1093
    139  NZ        17.1270   36.8700   53.2210 N.3   287  LYS287     -0.1314
    140  N         27.7450   42.0150   61.9700 N.3   299  PHE299     -0.1241
    141  CA        28.2800   40.9220   61.1710 C.3   299  PHE299      0.1605
    142  C         29.5630   40.3900   61.8120 C.2   299  PHE299      0.2264
    143  O         30.3400   41.1550   62.3810 O.2   299  PHE299     -0.2867
    144  CB        28.6140   41.4100   59.7540 C.3   299  PHE299      0.0534
    145  CG        27.4130   41.7920   58.9320 C.ar  299  PHE299     -0.0203
    146  CD1       26.8280   43.0380   59.0670 C.ar  299  PHE299     -0.0042
    147  CD2       26.8850   40.9070   58.0090 C.ar  299  PHE299     -0.0042
    148  CE1       25.7360   43.3980   58.2950 C.ar  299  PHE299     -0.0003
    149  CE2       25.7940   41.2540   57.2300 C.ar  299  PHE299     -0.0003
    150  CZ        25.2150   42.4980   57.3690 C.ar  299  PHE299     -0.0000
    151  N         26.2870   37.5140   58.7370 N.3   304  PRO304     -0.2116
    152  CA        25.5230   38.2910   59.7150 C.3   304  PRO304      0.1372
    153  C         25.3280   37.4940   60.9950 C.2   304  PRO304      0.2244
    154  O         25.2460   36.2640   60.9650 O.2   304  PRO304     -0.2868
    155  CB        24.1990   38.5730   59.0030 C.3   304  PRO304      0.0268
    156  CG        24.0630   37.4880   57.9960 C.3   304  PRO304      0.0207
    157  CD        25.4720   37.1280   57.5710 C.3   304  PRO304      0.0892
    158  N         22.6170   38.1520   62.5260 N.3   306  TRP306     -0.1227
    159  CA        21.1580   38.2460   62.5940 C.3   306  TRP306      0.1737
    160  C         20.4210   37.1920   61.7700 C.2   306  TRP306      0.2595
    161  O         19.2000   37.2500   61.6140 O.2   306  TRP306     -0.2718
    162  CB        20.6850   39.6470   62.1750 C.3   306  TRP306      0.0564
    163  CG        21.3470   40.2120   60.9380 C.ar  306  TRP306      0.0003
    164  CD1       22.4100   41.0690   60.8920 C.ar  306  TRP306      0.0946
    165  CD2       20.9650   39.9770   59.5790 C.ar  306  TRP306      0.0152
    166  NE1       22.7130   41.3810   59.5890 N.ar  306  TRP306     -0.2442
    167  CE2       21.8400   40.7250   58.7630 C.ar  306  TRP306      0.0810
    168  CE3       19.9690   39.2050   58.9710 C.ar  306  TRP306      0.0012
    169  CZ2       21.7490   40.7260   57.3760 C.ar  306  TRP306      0.0191
    170  CZ3       19.8800   39.2060   57.5900 C.ar  306  TRP306      0.0001
    171  CH2       20.7640   39.9610   56.8080 C.ar  306  TRP306      0.0015
    172  N         21.1630   36.2220   61.2500 N.am  307  ALA307     -0.1980
    173  CA        20.5680   35.1750   60.4380 C.3   307  ALA307      0.1597
    174  C         21.2960   33.8590   60.6430 C.2   307  ALA307      0.2287
    175  O         22.4300   33.8350   61.1210 O.2   307  ALA307     -0.2864
    176  CB        20.6080   35.5710   58.9630 C.3   307  ALA307      0.0319
@<TRIPOS>BOND
     1    99    98    2
     2    98    97    1
     3    72    71    2
     4    74    75    1
     5    71    70    1
     6    97    96    1
     7    97   100    1
     8    69    70    1
     9    75    76    1
    10    75    78    1
    11    76    77    2
    12    70    73    1
    13   101   100    1
    14   101   102    1
    15    67    65    1
    16    85    86    1
    17    86    87    1
    18    86    89    1
    19    78    79    1
    20   102   103   ar
    21   102   104   ar
    22     7     8    1
    23     7     6    1
    24    87    88    2
    25    90    89    1
    26    90    91    1
    27    65    66    1
    28    65    62    1
    29    92    91    1
    30    92    93    2
    31    66    68    1
    32    63    64    2
    33    63    62    1
    34    79    80    1
    35    95    93    1
    36    62    61    1
    37   105   106    1
    38     6     5    1
    39   120   119    2
    40    93    94    1
    41   113   111   ar
    42   113   115   ar
    43    80    81    1
    44   116   115    1
    45   111   110   ar
    46    81    82    2
    47   115   114   ar
    48     5     2    1
    49    61    54   am
    50   106   109    1
    51   106   107    1
    52   119   118    1
    53   117   107   am
    54   117   118    1
    55   110   109    1
    56   110   112   ar
    57   114   112   ar
    58    82    84    1
    59    82    83    1
    60    55    54    2
    61   107   108    2
    62   118   121    1
    63    54    53    1
    64     1     2    1
    65     2     3    1
    66   123   121    1
    67    50    49    1
    68     4     3    2
    69    47    46    2
    70   121   122    1
    71     3     9   am
    72    48    49    1
    73    48    45    1
    74    53    52    1
    75    53    56    1
    76    49    51    1
    77    60    59    1
    78    46    52   am
    79    46    45    1
    80    57    56    1
    81    57    58    1
    82    12    11    2
    83    45    44    1
    84     9    10    1
    85    43    41   ar
    86    44    37   am
    87    59    58    1
    88    11    10    1
    89    11    21   am
    90    41    40    1
    91    41    42   ar
    92    10    13    1
    93    39    40    1
    94    39    36    1
    95    25    22    1
    96    25    26    1
    97   139   138    1
    98    37    36    1
    99    37    38    2
   100    21    22    1
   101    22    23    1
   102    36    35    1
   103   130   128    1
   104    13    14    1
   105   138   137    1
   106    33    32    1
   107    15    14   ar
   108    15    17   ar
   109    23    27   am
   110    23    24    2
   111    14    16   ar
   112   128   129    1
   113   128   125    1
   114    27    28    1
   115    17    19   ar
   116    32    31    1
   117    32    34    1
   118   124   125    1
   119    16    18   ar
   120   137   136    1
   121    31    28    1
   122    19    18   ar
   123    19    20    1
   124   125   126    1
   125    28    29    1
   126    30    29    2
   127   171   169   ar
   128   171   170   ar
   129   127   126    2
   130   136   135    1
   131   149   150   ar
   132   149   147   ar
   133   150   148   ar
   134   169   167   ar
   135   157   156    1
   136   157   151    1
   137   170   168   ar
   138   156   155    1
   139   147   145   ar
   140   135   132    1
   141   148   146   ar
   142   151   152    1
   143   167   165   ar
   144   167   166   ar
   145   145   146   ar
   146   145   144    1
   147   176   173    1
   148   168   165   ar
   149   155   152    1
   150   131   132    1
   151   132   133    1
   152   165   163   ar
   153   166   164   ar
   154   152   153    1
   155   144   141    1
   156   173   174    1
   157   173   172    1
   158   133   134    2
   159   174   175    2
   160   164   163   ar
   161   163   162    1
   162   154   153    2
   163   141   142    1
   164   141   140    1
   165   172   160   am
   166   161   160    2
   167   160   159    1
   168   142   143    2
   169   162   159    1
   170   158   159    1
