@<TRIPOS>MOLECULE
tmp/4efhA00.pdb
 156 145 0 0 0
SMALL
GASTEIGER

@<TRIPOS>ATOM
      1  N          5.5120   14.3140  -30.0080 N.3     7  ASP7       -0.1239
      2  CA         4.1780   14.5480  -29.4960 C.3     7  ASP7        0.1674
      3  C          4.2980   15.4990  -28.3200 C.2     7  ASP7        0.2266
      4  O          4.7460   15.1160  -27.2470 O.2     7  ASP7       -0.2867
      5  CB         3.4850   13.2110  -29.1350 C.3     7  ASP7        0.1410
      6  CG         2.1010   13.3510  -28.5540 C.2     7  ASP7        0.3668
      7  OD1        1.4090   14.3540  -28.8850 O.co2   7  ASP7       -0.2456
      8  OD2        1.6640   12.4210  -27.8410 O.co2   7  ASP7       -0.2456
      9  N          2.5680   17.2570  -25.6830 N.3     9  GLY9       -0.1210
     10  CA         1.3330   17.1970  -24.9280 C.3     9  GLY9        0.1956
     11  C          1.2790   18.3200  -23.9370 C.2     9  GLY9        0.2613
     12  O          2.3170   18.8660  -23.5890 O.2     9  GLY9       -0.2717
     13  N          0.0890   18.6270  -23.4310 N.am   10  SER10      -0.1938
     14  CA        -0.1170   19.6790  -22.4400 C.3    10  SER10       0.2055
     15  C          0.6500   19.4310  -21.1370 C.2    10  SER10       0.2644
     16  O          0.9840   20.3850  -20.3980 O.2    10  SER10      -0.2714
     17  CB        -1.6080   19.8940  -22.1750 C.3    10  SER10       0.2130
     18  OG        -2.3040   18.6890  -21.9090 O.3    10  SER10      -0.2179
     19  N          0.9450   18.1580  -20.8850 N.am   11  GLY11      -0.1939
     20  CA         1.6340   17.7560  -19.6760 C.3    11  GLY11       0.2014
     21  C          2.9410   17.0610  -19.9270 C.2    11  GLY11       0.2638
     22  O          3.9020   17.3230  -19.2210 O.2    11  GLY11      -0.2714
     23  N          2.9830   16.1380  -20.8990 N.am   12  MET12      -0.1976
     24  CA         4.1960   15.3780  -21.1820 C.3    12  MET12       0.1605
     25  C          4.5400   15.4180  -22.6460 C.2    12  MET12       0.2287
     26  O          3.6720   15.2490  -23.4980 O.2    12  MET12      -0.2864
     27  CB         4.0180   13.9030  -20.7650 C.3    12  MET12       0.0413
     28  CG         3.7500   13.6970  -19.2910 C.3    12  MET12       0.0598
     29  SD         5.2690   13.7710  -18.3330 S.3    12  MET12      -0.1393
     30  CE         5.5090   12.0990  -17.9980 C.3    12  MET12       0.0692
     31  N          6.4250   13.4550  -25.5950 N.3    14  LYS14      -0.1245
     32  CA         6.7520   12.0880  -25.9660 C.3    14  LYS14       0.1561
     33  C          7.5500   12.2280  -27.2540 C.2    14  LYS14       0.2260
     34  O          7.0940   12.9010  -28.1940 O.2    14  LYS14      -0.2867
     35  CB         5.4530   11.2760  -26.2360 C.3    14  LYS14       0.0271
     36  CG         4.7470   10.7140  -25.0100 C.3    14  LYS14       0.0035
     37  CD         3.9350   11.7210  -24.2260 C.3    14  LYS14       0.0206
     38  CE         2.5450   11.9490  -24.7160 C.3    14  LYS14       0.1093
     39  NZ         1.8540   12.9570  -23.8860 N.3    14  LYS14      -0.1314
     40  N        -10.0620   12.1000  -26.9070 N.3   144  ASP144     -0.1239
     41  CA        -8.6810   12.2440  -26.4570 C.3   144  ASP144      0.1674
     42  C         -8.6370   13.0400  -25.1910 C.2   144  ASP144      0.2266
     43  O         -8.8170   14.2520  -25.2390 O.2   144  ASP144     -0.2867
     44  CB        -7.8080   12.9160  -27.5350 C.3   144  ASP144      0.1410
     45  CG        -6.2870   12.9920  -27.2520 C.2   144  ASP144      0.3668
     46  OD1       -5.8660   12.7420  -26.0830 O.co2 144  ASP144     -0.2456
     47  OD2       -5.5250   13.3130  -28.1900 O.co2 144  ASP144     -0.2456
     48  N         -6.0960   14.0860  -22.1490 N.3   146  GLY146     -0.1210
     49  CA        -4.7180   14.1230  -21.6770 C.3   146  GLY146      0.1956
     50  C         -4.5900   14.7450  -20.3070 C.2   146  GLY146      0.2611
     51  O         -5.3040   14.3770  -19.3730 O.2   146  GLY146     -0.2717
     52  N         -3.6790   15.7050  -20.1820 N.am  147  ASP147     -0.1973
     53  CA        -3.4210   16.3520  -18.9180 C.3   147  ASP147      0.1709
     54  C         -4.2060   17.6360  -18.6740 C.2   147  ASP147      0.2293
     55  O         -4.8320   17.7730  -17.6250 O.2   147  ASP147     -0.2864
     56  CB        -1.9190   16.5390  -18.7330 C.3   147  ASP147      0.1436
     57  CG        -1.5200   16.9520  -17.3270 C.2   147  ASP147      0.3671
     58  OD1       -2.0180   16.3130  -16.3450 O.co2 147  ASP147     -0.2456
     59  OD2       -0.6960   17.8990  -17.2010 O.co2 147  ASP147     -0.2456
     60  N         -6.3020   19.1070  -21.3150 N.3   149  VAL149     -0.1245
     61  CA        -7.4170   19.2320  -22.2550 C.3   149  VAL149      0.1561
     62  C         -7.9820   17.8670  -22.7170 C.2   149  VAL149      0.2260
     63  O         -7.2610   16.8620  -22.7660 O.2   149  VAL149     -0.2867
     64  CB        -7.0020   20.1490  -23.4610 C.3   149  VAL149      0.0252
     65  CG1       -5.9640   19.4700  -24.3750 C.3   149  VAL149      0.0019
     66  CG2       -8.2090   20.6510  -24.2410 C.3   149  VAL149      0.0019
     67  N         -6.7750   15.1880  -16.8070 N.3   172  GLY172     -0.1225
     68  CA        -5.9920   14.6090  -15.7250 C.3   172  GLY172      0.1811
     69  C         -5.5950   15.5380  -14.5960 C.2   172  GLY172      0.2280
     70  O         -5.7050   15.1700  -13.4100 O.2   172  GLY172     -0.2866
     71  N         -6.5870   15.0380  -10.6150 N.3   176  THR176     -0.1218
     72  CA        -5.5480   14.9850   -9.5680 C.3   176  THR176      0.1862
     73  C         -5.8670   16.0320   -8.5000 C.2   176  THR176      0.2287
     74  O         -5.8360   15.7460   -7.2930 O.2   176  THR176     -0.2866
     75  CB        -4.1740   15.2650  -10.1850 C.3   176  THR176      0.1770
     76  OG1       -3.8930   14.2330  -11.1180 O.3   176  THR176     -0.2211
     77  CG2       -3.0410   15.3360   -9.1340 C.3   176  THR176      0.0375
     78  N         -1.3420   12.1520   -7.8400 N.3   200  ARG200     -0.1245
     79  CA        -1.3790   11.7490   -9.2410 C.3   200  ARG200      0.1563
     80  C         -1.0740   10.2500   -9.3310 C.2   200  ARG200      0.2260
     81  O         -1.7700    9.5470  -10.0660 O.2   200  ARG200     -0.2867
     82  CB        -0.3670   12.5400  -10.0680 C.3   200  ARG200      0.0307
     83  CG        -0.4820   12.2940  -11.5770 C.3   200  ARG200      0.0489
     84  CD         0.6070   12.9710  -12.4140 C.3   200  ARG200      0.2205
     85  NE         1.9540   12.7310  -11.8890 N.pl3 200  ARG200     -0.0865
     86  CZ         2.6680   11.6270  -12.0840 C.cat 200  ARG200      0.5346
     87  NH1        2.1890   10.6420  -12.8350 N.pl3 200  ARG200      0.1354
     88  NH2        3.8690   11.5010  -11.5370 N.pl3 200  ARG200      0.1354
     89  N         -4.1440    8.3230   -8.1120 N.3   203  LYS203     -0.1231
     90  CA        -5.1070    8.4200   -9.1960 C.3   203  LYS203      0.1693
     91  C         -4.8180    7.3610  -10.2720 C.2   203  LYS203      0.2591
     92  O         -5.7080    6.6010  -10.6330 O.2   203  LYS203     -0.2718
     93  CB        -5.0630    9.8320   -9.7900 C.3   203  LYS203      0.0285
     94  CG        -5.9360   10.0230  -11.0270 C.3   203  LYS203      0.0035
     95  CD        -5.6720   11.3680  -11.6600 C.3   203  LYS203      0.0206
     96  CE        -4.5310   11.3290  -12.6240 C.3   203  LYS203      0.1093
     97  NZ        -4.5420   12.5260  -13.4900 N.3   203  LYS203     -0.1314
     98  N         -3.5620    7.2700  -10.7120 N.am  204  GLU204     -0.1979
     99  CA        -3.1020    6.3520  -11.7520 C.3   204  GLU204      0.1602
    100  C         -3.0910    4.8870  -11.3780 C.2   204  GLU204      0.2287
    101  O         -3.0250    4.0530  -12.2860 O.2   204  GLU204     -0.2864
    102  CB        -1.7080    6.7680  -12.2370 C.3   204  GLU204      0.0415
    103  CG        -1.6840    8.1270  -12.9190 C.3   204  GLU204      0.1163
    104  CD        -0.3090    8.5890  -13.3510 C.2   204  GLU204      0.3649
    105  OE1        0.6720    7.8420  -13.1330 O.co2 204  GLU204     -0.2457
    106  OE2       -0.2130    9.6890  -13.9400 O.co2 204  GLU204     -0.2457
    107  N         -5.2560    8.8000  -24.8550 N.3   291  GLY291     -0.1210
    108  CA        -4.6890    9.6370  -23.8110 C.3   291  GLY291      0.1956
    109  C         -4.7190    8.9970  -22.4480 C.2   291  GLY291      0.2612
    110  O         -5.4900    8.0550  -22.2130 O.2   291  GLY291     -0.2717
    111  N         -3.8900    9.5390  -21.5530 N.am  292  GLY292     -0.1942
    112  CA        -3.6990    9.0240  -20.2030 C.3   292  GLY292      0.2014
    113  C         -4.9380    9.0360  -19.3410 C.2   292  GLY292      0.2639
    114  O         -5.1640    8.1200  -18.5640 O.2   292  GLY292     -0.2714
    115  N         -5.7500   10.0550  -19.4850 N.am  293  THR293     -0.1950
    116  CA        -6.9730   10.2120  -18.6940 C.3   293  THR293      0.1897
    117  C         -8.0850    9.1870  -19.0820 C.2   293  THR293      0.2313
    118  O         -8.9990    8.9860  -18.3080 O.2   293  THR293     -0.2863
    119  CB        -7.3380   11.7050  -18.6470 C.3   293  THR293      0.1794
    120  OG1       -6.1830   12.3970  -18.1920 O.3   293  THR293     -0.2208
    121  CG2       -8.5370   12.0230  -17.7490 C.3   293  THR293      0.0378
    122  N         -7.3550    6.0600  -19.4270 N.3   295  MET295     -0.1230
    123  CA        -6.7410    4.8290  -18.9330 C.3   295  MET295      0.1702
    124  C         -7.5090    4.1790  -17.8050 C.2   295  MET295      0.2592
    125  O         -7.2950    2.9920  -17.5320 O.2   295  MET295     -0.2718
    126  CB        -5.2820    5.0730  -18.5210 C.3   295  MET295      0.0401
    127  CG        -4.3240    5.1990  -19.6850 C.3   295  MET295      0.0596
    128  SD        -4.1750    3.6410  -20.5840 S.3   295  MET295     -0.1393
    129  CE        -3.2170    2.6530  -19.4100 C.3   295  MET295      0.0692
    130  N         -8.4130    4.9350  -17.1620 N.am  296  PHE296     -0.1963
    131  CA        -9.2170    4.4340  -16.0440 C.3   296  PHE296      0.1756
    132  C         -9.9100    3.0990  -16.2840 C.2   296  PHE296      0.2461
    133  O        -10.6550    2.9590  -17.2550 O.2   296  PHE296     -0.2730
    134  CB       -10.2690    5.4670  -15.5810 C.3   296  PHE296      0.0574
    135  CG        -9.6910    6.7170  -14.9550 C.ar  296  PHE296     -0.0200
    136  CD1       -9.0980    6.6760  -13.6930 C.ar  296  PHE296     -0.0042
    137  CD2       -9.7270    7.9310  -15.6280 C.ar  296  PHE296     -0.0042
    138  CE1       -8.5330    7.8230  -13.1350 C.ar  296  PHE296     -0.0003
    139  CE2       -9.1520    9.0710  -15.0720 C.ar  296  PHE296     -0.0003
    140  CZ        -8.5680    9.0120  -13.8270 C.ar  296  PHE296     -0.0000
    141  N         -9.7490    2.1190  -15.3750 N.am  297  PRO297     -0.2727
    142  CA       -10.5350    0.8820  -15.5050 C.3   297  PRO297      0.1402
    143  C        -12.0270    1.2550  -15.3590 C.2   297  PRO297      0.2269
    144  O        -12.3610    2.1410  -14.5640 O.2   297  PRO297     -0.2865
    145  CB       -10.0250    0.0170  -14.3280 C.3   297  PRO297      0.0296
    146  CG        -8.6720    0.6190  -13.9600 C.3   297  PRO297      0.0237
    147  CD        -8.9200    2.0920  -14.1510 C.3   297  PRO297      0.0939
    148  N         -2.3310    5.4400  -23.7550 N.3   326  LYS326     -0.1245
    149  CA        -1.5560    6.5130  -23.1320 C.3   326  LYS326      0.1561
    150  C         -0.5110    7.0520  -24.1440 C.2   326  LYS326      0.2260
    151  O         -0.1720    8.2240  -24.0550 O.2   326  LYS326     -0.2867
    152  CB        -0.8440    5.9570  -21.8910 C.3   326  LYS326      0.0271
    153  CG        -0.2460    6.9890  -20.9410 C.3   326  LYS326      0.0035
    154  CD         0.1860    6.2690  -19.6710 C.3   326  LYS326      0.0206
    155  CE         1.0700    7.0770  -18.7580 C.3   326  LYS326      0.1093
    156  NZ         1.6180    6.2350  -17.6570 N.3   326  LYS326     -0.1314
@<TRIPOS>BOND
     1     1     2    1
     2     2     5    1
     3     2     3    1
     4     5     6    1
     5     7     6   ar
     6     6     8   ar
     7     3     4    2
     8    34    33    2
     9    47    45   ar
    10    44    45    1
    11    44    41    1
    12    33    32    1
    13    45    46   ar
    14    40    41    1
    15    41    42    1
    16    35    32    1
    17    35    36    1
    18    32    31    1
    19     9    10    1
    20    43    42    2
    21    36    37    1
    22    10    11    1
    23   107   108    1
    24    38    37    1
    25    38    39    1
    26    65    64    1
    27    66    64    1
    28   150   151    2
    29   150   149    1
    30    11    12    2
    31    11    13   am
    32   108   109    1
    33   148   149    1
    34    26    25    2
    35    64    61    1
    36    13    14    1
    37   149   152    1
    38    63    62    2
    39    62    61    1
    40    25    24    1
    41   109   110    2
    42   109   111   am
    43    14    17    1
    44    14    15    1
    45    61    60    1
    46    17    18    1
    47    48    49    1
    48   152   153    1
    49    49    50    1
    50   111   112    1
    51    24    23    1
    52    24    27    1
    53    15    19   am
    54    15    16    2
    55   153   154    1
    56    23    21   am
    57    19    20    1
    58    27    28    1
    59   128   127    1
    60   128   129    1
    61    50    52   am
    62    50    51    2
    63   112   113    1
    64    52    53    1
    65    21    20    1
    66    21    22    2
    67   127   126    1
    68   154   155    1
    69   115   113   am
    70   115   116    1
    71   122   123    1
    72   113   114    2
    73    28    29    1
    74   117   116    1
    75   117   118    2
    76   123   126    1
    77   123   124    1
    78    53    56    1
    79    53    54    1
    80   155   156    1
    81    56    57    1
    82   116   119    1
    83    54    55    2
    84   119   120    1
    85   119   121    1
    86    29    30    1
    87   124   125    2
    88   124   130   am
    89    57    59   ar
    90    57    58   ar
    91   133   132    2
    92   130   131    1
    93    67    68    1
    94   132   131    1
    95   132   141   am
    96   131   134    1
    97    68    69    1
    98   137   139   ar
    99   137   135   ar
   100   134   135    1
   101   142   141    1
   102   142   143    1
   103   142   145    1
   104   141   147    1
   105   143   144    2
   106   139   140   ar
   107   135   136   ar
   108    69    70    2
   109   145   146    1
   110   147   146    1
   111   106   104   ar
   112   140   138   ar
   113   136   138   ar
   114    97    96    1
   115   104   105   ar
   116   104   103    1
   117   103   102    1
   118    87    86    1
   119    96    95    1
   120    84    85    1
   121    84    83    1
   122   101   100    2
   123   102    99    1
   124    86    85    2
   125    86    88    1
   126    99   100    1
   127    99    98    1
   128    95    94    1
   129    83    82    1
   130    76    75    1
   131    94    93    1
   132    98    91   am
   133    92    91    2
   134    71    72    1
   135    91    90    1
   136    75    72    1
   137    75    77    1
   138    82    79    1
   139    81    80    2
   140    93    90    1
   141    72    73    1
   142    80    79    1
   143    79    78    1
   144    90    89    1
   145    73    74    2
