@<TRIPOS>MOLECULE
tmp/4efkA00.pdb
 96 90 0 0 0
SMALL
GASTEIGER

@<TRIPOS>ATOM
      1  N          8.2600   11.3400    6.0250 N.3    35  PRO35      -0.2102
      2  CA         9.4000   11.6910    6.9160 C.3    35  PRO35       0.1504
      3  C         10.6730   12.0300    6.1400 C.2    35  PRO35       0.2576
      4  O         11.0750   11.2860    5.2170 O.2    35  PRO35      -0.2718
      5  CB         9.6640   10.4220    7.7370 C.3    35  PRO35       0.0282
      6  CG         8.4350    9.5520    7.4920 C.3    35  PRO35       0.0208
      7  CD         7.9500    9.9040    6.0860 C.3    35  PRO35       0.0893
      8  N         11.2870   13.1530    6.5260 N.am   36  THR36      -0.1939
      9  CA        12.4960   13.5600    5.7810 C.3    36  THR36       0.2028
     10  C         13.6220   14.0570    6.7340 C.2    36  THR36       0.2642
     11  O         13.3810   14.3540    7.8690 O.2    36  THR36      -0.2714
     12  CB        12.2190   14.6890    4.7570 C.3    36  THR36       0.1808
     13  OG1       12.2240   15.9680    5.4170 O.3    36  THR36      -0.2208
     14  CG2       10.8250   14.5640    3.9670 C.3    36  THR36       0.0379
     15  N         14.8380   14.1270    6.1630 N.am   37  MET37      -0.1976
     16  CA        16.0070   14.7730    6.8000 C.3    37  MET37       0.1605
     17  C         16.1270   16.2620    6.4110 C.2    37  MET37       0.2287
     18  O         17.0650   16.9350    6.7670 O.2    37  MET37      -0.2864
     19  CB        17.2850   14.0270    6.3710 C.3    37  MET37       0.0413
     20  CG        17.2420   12.4980    6.5960 C.3    37  MET37       0.0598
     21  SD        18.7870   11.7880    7.2380 S.3    37  MET37      -0.1393
     22  CE        18.4930   12.1680    8.9540 C.3    37  MET37       0.0692
     23  N          7.6870   15.7110    7.9580 N.3    62  SER62      -0.1217
     24  CA         8.5730   15.9720    9.0670 C.3    62  SER62       0.1889
     25  C          9.9700   16.2050    8.5730 C.2    62  SER62       0.2288
     26  O         10.3900   15.6590    7.5500 O.2    62  SER62      -0.2866
     27  CB         8.4950   14.7970   10.1070 C.3    62  SER62       0.2089
     28  OG         9.0170   13.6260    9.5170 O.3    62  SER62      -0.2183
     29  N         13.8050   16.1540   10.3530 N.3    64  PHE64      -0.1241
     30  CA        14.6000   15.9010   11.5700 C.3    64  PHE64       0.1605
     31  C         15.8620   15.1310   11.1920 C.2    64  PHE64       0.2264
     32  O         15.8770   14.2610   10.3410 O.2    64  PHE64      -0.2867
     33  CB        13.7560   15.0090   12.5550 C.3    64  PHE64       0.0534
     34  CG        14.4880   14.7380   13.8240 C.ar   64  PHE64      -0.0203
     35  CD1       14.7440   15.7830   14.6800 C.ar   64  PHE64      -0.0042
     36  CD2       14.9630   13.4480   14.1450 C.ar   64  PHE64      -0.0042
     37  CE1       15.4260   15.6040   15.8750 C.ar   64  PHE64      -0.0003
     38  CE2       15.6390   13.2310   15.3420 C.ar   64  PHE64      -0.0003
     39  CZ        15.9210   14.3210   16.2200 C.ar   64  PHE64      -0.0000
     40  N         19.0720   12.9880   13.2020 N.3    66  ASN66      -0.1240
     41  CA        19.6340   12.4540   14.4930 C.3    66  ASN66       0.1653
     42  C         20.9230   13.1800   14.9130 C.2    66  ASN66       0.2266
     43  O         21.6750   13.6470   14.0340 O.2    66  ASN66      -0.2867
     44  CB        19.9050   10.9570   14.3470 C.3    66  ASN66       0.1155
     45  CG        18.6920   10.0830   14.7400 C.2    66  ASN66       0.2627
     46  OD1       17.8620   10.4620   15.5680 O.2    66  ASN66      -0.2716
     47  ND2       18.5800    8.8990   14.1030 N.am   66  ASN66      -0.0877
     48  N         17.6670    4.7760   12.6750 N.3   129  VAL129     -0.1245
     49  CA        16.6230    5.1470   11.7260 C.3   129  VAL129      0.1561
     50  C         15.2420    4.6340   12.1320 C.2   129  VAL129      0.2260
     51  O         14.2500    5.4000   12.1430 O.2   129  VAL129     -0.2867
     52  CB        16.9540    4.5890   10.3560 C.3   129  VAL129      0.0252
     53  CG1       15.7320    4.6950    9.3740 C.3   129  VAL129      0.0019
     54  CG2       18.2420    5.3040    9.8010 C.3   129  VAL129      0.0019
     55  N         13.6240    6.4420   15.2220 N.3   132  VAL132     -0.1231
     56  CA        12.9240    7.6990   14.8700 C.3   132  VAL132      0.1692
     57  C         11.6730    7.4580   14.0340 C.2   132  VAL132      0.2591
     58  O         10.6540    8.1180   14.2710 O.2   132  VAL132     -0.2718
     59  CB        13.8100    8.7210   14.1730 C.3   132  VAL132      0.0266
     60  CG1       14.1650    8.2330   12.8130 C.3   132  VAL132      0.0020
     61  CG2       13.0650   10.0730   14.0530 C.3   132  VAL132      0.0020
     62  N         11.7140    6.5260   13.0820 N.am  133  VAL133     -0.1980
     63  CA        10.4870    6.2820   12.2810 C.3   133  VAL133      0.1595
     64  C          9.3280    5.8270   13.2380 C.2   133  VAL133      0.2287
     65  O          8.2210    6.3160   13.1260 O.2   133  VAL133     -0.2864
     66  CB        10.7040    5.2300   11.2530 C.3   133  VAL133      0.0276
     67  CG1        9.3770    4.8150   10.5500 C.3   133  VAL133      0.0022
     68  CG2       11.7060    5.7030   10.1880 C.3   133  VAL133      0.0022
     69  N          8.0440    8.9110   15.1810 N.3   136  LEU136     -0.1245
     70  CA         7.2860    9.8020   14.3070 C.3   136  LEU136      0.1561
     71  C          5.9190    9.1940   14.0080 C.2   136  LEU136      0.2260
     72  O          4.9010    9.9460   13.9860 O.2   136  LEU136     -0.2867
     73  CB         8.0250    9.9940   12.9530 C.3   136  LEU136      0.0270
     74  CG         9.3320   10.8820   13.1300 C.3   136  LEU136      0.0019
     75  CD1        9.9680   11.0080   11.7400 C.3   136  LEU136      0.0001
     76  CD2        9.0340   12.3050   13.7280 C.3   136  LEU136      0.0001
     77  N          7.8440    6.6470    1.7350 N.3   147  PHE147     -0.1241
     78  CA         9.3020    6.5550    1.6110 C.3   147  PHE147      0.1605
     79  C          9.7570    6.3290    0.1780 C.2   147  PHE147      0.2264
     80  O          9.0780    5.5970   -0.5960 O.2   147  PHE147     -0.2867
     81  CB         9.8430    5.4300    2.5040 C.3   147  PHE147      0.0534
     82  CG         9.7110    5.7310    4.0090 C.ar  147  PHE147     -0.0203
     83  CD1        8.7050    5.1640    4.7410 C.ar  147  PHE147     -0.0042
     84  CD2       10.6420    6.5850    4.6630 C.ar  147  PHE147     -0.0042
     85  CE1        8.5130    5.4450    6.0780 C.ar  147  PHE147     -0.0003
     86  CE2       10.4840    6.8340    6.0580 C.ar  147  PHE147     -0.0003
     87  CZ         9.4330    6.2800    6.7610 C.ar  147  PHE147     -0.0000
     88  N         16.4080    0.6810    3.5150 N.3   154  GLN154     -0.1245
     89  CA        15.6690    1.3860    4.5490 C.3   154  GLN154      0.1566
     90  C         14.1640    1.0930    4.4160 C.2   154  GLN154      0.2260
     91  O         13.4980    0.8370    5.4340 O.2   154  GLN154     -0.2867
     92  CB        15.9360    2.8860    4.4280 C.3   154  GLN154      0.0367
     93  CG        15.0050    3.7620    5.3450 C.3   154  GLN154      0.0905
     94  CD        15.3630    5.2120    5.2000 C.2   154  GLN154      0.2608
     95  OE1       16.3530    5.6550    5.7990 O.2   154  GLN154     -0.2717
     96  NE2       14.6830    5.9130    4.2820 N.am  154  GLN154     -0.0878
@<TRIPOS>BOND
     1    80    79    2
     2    79    78    1
     3    78    77    1
     4    78    81    1
     5    81    82    1
     6    88    89    1
     7    14    12    1
     8    82    84   ar
     9    82    83   ar
    10    96    94   am
    11    90    89    1
    12    90    91    2
    13    92    89    1
    14    92    93    1
    15    84    86   ar
    16    83    85   ar
    17    12    13    1
    18    12     9    1
    19    94    93    1
    20    94    95    2
    21     4     3    2
    22     9     8    1
    23     9    10    1
    24     1     7    1
    25     1     2    1
    26    86    87   ar
    27    85    87   ar
    28     7     6    1
    29     3     8   am
    30     3     2    1
    31    15    10   am
    32    15    16    1
    33    19    20    1
    34    19    16    1
    35    17    18    2
    36    17    16    1
    37    20    21    1
    38    10    11    2
    39     2     5    1
    40    21    22    1
    41     6     5    1
    42    26    25    2
    43    23    24    1
    44    25    24    1
    45    24    27    1
    46    53    52    1
    47    28    27    1
    48    54    52    1
    49    68    66    1
    50    32    31    2
    51    29    30    1
    52    52    49    1
    53    67    66    1
    54    31    30    1
    55    66    63    1
    56    30    33    1
    57    49    50    1
    58    49    48    1
    59    75    74    1
    60    50    51    2
    61    63    62    1
    62    63    64    1
    63    33    34    1
    64    60    59    1
    65    73    74    1
    66    73    70    1
    67    62    57   am
    68    65    64    2
    69    74    76    1
    70    40    41    1
    71    34    36   ar
    72    34    35   ar
    73    72    71    2
    74    71    70    1
    75    43    42    2
    76    57    58    2
    77    57    56    1
    78    61    59    1
    79    47    45   am
    80    36    38   ar
    81    59    56    1
    82    70    69    1
    83    44    41    1
    84    44    45    1
    85    41    42    1
    86    35    37   ar
    87    45    46    2
    88    56    55    1
    89    38    39   ar
    90    37    39   ar
