@<TRIPOS>MOLECULE
tmp/4efpA00.pdb
 93 91 0 0 0
SMALL
GASTEIGER

@<TRIPOS>ATOM
      1  N         25.7240   14.0640   59.1750 N.3   156  ASN156     -0.1240
      2  CA        25.6700   13.4430   60.4800 C.3   156  ASN156      0.1653
      3  C         27.0630   13.3800   61.1290 C.2   156  ASN156      0.2266
      4  O         28.0590   13.8880   60.5520 O.2   156  ASN156     -0.2867
      5  CB        25.0300   12.0500   60.4000 C.3   156  ASN156      0.1155
      6  CG        25.8990   10.9950   59.6630 C.2   156  ASN156      0.2627
      7  OD1       27.0480   11.2280   59.3330 O.2   156  ASN156     -0.2716
      8  ND2       25.2850    9.8270   59.3600 N.am  156  ASN156     -0.0877
      9  N         28.4710   11.7720   56.7940 N.3   160  ASP160     -0.1239
     10  CA        27.5160   11.3560   55.7650 C.3   160  ASP160      0.1674
     11  C         26.5360   12.5070   55.4730 C.2   160  ASP160      0.2266
     12  O         26.0800   13.1820   56.4100 O.2   160  ASP160     -0.2867
     13  CB        26.7020   10.1040   56.1830 C.3   160  ASP160      0.1410
     14  CG        27.5510    8.9270   56.6680 C.2   160  ASP160      0.3668
     15  OD1       28.6590    8.6990   56.1730 O.co2 160  ASP160     -0.2456
     16  OD2       27.0860    8.2310   57.5830 O.co2 160  ASP160     -0.2456
     17  N         24.0650    5.3850   49.3800 N.3   200  THR200     -0.1203
     18  CA        23.9080    4.1750   50.1380 C.3   200  THR200      0.1994
     19  C         22.6090    4.1980   50.9050 C.2   200  THR200      0.2618
     20  O         21.9800    5.2680   51.0460 O.2   200  THR200     -0.2717
     21  CB        25.0240    4.0370   51.1990 C.3   200  THR200      0.1784
     22  OG1       25.0170    5.1710   52.1130 O.3   200  THR200     -0.2211
     23  CG2       26.3940    3.8740   50.5070 C.3   200  THR200      0.0376
     24  N         22.2330    3.0450   51.4480 N.am  201  LEU201     -0.1965
     25  CA        21.1360    2.9800   52.4110 C.3   201  LEU201      0.1728
     26  C         21.6680    2.7440   53.8270 C.2   201  LEU201      0.2617
     27  O         22.5950    1.9340   54.0620 O.2   201  LEU201     -0.2715
     28  CB        20.1540    1.8650   52.0810 C.3   201  LEU201      0.0311
     29  CG        19.4160    2.0420   50.7590 C.3   201  LEU201      0.0022
     30  CD1       18.3880    0.9150   50.6300 C.3   201  LEU201      0.0001
     31  CD2       18.7310    3.4220   50.5930 C.3   201  LEU201      0.0001
     32  N         21.0690    3.4600   54.7830 N.am  202  SER202     -0.1936
     33  CA        21.4140    3.3010   56.1880 C.3   202  SER202      0.2055
     34  C         21.3180    1.8710   56.6730 C.2   202  SER202      0.2643
     35  O         20.3940    1.1000   56.2990 O.2   202  SER202     -0.2714
     36  CB        20.5020    4.1850   57.0350 C.3   202  SER202      0.2130
     37  OG        20.9400    4.0880   58.3890 O.3   202  SER202     -0.2179
     38  N         22.2220    1.5190   57.5830 N.am  203  ARG203     -0.1963
     39  CA        22.1240    0.2040   58.2640 C.3   203  ARG203      0.1729
     40  C         21.0180    0.2120   59.3080 C.2   203  ARG203      0.2616
     41  O         20.6350   -0.8370   59.8290 O.2   203  ARG203     -0.2715
     42  CB        23.4770   -0.2590   58.8660 C.3   203  ARG203      0.0348
     43  CG        24.5850   -0.4490   57.8180 C.3   203  ARG203      0.0492
     44  CD        24.3220   -1.6470   56.9210 C.3   203  ARG203      0.2205
     45  NE        23.4930   -1.1620   55.8430 N.pl3 203  ARG203     -0.0865
     46  CZ        22.5370   -1.8310   55.2100 C.cat 203  ARG203      0.5346
     47  NH1       22.2380   -3.0810   55.5220 N.pl3 203  ARG203      0.1354
     48  NH2       21.8660   -1.2130   54.2580 N.pl3 203  ARG203      0.1354
     49  N         20.5280    1.4100   59.5990 N.am  204  THR204     -0.1951
     50  CA        19.5130    1.6090   60.6220 C.3   204  THR204      0.1897
     51  C         18.1510    1.4600   59.9720 C.2   204  THR204      0.2313
     52  O         17.8380    2.1440   59.0110 O.2   204  THR204     -0.2863
     53  CB        19.6510    2.9750   61.2950 C.3   204  THR204      0.1794
     54  OG1       20.8820    2.9870   62.0180 O.3   204  THR204     -0.2208
     55  CG2       18.5640    3.1740   62.2980 C.3   204  THR204      0.0378
     56  N         21.7440    7.9970   52.0680 N.3   214  TRP214     -0.1241
     57  CA        22.8230    8.8880   52.4670 C.3   214  TRP214      0.1605
     58  C         23.9310    8.8680   51.4250 C.2   214  TRP214      0.2264
     59  O         24.1800    7.8320   50.7890 O.2   214  TRP214     -0.2867
     60  CB        23.4740    8.4120   53.7610 C.3   214  TRP214      0.0550
     61  CG        22.5700    8.5050   54.9620 C.ar  214  TRP214      0.0003
     62  CD1       21.6430    7.5900   55.3940 C.ar  214  TRP214      0.0946
     63  CD2       22.5680    9.5420   55.9440 C.ar  214  TRP214      0.0152
     64  NE1       21.0370    8.0240   56.5580 N.ar  214  TRP214     -0.2442
     65  CE2       21.5980    9.2120   56.9190 C.ar  214  TRP214      0.0810
     66  CE3       23.2610   10.7460   56.0620 C.ar  214  TRP214      0.0012
     67  CZ2       21.3260   10.0250   58.0160 C.ar  214  TRP214      0.0191
     68  CZ3       22.9900   11.5450   57.1590 C.ar  214  TRP214      0.0001
     69  CH2       22.0430   11.1750   58.1320 C.ar  214  TRP214      0.0015
     70  N         27.5640    8.4080   51.6570 N.3   216  TYR216     -0.1241
     71  CA        28.3490    7.7780   52.7450 C.3   216  TYR216      0.1605
     72  C         29.7710    8.2470   52.7280 C.2   216  TYR216      0.2264
     73  O         30.4630    8.1880   51.6930 O.2   216  TYR216     -0.2867
     74  CB        28.3540    6.2670   52.5150 C.3   216  TYR216      0.0534
     75  CG        29.2330    5.4170   53.4110 C.ar  216  TYR216     -0.0201
     76  CD1       29.1700    5.5210   54.8230 C.ar  216  TYR216     -0.0009
     77  CD2       30.0770    4.4850   52.8480 C.ar  216  TYR216     -0.0009
     78  CE1       29.9690    4.7010   55.6480 C.ar  216  TYR216      0.0417
     79  CE2       30.8830    3.6680   53.6690 C.ar  216  TYR216      0.0417
     80  CZ        30.8190    3.7700   55.0640 C.ar  216  TYR216      0.1957
     81  OH        31.5820    2.9960   55.9010 O.3   216  TYR216     -0.2866
     82  N         27.4230   -1.9810   48.9030 N.3   227  TYR227     -0.1241
     83  CA        27.2920   -0.5490   48.6310 C.3   227  TYR227      0.1605
     84  C         26.8640   -0.1840   47.2090 C.2   227  TYR227      0.2264
     85  O         26.7600    1.0040   46.8980 O.2   227  TYR227     -0.2867
     86  CB        28.6180    0.1800   48.9720 C.3   227  TYR227      0.0534
     87  CG        29.0650    0.0130   50.3980 C.ar  227  TYR227     -0.0201
     88  CD1       28.2600    0.4380   51.4450 C.ar  227  TYR227     -0.0009
     89  CD2       30.2580   -0.6040   50.7010 C.ar  227  TYR227     -0.0009
     90  CE1       28.6340    0.2830   52.7400 C.ar  227  TYR227      0.0417
     91  CE2       30.6450   -0.8100   52.0230 C.ar  227  TYR227      0.0417
     92  CZ        29.8290   -0.3440   53.0490 C.ar  227  TYR227      0.1957
     93  OH        30.2200   -0.5270   54.3610 O.3   227  TYR227     -0.2866
@<TRIPOS>BOND
     1    85    84    2
     2    84    83    1
     3    83    82    1
     4    83    86    1
     5    86    87    1
     6    17    18    1
     7    18    19    1
     8    18    21    1
     9    87    89   ar
    10    87    88   ar
    11    23    21    1
    12    31    29    1
    13    30    29    1
    14    89    91   ar
    15    29    28    1
    16    59    58    2
    17    19    20    2
    18    19    24   am
    19    21    22    1
    20    58    57    1
    21    88    90   ar
    22    24    25    1
    23    70    71    1
    24    73    72    2
    25    91    92   ar
    26    56    57    1
    27    28    25    1
    28    25    26    1
    29    57    60    1
    30    74    71    1
    31    74    75    1
    32    72    71    1
    33    90    92   ar
    34    77    75   ar
    35    77    79   ar
    36    92    93    1
    37    75    76   ar
    38    79    80   ar
    39    60    61    1
    40    26    27    2
    41    26    32   am
    42    48    46    1
    43    32    33    1
    44    76    78   ar
    45    61    62   ar
    46    61    63   ar
    47    80    78   ar
    48    80    81    1
    49    46    47    1
    50    46    45    2
    51    62    64   ar
    52    11    10    1
    53    11    12    2
    54    10    13    1
    55    10     9    1
    56    45    44    1
    57    63    66   ar
    58    63    65   ar
    59    66    68   ar
    60    15    14   ar
    61    13    14    1
    62    33    34    1
    63    33    36    1
    64    35    34    2
    65    64    65   ar
    66    14    16   ar
    67    34    38   am
    68    65    67   ar
    69    44    43    1
    70    36    37    1
    71    68    69   ar
    72    38    39    1
    73    43    42    1
    74    67    69   ar
    75    39    42    1
    76    39    40    1
    77    52    51    2
    78     1     2    1
    79    40    49   am
    80    40    41    2
    81     7     6    2
    82     8     6   am
    83    49    50    1
    84     6     5    1
    85    51    50    1
    86     5     2    1
    87     2     3    1
    88     4     3    2
    89    50    53    1
    90    53    54    1
    91    53    55    1
