@<TRIPOS>MOLECULE
tmp/4efsA00.pdb
 181 181 0 0 0
SMALL
GASTEIGER

@<TRIPOS>ATOM
      1  N        -12.8570  -31.1010    8.3720 N.3    75  GLY75      -0.1210
      2  CA       -12.7650  -31.1940    6.9440 C.3    75  GLY75       0.1956
      3  C        -12.5710  -29.8270    6.2970 C.2    75  GLY75       0.2612
      4  O        -11.5990  -29.1330    6.6510 O.2    75  GLY75      -0.2717
      5  N        -13.3610  -29.4910    5.3000 N.am   76  ILE76      -0.1965
      6  CA       -13.2800  -28.1650    4.6250 C.3    76  ILE76       0.1727
      7  C        -13.5330  -27.0790    5.6720 C.2    76  ILE76       0.2616
      8  O        -14.5970  -27.0140    6.2990 O.2    76  ILE76      -0.2715
      9  CB       -14.3380  -27.9890    3.4890 C.3    76  ILE76       0.0290
     10  CG1      -14.1860  -29.0540    2.3970 C.3    76  ILE76       0.0022
     11  CG2      -14.3040  -26.5950    2.8890 C.3    76  ILE76       0.0023
     12  CD1      -15.6020  -29.2680    1.7500 C.3    76  ILE76       0.0001
     13  N        -12.6010  -26.1530    5.7680 N.am   77  LEU77      -0.1963
     14  CA       -12.7240  -25.0390    6.7480 C.3    77  LEU77       0.1728
     15  C        -13.2590  -23.8170    6.0160 C.2    77  LEU77       0.2616
     16  O        -14.0100  -23.0070    6.6190 O.2    77  LEU77      -0.2715
     17  CB       -11.3580  -24.6710    7.3710 C.3    77  LEU77       0.0311
     18  CG       -10.6560  -25.9050    7.9770 C.3    77  LEU77       0.0022
     19  CD1       -9.3230  -25.3710    8.5430 C.3    77  LEU77       0.0001
     20  CD2      -11.5620  -26.5170    9.0940 C.3    77  LEU77       0.0001
     21  N        -12.9130  -23.6640    4.7190 N.am   78  ALA78      -0.1963
     22  CA       -13.2280  -22.4760    3.9690 C.3    78  ALA78       0.1728
     23  C        -12.9070  -22.7490    2.5040 C.2    78  ALA78       0.2616
     24  O        -12.2380  -23.7680    2.2060 O.2    78  ALA78      -0.2715
     25  CB       -12.3840  -21.2570    4.4250 C.3    78  ALA78       0.0334
     26  N        -13.3560  -21.9180    1.6050 N.am   79  HIS79      -0.1973
     27  CA       -12.9240  -21.9680    0.2300 C.3    79  HIS79       0.1656
     28  C        -13.0560  -20.6440   -0.4400 C.2    79  HIS79       0.2291
     29  O        -13.7020  -19.7590    0.0790 O.2    79  HIS79      -0.2864
     30  CB       -13.6040  -23.0980   -0.6120 C.3    79  HIS79       0.0771
     31  CG       -15.0720  -22.9480   -0.7200 C.ar   79  HIS79       0.0820
     32  ND1      -15.9230  -24.0550   -0.7240 N.ar   79  HIS79      -0.2267
     33  CD2      -15.8230  -21.8490   -0.8760 C.ar   79  HIS79       0.1154
     34  CE1      -17.1770  -23.6130   -0.8080 C.ar   79  HIS79       0.1986
     35  NE2      -17.1600  -22.2790   -0.9460 N.ar   79  HIS79      -0.2212
     36  N         -5.3000  -17.0090   10.0590 N.3   110  LEU110     -0.1231
     37  CA        -4.5170  -17.8990    9.2220 C.3   110  LEU110      0.1693
     38  C         -5.3260  -18.4600    8.0740 C.2   110  LEU110      0.2592
     39  O         -4.8430  -18.5360    6.9620 O.2   110  LEU110     -0.2718
     40  CB        -3.9290  -19.0450   10.0350 C.3   110  LEU110      0.0284
     41  CG        -2.8910  -18.6430   11.0700 C.3   110  LEU110      0.0019
     42  CD1       -2.6280  -19.8040   11.9930 C.3   110  LEU110      0.0001
     43  CD2       -1.6230  -18.2080   10.4000 C.3   110  LEU110      0.0001
     44  N         -6.5620  -18.8480    8.3600 N.am  111  THR111     -0.1953
     45  CA        -7.4060  -19.4020    7.3180 C.3   111  THR111      0.1897
     46  C         -7.7110  -18.3360    6.2610 C.2   111  THR111      0.2313
     47  O         -7.7110  -18.6040    5.0480 O.2   111  THR111     -0.2863
     48  CB        -8.7010  -19.9020    7.9290 C.3   111  THR111      0.1794
     49  OG1       -8.3820  -20.8880    8.9060 O.3   111  THR111     -0.2208
     50  CG2       -9.5730  -20.5890    6.7900 C.3   111  THR111      0.0378
     51  N         -4.7370  -17.9010    3.9030 N.3   114  HIS114     -0.1226
     52  CA        -4.7960  -18.9110    2.8080 C.3   114  HIS114      0.1752
     53  C         -5.8660  -18.6600    1.7790 C.2   114  HIS114      0.2595
     54  O         -5.6090  -18.6830    0.5290 O.2   114  HIS114     -0.2718
     55  CB        -5.0510  -20.2890    3.5300 C.3   114  HIS114      0.0759
     56  CG        -5.1090  -21.4460    2.5820 C.ar  114  HIS114      0.0818
     57  ND1       -3.9980  -22.2820    2.3680 N.ar  114  HIS114     -0.2268
     58  CD2       -6.1380  -21.9750    1.8560 C.ar  114  HIS114      0.1154
     59  CE1       -4.3340  -23.2180    1.4810 C.ar  114  HIS114      0.1986
     60  NE2       -5.6330  -23.0800    1.1730 N.ar  114  HIS114     -0.2212
     61  N         -7.0780  -18.3850    2.2290 N.am  115  GLU115     -0.1979
     62  CA        -8.1500  -18.1520    1.2900 C.3   115  GLU115      0.1602
     63  C         -7.9820  -16.8850    0.4010 C.2   115  GLU115      0.2287
     64  O         -8.2450  -16.9520   -0.8180 O.2   115  GLU115     -0.2864
     65  CB        -9.4900  -18.0600    2.0980 C.3   115  GLU115      0.0415
     66  CG        -9.8790  -19.4370    2.6930 C.3   115  GLU115      0.1163
     67  CD        -9.8840  -20.6210    1.7370 C.2   115  GLU115      0.3649
     68  OE1      -10.0950  -20.4710    0.5210 O.co2 115  GLU115     -0.2457
     69  OE2       -9.6220  -21.7140    2.2940 O.co2 115  GLU115     -0.2457
     70  N         -5.9710  -17.7290   -2.5280 N.3   118  HIS118     -0.1241
     71  CA        -6.7750  -18.2300   -3.6490 C.3   118  HIS118      0.1621
     72  C         -7.5610  -17.0810   -4.3220 C.2   118  HIS118      0.2264
     73  O         -7.7020  -17.0500   -5.5700 O.2   118  HIS118     -0.2867
     74  CB        -7.8000  -19.2780   -3.1140 C.3   118  HIS118      0.0745
     75  CG        -7.1730  -20.6160   -2.7060 C.ar  118  HIS118      0.0817
     76  ND1       -6.2600  -21.2790   -3.5040 N.ar  118  HIS118     -0.2268
     77  CD2       -7.3810  -21.4160   -1.6210 C.ar  118  HIS118      0.1154
     78  CE1       -5.9460  -22.4320   -2.9410 C.ar  118  HIS118      0.1986
     79  NE2       -6.6210  -22.5540   -1.7780 N.ar  118  HIS118     -0.2212
     80  N         -2.2860  -24.3550   -4.6760 N.3   124  HIS124     -0.1241
     81  CA        -1.6240  -24.8230   -3.5410 C.3   124  HIS124      0.1621
     82  C         -0.1410  -25.0340   -3.6980 C.2   124  HIS124      0.2264
     83  O          0.3140  -25.2520   -4.8070 O.2   124  HIS124     -0.2867
     84  CB        -2.2300  -26.1920   -3.1260 C.3   124  HIS124      0.0745
     85  CG        -3.5460  -26.0190   -2.4230 C.ar  124  HIS124      0.0817
     86  ND1       -4.6110  -26.8840   -2.5260 N.ar  124  HIS124     -0.2268
     87  CD2       -3.9710  -24.9800   -1.6230 C.ar  124  HIS124      0.1154
     88  CE1       -5.6290  -26.4160   -1.8040 C.ar  124  HIS124      0.1986
     89  NE2       -5.2640  -25.2770   -1.2420 N.ar  124  HIS124     -0.2212
     90  N          5.5500  -27.5320    2.9920 N.3   128  PRO128     -0.2102
     91  CA         4.8700  -27.6010    4.2920 C.3   128  PRO128      0.1504
     92  C          4.9250  -26.3490    5.1250 C.2   128  PRO128      0.2576
     93  O          4.1390  -26.2220    6.0760 O.2   128  PRO128     -0.2718
     94  CB         5.5960  -28.7650    4.9970 C.3   128  PRO128      0.0282
     95  CG         6.2680  -29.5310    3.7830 C.3   128  PRO128      0.0208
     96  CD         6.7090  -28.4700    2.9340 C.3   128  PRO128      0.0893
     97  N          5.8500  -25.4500    4.8030 N.am  129  LYS129     -0.1966
     98  CA         5.9740  -24.2180    5.5450 C.3   129  LYS129      0.1728
     99  C          5.2270  -23.0810    4.8200 C.2   129  LYS129      0.2616
    100  O          5.1950  -21.9500    5.3690 O.2   129  LYS129     -0.2715
    101  CB         7.4340  -23.7740    5.8380 C.3   129  LYS129      0.0311
    102  CG         8.2650  -24.7600    6.6630 C.3   129  LYS129      0.0038
    103  CD         7.8870  -24.8130    8.1390 C.3   129  LYS129      0.0206
    104  CE         9.1090  -25.0900    9.0870 C.3   129  LYS129      0.1093
    105  NZ        10.1220  -26.0460    8.5010 N.3   129  LYS129     -0.1314
    106  N          4.6310  -23.3660    3.6610 N.am  130  ALA130     -0.1963
    107  CA         3.9640  -22.2980    2.8880 C.3   130  ALA130      0.1728
    108  C          2.5430  -22.1830    3.3720 C.2   130  ALA130      0.2616
    109  O          1.9050  -23.2280    3.5690 O.2   130  ALA130     -0.2715
    110  CB         3.9620  -22.5970    1.4700 C.3   130  ALA130      0.0334
    111  N          1.9980  -20.9570    3.5050 N.am  131  VAL131     -0.1977
    112  CA         0.5850  -20.8580    3.9780 C.3   131  VAL131      0.1596
    113  C         -0.3290  -21.4730    2.9480 C.2   131  VAL131      0.2287
    114  O         -1.5160  -21.8220    3.2820 O.2   131  VAL131     -0.2864
    115  CB         0.2390  -19.3590    4.3130 C.3   131  VAL131      0.0276
    116  CG1        0.1050  -18.5430    2.9950 C.3   131  VAL131      0.0022
    117  CG2       -1.1180  -19.2560    5.0650 C.3   131  VAL131      0.0022
    118  N         -0.0010  -24.3170    1.5380 N.3   133  PHE133     -0.1228
    119  CA        -0.0120  -25.8190    1.6990 C.3   133  PHE133      0.1721
    120  C         -1.5070  -26.1850    1.9170 C.2   133  PHE133      0.2437
    121  O         -2.2520  -25.4260    2.4970 O.2   133  PHE133     -0.2733
    122  CB         0.8740  -26.2130    2.8680 C.3   133  PHE133      0.0547
    123  CG         1.1450  -27.7130    2.9060 C.ar  133  PHE133     -0.0202
    124  CD1        2.0030  -28.3060    1.9000 C.ar  133  PHE133     -0.0042
    125  CD2        0.5150  -28.4700    3.8510 C.ar  133  PHE133     -0.0042
    126  CE1        2.1720  -29.7640    1.8980 C.ar  133  PHE133     -0.0003
    127  CE2        0.7340  -29.9120    3.8700 C.ar  133  PHE133     -0.0003
    128  CZ         1.5710  -30.4960    2.9110 C.ar  133  PHE133     -0.0000
    129  N         -1.8990  -27.3600    1.4610 N.am  134  PRO134     -0.2718
    130  CA        -3.3540  -27.7240    1.4130 C.3   134  PRO134      0.1535
    131  C         -4.0330  -27.9670    2.7270 C.2   134  PRO134      0.2599
    132  O         -5.2330  -28.0630    2.7300 O.2   134  PRO134     -0.2715
    133  CB        -3.3870  -29.0160    0.5350 C.3   134  PRO134      0.0310
    134  CG        -2.0380  -29.1220   -0.1220 C.3   134  PRO134      0.0237
    135  CD        -1.0660  -28.2800    0.6320 C.3   134  PRO134      0.0939
    136  N         -3.3290  -28.0450    3.7980 N.am  135  THR135     -0.1937
    137  CA        -3.9410  -28.3400    5.0830 C.3   135  THR135      0.2028
    138  C         -3.6280  -27.3340    6.1260 C.2   135  THR135      0.2642
    139  O         -2.5050  -26.8140    6.2200 O.2   135  THR135     -0.2714
    140  CB        -3.5620  -29.8140    5.5550 C.3   135  THR135      0.1808
    141  OG1       -2.1460  -29.9370    5.7670 O.3   135  THR135     -0.2208
    142  CG2       -4.0260  -30.7600    4.5350 C.3   135  THR135      0.0379
    143  N         -4.5960  -27.0630    6.9900 N.am  136  TYR136     -0.1959
    144  CA        -4.4050  -26.1490    8.0400 C.3   136  TYR136      0.1771
    145  C         -3.3440  -26.5400    9.0670 C.2   136  TYR136      0.2619
    146  O         -3.2400  -27.7250    9.4520 O.2   136  TYR136     -0.2715
    147  CB        -5.7890  -26.0560    8.7730 C.3   136  TYR136      0.0574
    148  CG        -5.8250  -25.1560   10.0160 C.ar  136  TYR136     -0.0198
    149  CD1       -6.1070  -23.7450    9.9290 C.ar  136  TYR136     -0.0009
    150  CD2       -5.5830  -25.6580   11.2580 C.ar  136  TYR136     -0.0009
    151  CE1       -6.2020  -22.9630   11.0260 C.ar  136  TYR136      0.0417
    152  CE2       -5.6030  -24.8730   12.3130 C.ar  136  TYR136      0.0417
    153  CZ        -5.8920  -23.5160   12.2280 C.ar  136  TYR136      0.1957
    154  OH        -5.9010  -22.8190   13.4140 O.3   136  TYR136     -0.2866
    155  N         -2.6030  -25.5420    9.5170 N.am  137  LYS137     -0.1977
    156  CA        -1.6660  -25.6190   10.5730 C.3   137  LYS137      0.1596
    157  C         -1.7270  -24.3340   11.3750 C.2   137  LYS137      0.2287
    158  O         -1.7010  -23.2460   10.8080 O.2   137  LYS137     -0.2864
    159  CB        -0.2550  -25.7730   10.0030 C.3   137  LYS137      0.0298
    160  CG         0.6920  -26.2490   11.1330 C.3   137  LYS137      0.0038
    161  CD         1.7120  -27.2780   10.6730 C.3   137  LYS137      0.0206
    162  CE         3.0240  -26.6260   10.2990 C.3   137  LYS137      0.1093
    163  NZ         2.7620  -25.2180    9.9210 N.3   137  LYS137     -0.1314
    164  N          0.1340  -21.7500   13.4440 N.3   139  VAL139     -0.1245
    165  CA         1.5180  -21.3180   13.6680 C.3   139  VAL139      0.1561
    166  C          1.3820  -20.0420   14.4210 C.2   139  VAL139      0.2260
    167  O          0.3570  -19.3330   14.3430 O.2   139  VAL139     -0.2867
    168  CB         2.3050  -21.1100   12.3270 C.3   139  VAL139      0.0252
    169  CG1        2.4620  -22.3480   11.5710 C.3   139  VAL139      0.0019
    170  CG2        1.6920  -20.0070   11.5350 C.3   139  VAL139      0.0019
    171  N          4.0350  -14.7700   12.5100 N.3   144  PHE144     -0.1241
    172  CA         3.6990  -15.4230   11.2310 C.3   144  PHE144      0.1605
    173  C          4.4360  -14.7260   10.0790 C.2   144  PHE144      0.2264
    174  O          4.4610  -13.4810    9.9760 O.2   144  PHE144     -0.2867
    175  CB         2.1650  -15.4230   11.0250 C.3   144  PHE144      0.0534
    176  CG         1.7550  -15.7890    9.6180 C.ar  144  PHE144     -0.0203
    177  CD1        1.6410  -17.1450    9.2650 C.ar  144  PHE144     -0.0042
    178  CD2        1.5840  -14.8170    8.6610 C.ar  144  PHE144     -0.0042
    179  CE1        1.3070  -17.5410    7.9700 C.ar  144  PHE144     -0.0003
    180  CE2        1.2370  -15.1950    7.3070 C.ar  144  PHE144     -0.0003
    181  CZ         1.1290  -16.5290    6.9740 C.ar  144  PHE144     -0.0000
@<TRIPOS>BOND
     1    73    72    2
     2    83    82    2
     3    80    81    1
     4    72    71    1
     5    82    81    1
     6    71    74    1
     7    71    70    1
     8    81    84    1
     9    76    78   ar
    10    76    75   ar
    11    84    85    1
    12    74    75    1
    13    78    79   ar
    14    75    77   ar
    15    86    85   ar
    16    86    88   ar
    17    85    87   ar
    18    88    89   ar
    19    79    77   ar
    20    87    89   ar
    21    35    33   ar
    22    35    34   ar
    23    33    31   ar
    24    64    63    2
    25    34    32   ar
    26    32    31   ar
    27    31    30    1
    28    30    27    1
    29    28    29    2
    30    28    27    1
    31   134   133    1
    32   134   135    1
    33    27    26    1
    34    63    62    1
    35    68    67   ar
    36    54    53    2
    37   133   130    1
    38   135   129    1
    39    60    59   ar
    40    60    58   ar
    41    62    65    1
    42    62    61    1
    43   130   129    1
    44   130   131    1
    45   129   120   am
    46   110   107    1
    47    59    57   ar
    48   118   119    1
    49    26    23   am
    50   119   120    1
    51   119   122    1
    52    67    69   ar
    53    67    66    1
    54    12    10    1
    55    53    61   am
    56    53    52    1
    57    58    56   ar
    58   126   124   ar
    59   126   128   ar
    60   124   123   ar
    61   120   121    2
    62    65    66    1
    63    24    23    2
    64    57    56   ar
    65    10     9    1
    66    23    22    1
    67    56    55    1
    68   131   132    2
    69   131   136   am
    70    52    55    1
    71    52    51    1
    72   122   123    1
    73   107   108    1
    74   107   106    1
    75    11     9    1
    76   123   125   ar
    77   128   127   ar
    78    96    90    1
    79    96    95    1
    80   113   114    2
    81   113   112    1
    82    90    91    1
    83   116   115    1
    84   108   111   am
    85   108   109    2
    86     9     6    1
    87   111   112    1
    88   106    99   am
    89    95    94    1
    90   136   137    1
    91   125   127   ar
    92    22    25    1
    93    22    21    1
    94   112   115    1
    95    91    94    1
    96    91    92    1
    97   115   117    1
    98   142   140    1
    99     6     5    1
   100     6     7    1
   101    21    15   am
   102    97    92   am
   103    97    98    1
   104    99   100    2
   105    99    98    1
   106    47    46    2
   107   137   140    1
   108   137   138    1
   109    92    93    2
   110     5     3   am
   111    98   101    1
   112   140   141    1
   113     7    13   am
   114     7     8    2
   115    13    14    1
   116   101   102    1
   117    15    16    2
   118    15    14    1
   119   138   139    2
   120   138   143   am
   121    46    45    1
   122     3     4    2
   123     3     2    1
   124   102   103    1
   125    14    17    1
   126    50    48    1
   127     2     1    1
   128    39    38    2
   129   181   180   ar
   130   181   179   ar
   131   143   144    1
   132   180   178   ar
   133    45    48    1
   134    45    44    1
   135    17    18    1
   136    48    49    1
   137   179   177   ar
   138    18    19    1
   139    18    20    1
   140   144   147    1
   141   144   145    1
   142    38    44   am
   143    38    37    1
   144   103   104    1
   145   105   104    1
   146   178   176   ar
   147   147   148    1
   148   145   146    2
   149   145   155   am
   150    37    40    1
   151    37    36    1
   152   177   176   ar
   153   155   156    1
   154   176   175    1
   155   163   162    1
   156   149   148   ar
   157   149   151   ar
   158   174   173    2
   159   159   156    1
   160   159   160    1
   161   148   150   ar
   162    40    41    1
   163   173   172    1
   164   162   161    1
   165    43    41    1
   166   156   157    1
   167   161   160    1
   168   158   157    2
   169   175   172    1
   170   151   153   ar
   171    41    42    1
   172   172   171    1
   173   150   152   ar
   174   170   168    1
   175   169   168    1
   176   153   152   ar
   177   153   154    1
   178   168   165    1
   179   164   165    1
   180   165   166    1
   181   167   166    2
