@<TRIPOS>MOLECULE
tmp/4eftA00.pdb
 148 139 0 0 0
SMALL
GASTEIGER

@<TRIPOS>ATOM
      1  N         82.5350   26.5640   23.4820 N.3     6  PHE6       -0.1241
      2  CA        82.1050   27.8320   24.0820 C.3     6  PHE6        0.1605
      3  C         83.3010   28.7980   24.0370 C.2     6  PHE6        0.2264
      4  O         84.4440   28.3420   24.0910 O.2     6  PHE6       -0.2867
      5  CB        81.7540   27.6280   25.5620 C.3     6  PHE6        0.0534
      6  CG        80.3450   27.1530   25.7890 C.ar    6  PHE6       -0.0203
      7  CD1       79.2660   27.9750   25.5080 C.ar    6  PHE6       -0.0042
      8  CD2       80.0990   25.8930   26.3120 C.ar    6  PHE6       -0.0042
      9  CE1       77.9670   27.5350   25.7260 C.ar    6  PHE6       -0.0003
     10  CE2       78.8080   25.4390   26.4870 C.ar    6  PHE6       -0.0003
     11  CZ        77.7450   26.2620   26.1940 C.ar    6  PHE6       -0.0000
     12  N         65.4060   33.4730   33.4790 N.3    32  LEU32      -0.1245
     13  CA        64.7710   32.8930   32.2980 C.3    32  LEU32       0.1561
     14  C         63.4630   33.6130   31.9690 C.2    32  LEU32       0.2260
     15  O         63.2410   33.9430   30.8070 O.2    32  LEU32      -0.2867
     16  CB        64.5700   31.3540   32.4680 C.3    32  LEU32       0.0270
     17  CG        65.9020   30.5310   32.5630 C.3    32  LEU32       0.0019
     18  CD1       65.6270   29.0640   32.7540 C.3    32  LEU32       0.0001
     19  CD2       66.7850   30.7190   31.3110 C.3    32  LEU32       0.0001
     20  N         64.3250   37.0340   30.5220 N.3    35  ASN35      -0.1225
     21  CA        64.7920   36.9060   29.1340 C.3    35  ASN35       0.1785
     22  C         63.6200   36.6750   28.2040 C.2    35  ASN35       0.2597
     23  O         63.6130   37.2080   27.1040 O.2    35  ASN35      -0.2718
     24  CB        65.7660   35.7460   28.9930 C.3    35  ASN35       0.1169
     25  CG        67.1500   36.0300   29.5300 C.2    35  ASN35       0.2627
     26  OD1       67.4640   37.1390   29.9720 O.2    35  ASN35      -0.2716
     27  ND2       68.0130   35.0310   29.4840 N.am   35  ASN35      -0.0877
     28  N         62.6430   35.8700   28.6380 N.am   36  SER36      -0.1952
     29  CA        61.4250   35.5970   27.8640 C.3    36  SER36       0.1924
     30  C         60.6810   36.9220   27.6540 C.2    36  SER36       0.2314
     31  O         60.3070   37.2580   26.5270 O.2    36  SER36      -0.2863
     32  CB        60.5290   34.6040   28.6060 C.3    36  SER36       0.2116
     33  OG        60.9310   33.2710   28.3570 O.3    36  SER36      -0.2180
     34  N         62.3940   39.1430   25.1070 N.3    39  ALA39      -0.1245
     35  CA        62.1320   38.6420   23.7490 C.3    39  ALA39       0.1562
     36  C         60.6870   38.9760   23.3060 C.2    39  ALA39       0.2260
     37  O         60.4370   39.1550   22.1140 O.2    39  ALA39      -0.2867
     38  CB        62.3760   37.1530   23.6880 C.3    39  ALA39       0.0290
     39  N         58.0560   30.7800   25.4350 N.3    77  ASP77      -0.1239
     40  CA        57.5720   32.1350   25.1570 C.3    77  ASP77       0.1674
     41  C         57.2950   32.2740   23.6680 C.2    77  ASP77       0.2266
     42  O         57.8370   31.5120   22.8740 O.2    77  ASP77      -0.2867
     43  CB        58.5080   33.2410   25.6650 C.3    77  ASP77       0.1410
     44  CG        59.8520   33.3230   24.9630 C.2    77  ASP77       0.3668
     45  OD1       59.8850   33.7270   23.7620 O.co2  77  ASP77      -0.2456
     46  OD2       60.8670   33.0720   25.6210 O.co2  77  ASP77      -0.2456
     47  N         60.3860   37.1360   20.1290 N.3    80  ILE80      -0.1231
     48  CA        61.0670   37.3280   18.8400 C.3    80  ILE80       0.1692
     49  C         61.7640   36.0490   18.2920 C.2    80  ILE80       0.2593
     50  O         61.8140   35.8390   17.0830 O.2    80  ILE80      -0.2718
     51  CB        62.0280   38.5650   18.9210 C.3    80  ILE80       0.0266
     52  CG1       62.5530   39.0010   17.5410 C.3    80  ILE80       0.0019
     53  CG2       63.1900   38.3440   19.9120 C.3    80  ILE80       0.0020
     54  CD1       61.7440   39.9030   16.8570 C.3    80  ILE80       0.0001
     55  N         62.2640   35.2150   19.1840 N.am   81  GLY81      -0.1942
     56  CA        63.0090   34.0220   18.7970 C.3    81  GLY81       0.2014
     57  C         64.4400   34.3770   18.4350 C.2    81  GLY81       0.2638
     58  O         64.8350   35.5470   18.5050 O.2    81  GLY81      -0.2714
     59  N         65.2420   33.3780   18.0660 N.am   82  MET82      -0.1976
     60  CA        66.6450   33.6220   17.7170 C.3    82  MET82       0.1605
     61  C         67.0220   32.9900   16.4090 C.2    82  MET82       0.2287
     62  O         66.5030   31.9270   16.0640 O.2    82  MET82      -0.2864
     63  CB        67.5670   33.0930   18.8260 C.3    82  MET82       0.0413
     64  CG        67.5040   33.8980   20.1050 C.3    82  MET82       0.0598
     65  SD        68.4060   33.1210   21.4480 S.3    82  MET82      -0.1393
     66  CE        67.2530   31.7620   21.8920 C.3    82  MET82       0.0692
     67  N         72.2560   32.1200   18.1500 N.3    87  LEU87      -0.1245
     68  CA        72.6130   30.9240   18.9250 C.3    87  LEU87       0.1561
     69  C         74.1090   30.6420   18.9710 C.2    87  LEU87       0.2260
     70  O         74.6410   30.3530   20.0410 O.2    87  LEU87      -0.2867
     71  CB        71.8850   29.6810   18.3940 C.3    87  LEU87       0.0270
     72  CG        70.3930   29.5720   18.6320 C.3    87  LEU87       0.0019
     73  CD1       69.8660   28.3160   17.9440 C.3    87  LEU87       0.0001
     74  CD2       70.0590   29.5190   20.1380 C.3    87  LEU87       0.0001
     75  N         75.2880   35.8750   20.7340 N.3    91  LEU91      -0.1231
     76  CA        74.9860   35.8590   22.1580 C.3    91  LEU91       0.1693
     77  C         76.1970   35.5410   23.0380 C.2    91  LEU91       0.2592
     78  O         76.3370   36.1340   24.1110 O.2    91  LEU91      -0.2718
     79  CB        73.7470   35.0050   22.4830 C.3    91  LEU91       0.0284
     80  CG        72.4100   35.4420   21.8190 C.3    91  LEU91       0.0019
     81  CD1       71.3270   34.5150   22.2110 C.3    91  LEU91       0.0001
     82  CD2       71.9990   36.8670   22.2040 C.3    91  LEU91       0.0001
     83  N         77.0900   34.6840   22.5340 N.am   92  GLY92      -0.1957
     84  CA        78.3470   34.3480   23.1920 C.3    92  GLY92       0.1869
     85  C         79.2790   35.5450   23.2730 C.2    92  GLY92       0.2309
     86  O         79.9000   35.7650   24.3140 O.2    92  GLY92      -0.2863
     87  N         73.9080   40.7320   32.1750 N.3   119  GLY119     -0.1225
     88  CA        73.3540   40.2010   30.9280 C.3   119  GLY119      0.1811
     89  C         73.6860   38.7560   30.5820 C.2   119  GLY119      0.2280
     90  O         73.5120   38.3380   29.4290 O.2   119  GLY119     -0.2866
     91  N         71.0390   33.8430   31.7050 N.3   122  PHE122     -0.1227
     92  CA        70.7590   32.5180   31.1390 C.3   122  PHE122      0.1736
     93  C         71.5280   31.3660   31.7860 C.2   122  PHE122      0.2595
     94  O         70.9530   30.3160   32.0380 O.2   122  PHE122     -0.2718
     95  CB        70.9920   32.4910   29.6090 C.3   122  PHE122      0.0547
     96  CG        70.9720   31.0970   29.0100 C.ar  122  PHE122     -0.0202
     97  CD1       69.7660   30.4580   28.7330 C.ar  122  PHE122     -0.0042
     98  CD2       72.1630   30.3910   28.7990 C.ar  122  PHE122     -0.0042
     99  CE1       69.7480   29.1560   28.2260 C.ar  122  PHE122     -0.0003
    100  CE2       72.1450   29.0900   28.2980 C.ar  122  PHE122     -0.0003
    101  CZ        70.9430   28.4760   28.0210 C.ar  122  PHE122     -0.0000
    102  N         72.8390   31.5500   32.0030 N.am  123  TYR123     -0.1976
    103  CA        73.7320   30.5110   32.4890 C.3   123  TYR123      0.1639
    104  C         73.4440   30.0780   33.9090 C.2   123  TYR123      0.2290
    105  O         73.8580   28.9900   34.2980 O.2   123  TYR123     -0.2864
    106  CB        75.1940   30.9110   32.2550 C.3   123  TYR123      0.0560
    107  CG        75.4650   31.1470   30.7890 C.ar  123  TYR123     -0.0198
    108  CD1       75.7670   30.0910   29.9400 C.ar  123  TYR123     -0.0009
    109  CD2       75.4180   32.4310   30.2480 C.ar  123  TYR123     -0.0009
    110  CE1       75.9970   30.2990   28.5840 C.ar  123  TYR123      0.0417
    111  CE2       75.6290   32.6480   28.8890 C.ar  123  TYR123      0.0417
    112  CZ        75.9320   31.5810   28.0630 C.ar  123  TYR123      0.1957
    113  OH        76.1730   31.7930   26.7260 O.3   123  TYR123     -0.2866
    114  N         67.6160   24.5080   24.0330 N.3   134  VAL134     -0.1245
    115  CA        66.9160   25.7330   23.6310 C.3   134  VAL134      0.1561
    116  C         66.3770   25.4970   22.2430 C.2   134  VAL134      0.2260
    117  O         67.1570   25.2190   21.3310 O.2   134  VAL134     -0.2867
    118  CB        67.8110   27.0080   23.7280 C.3   134  VAL134      0.0252
    119  CG1       67.0720   28.2550   23.2490 C.3   134  VAL134      0.0019
    120  CG2       68.3740   27.2060   25.1350 C.3   134  VAL134      0.0019
    121  N         69.4860   24.2520   20.1530 N.3   146  TRP146     -0.1241
    122  CA        70.7700   24.4760   20.8080 C.3   146  TRP146      0.1605
    123  C         70.7240   23.5560   22.0080 C.2   146  TRP146      0.2264
    124  O         69.6740   23.4100   22.6330 O.2   146  TRP146     -0.2867
    125  CB        70.9200   25.9470   21.2750 C.3   146  TRP146      0.0550
    126  CG        72.1840   26.3000   22.0240 C.ar  146  TRP146      0.0003
    127  CD1       73.2740   26.9490   21.5160 C.ar  146  TRP146      0.0946
    128  CD2       72.4310   26.1580   23.4440 C.ar  146  TRP146      0.0152
    129  NE1       74.1810   27.2130   22.5210 N.ar  146  TRP146     -0.2442
    130  CE2       73.7000   26.7210   23.7070 C.ar  146  TRP146      0.0810
    131  CE3       71.6760   25.6580   24.5290 C.ar  146  TRP146      0.0012
    132  CZ2       74.2270   26.8090   25.0010 C.ar  146  TRP146      0.0191
    133  CZ3       72.2370   25.6770   25.8020 C.ar  146  TRP146      0.0001
    134  CH2       73.4860   26.2670   26.0280 C.ar  146  TRP146      0.0015
    135  N         60.8260   31.0080   21.7800 N.3   168  THR168     -0.1218
    136  CA        61.9230   30.2350   22.3680 C.3   168  THR168      0.1862
    137  C         61.3840   29.3290   23.4510 C.2   168  THR168      0.2287
    138  O         60.5180   29.7210   24.2320 O.2   168  THR168     -0.2866
    139  CB        63.0250   31.1930   22.8740 C.3   168  THR168      0.1770
    140  OG1       63.5190   31.9510   21.7730 O.3   168  THR168     -0.2211
    141  CG2       64.1880   30.4770   23.6260 C.3   168  THR168      0.0375
    142  N         62.9940   26.8510   26.4160 N.3   170  VAL170     -0.1245
    143  CA        64.1860   26.4950   27.1880 C.3   170  VAL170      0.1561
    144  C         63.7660   25.2550   28.0180 C.2   170  VAL170      0.2260
    145  O         62.8860   25.3440   28.8600 O.2   170  VAL170     -0.2867
    146  CB        64.7080   27.6710   28.0770 C.3   170  VAL170      0.0252
    147  CG1       65.9240   27.2450   28.9320 C.3   170  VAL170      0.0019
    148  CG2       65.0560   28.9000   27.2350 C.3   170  VAL170      0.0019
@<TRIPOS>BOND
     1    62    61    2
     2    61    60    1
     3    54    52    1
     4    50    49    2
     5    52    51    1
     6    60    59    1
     7    60    63    1
     8    73    72    1
     9    59    57   am
    10    67    68    1
    11    49    48    1
    12    49    55   am
    13    71    72    1
    14    71    68    1
    15    57    58    2
    16    57    56    1
    17    72    74    1
    18    56    55    1
    19    63    64    1
    20    48    51    1
    21    48    47    1
    22    51    53    1
    23    68    69    1
    24    69    70    2
    25    64    65    1
    26   121   122    1
    27    75    76    1
    28   122   125    1
    29   122   123    1
    30   125   126    1
    31   117   116    2
    32    65    66    1
    33   127   126   ar
    34   127   129   ar
    35   140   139    1
    36   135   136    1
    37    80    82    1
    38    80    81    1
    39    80    79    1
    40   123   124    2
    41   126   128   ar
    42    37    36    2
    43    76    79    1
    44    76    77    1
    45   116   115    1
    46   136   139    1
    47   136   137    1
    48   129   130   ar
    49    83    77   am
    50    83    84    1
    51    42    41    2
    52   139   141    1
    53    77    78    2
    54    84    85    1
    55   119   118    1
    56    85    86    2
    57    36    35    1
    58   128   130   ar
    59   128   131   ar
    60   137   138    2
    61     1     2    1
    62   115   118    1
    63   115   114    1
    64    41    40    1
    65    38    35    1
    66   130   132   ar
    67   118   120    1
    68    35    34    1
    69    45    44   ar
    70     3     2    1
    71     3     4    2
    72     2     5    1
    73   131   133   ar
    74    44    46   ar
    75    44    43    1
    76   132   134   ar
    77    40    39    1
    78    40    43    1
    79     7     9   ar
    80     7     6   ar
    81     5     6    1
    82     9    11   ar
    83     6     8   ar
    84   133   134   ar
    85    11    10   ar
    86     8    10   ar
    87   142   143    1
    88    31    30    2
    89   113   112    1
    90    23    22    2
    91   143   144    1
    92   143   146    1
    93   148   146    1
    94    30    29    1
    95    29    32    1
    96    29    28    1
    97   144   145    2
    98   101    99   ar
    99   101   100   ar
   100   112   110   ar
   101   112   111   ar
   102   146   147    1
   103    22    28   am
   104    22    21    1
   105    99    97   ar
   106   100    98   ar
   107    33    32    1
   108   110   108   ar
   109    97    96   ar
   110    98    96   ar
   111   111   109   ar
   112    24    21    1
   113    24    25    1
   114    96    95    1
   115    21    20    1
   116    90    89    2
   117    27    25   am
   118    25    26    2
   119    95    92    1
   120   108   107   ar
   121   109   107   ar
   122    89    88    1
   123   107   106    1
   124    15    14    2
   125    88    87    1
   126    92    91    1
   127    92    93    1
   128    19    17    1
   129    93   102   am
   130    93    94    2
   131    14    13    1
   132   102   103    1
   133   106   103    1
   134    13    16    1
   135    13    12    1
   136    16    17    1
   137   103   104    1
   138    17    18    1
   139   104   105    2
