@<TRIPOS>MOLECULE
tmp/4efuA00.pdb
 138 127 0 0 0
SMALL
GASTEIGER

@<TRIPOS>ATOM
      1  N         -0.8230   11.7230   16.4220 N.3    32  LEU32      -0.1245
      2  CA        -1.3840   12.2930   17.6490 C.3    32  LEU32       0.1561
      3  C         -2.6800   11.5990   18.0430 C.2    32  LEU32       0.2260
      4  O         -2.8560   11.2770   19.2210 O.2    32  LEU32      -0.2867
      5  CB        -1.5390   13.8220   17.5380 C.3    32  LEU32       0.0270
      6  CG        -0.2320   14.5950   17.2840 C.3    32  LEU32       0.0019
      7  CD1       -0.5210   16.0480   16.9540 C.3    32  LEU32       0.0001
      8  CD2        0.7300   14.4840   18.4740 C.3    32  LEU32       0.0001
      9  N         -1.7940    8.2250   19.6090 N.3    35  ASN35      -0.1225
     10  CA        -1.3300    8.4680   20.9900 C.3    35  ASN35       0.1785
     11  C         -2.5160    8.6750   21.9400 C.2    35  ASN35       0.2597
     12  O         -2.4790    8.1910   23.0640 O.2    35  ASN35      -0.2718
     13  CB        -0.3860    9.6880   21.0520 C.3    35  ASN35       0.1169
     14  CG         1.0310    9.4520   20.5420 C.2    35  ASN35       0.2627
     15  OD1        1.8530   10.3810   20.4600 O.2    35  ASN35      -0.2716
     16  ND2        1.3730    8.2100   20.2260 N.am   35  ASN35      -0.0877
     17  N         -3.5490    9.4190   21.4930 N.am   36  SER36      -0.1952
     18  CA        -4.7710    9.6720   22.2580 C.3    36  SER36       0.1924
     19  C         -5.5090    8.3370   22.4670 C.2    36  SER36       0.2314
     20  O         -5.9250    8.0310   23.5860 O.2    36  SER36      -0.2863
     21  CB        -5.6770   10.6570   21.5180 C.3    36  SER36       0.2116
     22  OG        -5.1850   11.9830   21.6040 O.3    36  SER36      -0.2180
     23  N         -4.2270    5.2980   22.4510 N.3    38  ASP38      -0.1225
     24  CA        -3.4650    4.4600   23.3870 C.3    38  ASP38       0.1805
     25  C         -3.7670    4.8810   24.8370 C.2    38  ASP38       0.2597
     26  O         -3.9750    4.0150   25.6750 O.2    38  ASP38      -0.2718
     27  CB        -1.9570    4.5320   23.0680 C.3    38  ASP38       0.1424
     28  CG        -1.5440    3.8500   21.7590 C.2    38  ASP38       0.3668
     29  OD1       -2.3790    3.1220   21.1710 O.co2  38  ASP38      -0.2456
     30  OD2       -0.3870    4.0260   21.3400 O.co2  38  ASP38      -0.2456
     31  N         -3.8740    6.2150   25.1090 N.am   39  ALA39      -0.1979
     32  CA        -4.1970    6.7420   26.4500 C.3    39  ALA39       0.1597
     33  C         -5.6310    6.3400   26.8740 C.2    39  ALA39       0.2287
     34  O         -5.8760    6.0360   28.0410 O.2    39  ALA39      -0.2864
     35  CB        -4.0580    8.2550   26.4600 C.3    39  ALA39       0.0319
     36  N         -5.7070    2.6850   27.8240 N.3    42  LYS42      -0.1245
     37  CA        -5.0700    2.5660   29.1370 C.3    42  LYS42       0.1561
     38  C         -6.0290    2.8570   30.2950 C.2    42  LYS42       0.2260
     39  O         -6.0400    2.1040   31.2730 O.2    42  LYS42      -0.2867
     40  CB        -3.7700    3.4020   29.2170 C.3    42  LYS42       0.0271
     41  CG        -2.8570    2.9610   30.3710 C.3    42  LYS42       0.0035
     42  CD        -1.4410    3.5260   30.2830 C.3    42  LYS42       0.0206
     43  CE        -0.5990    3.0820   31.4570 C.3    42  LYS42       0.1093
     44  NZ         0.7090    3.7900   31.5010 N.3    42  LYS42      -0.1314
     45  N         -8.1470   14.6090   24.4910 N.3    77  ASP77      -0.1239
     46  CA        -8.6250   13.2760   24.8110 C.3    77  ASP77       0.1674
     47  C         -8.8810   13.1660   26.2950 C.2    77  ASP77       0.2266
     48  O         -8.3100   13.9230   27.0820 O.2    77  ASP77      -0.2867
     49  CB        -7.6810   12.1670   24.3070 C.3    77  ASP77       0.1410
     50  CG        -6.3550   12.0650   25.0350 C.2    77  ASP77       0.3668
     51  OD1       -6.3580   11.7090   26.2470 O.co2  77  ASP77      -0.2456
     52  OD2       -5.3180   12.3230   24.4030 O.co2  77  ASP77      -0.2456
     53  N         -5.8900    8.3300   30.0710 N.3    80  ILE80      -0.1231
     54  CA        -5.2970    8.1850   31.4180 C.3    80  ILE80       0.1692
     55  C         -4.5400    9.4440   31.9140 C.2    80  ILE80       0.2593
     56  O         -4.4050    9.6610   33.1270 O.2    80  ILE80      -0.2718
     57  CB        -4.4620    6.8680   31.5260 C.3    80  ILE80       0.0266
     58  CG1       -4.0470    6.5400   32.9780 C.3    80  ILE80       0.0019
     59  CG2       -3.2660    6.8430   30.5790 C.3    80  ILE80       0.0020
     60  CD1       -4.5100    5.2880   33.4400 C.3    80  ILE80       0.0001
     61  N         -4.0540   10.2410   30.9710 N.am   81  GLY81      -0.1942
     62  CA        -3.2620   11.4200   31.2740 C.3    81  GLY81       0.2014
     63  C         -1.8640   11.0180   31.6920 C.2    81  GLY81       0.2638
     64  O         -1.5260    9.8260   31.7050 O.2    81  GLY81      -0.2714
     65  N         -1.0340   12.0140   32.0210 N.am   82  MET82      -0.1976
     66  CA         0.3480   11.7740   32.4330 C.3    82  MET82       0.1605
     67  C          0.6670   12.5110   33.7260 C.2    82  MET82       0.2287
     68  O          0.2130   13.6430   33.9340 O.2    82  MET82      -0.2864
     69  CB         1.3380   12.2110   31.3400 C.3    82  MET82       0.0413
     70  CG         1.3000   11.3500   30.0870 C.3    82  MET82       0.0598
     71  SD         2.3110   11.9900   28.7370 S.3    82  MET82      -0.1393
     72  CE         1.3340   13.4330   28.1770 C.3    82  MET82       0.0692
     73  N          5.5910   12.4900   32.1480 N.3    87  LEU87      -0.1245
     74  CA         5.8930   13.6130   31.2680 C.3    87  LEU87       0.1561
     75  C          7.3980   13.8500   31.0370 C.2    87  LEU87       0.2260
     76  O          7.8240   13.8580   29.8810 O.2    87  LEU87      -0.2867
     77  CB         5.2060   14.8720   31.8320 C.3    87  LEU87       0.0270
     78  CG         4.9270   16.0490   30.9120 C.3    87  LEU87       0.0019
     79  CD1        3.9330   15.6780   29.8100 C.3    87  LEU87       0.0001
     80  CD2        4.3830   17.2230   31.7160 C.3    87  LEU87       0.0001
     81  N          9.1320    9.4080   29.7060 N.3    91  LEU91      -0.1245
     82  CA         8.9550    9.4550   28.2510 C.3    91  LEU91       0.1561
     83  C         10.0280   10.2690   27.4950 C.2    91  LEU91       0.2260
     84  O          9.7490   10.9420   26.4990 O.2    91  LEU91      -0.2867
     85  CB         7.4860    9.7500   27.8720 C.3    91  LEU91       0.0270
     86  CG         6.4570    8.7760   28.5020 C.3    91  LEU91       0.0019
     87  CD1        5.1020    9.4060   28.6480 C.3    91  LEU91       0.0001
     88  CD2        6.3970    7.4510   27.7690 C.3    91  LEU91       0.0001
     89  N          7.7180    4.4920   17.9730 N.3   119  GLY119     -0.1225
     90  CA         7.1390    5.0840   19.1790 C.3   119  GLY119      0.1811
     91  C          7.4860    6.5420   19.4040 C.2   119  GLY119      0.2280
     92  O          7.3830    7.0350   20.5260 O.2   119  GLY119     -0.2866
     93  N          4.8680   11.3870   17.9610 N.3   122  PHE122     -0.1241
     94  CA         4.5840   12.7270   18.5030 C.3   122  PHE122      0.1605
     95  C          5.4040   13.8480   17.8220 C.2   122  PHE122      0.2264
     96  O          4.8710   14.9350   17.5710 O.2   122  PHE122     -0.2867
     97  CB         4.8400   12.7790   20.0200 C.3   122  PHE122      0.0534
     98  CG         4.8530   14.1880   20.5770 C.ar  122  PHE122     -0.0203
     99  CD1        3.6620   14.8770   20.8020 C.ar  122  PHE122     -0.0042
    100  CD2        6.0580   14.8520   20.8090 C.ar  122  PHE122     -0.0042
    101  CE1        3.6770   16.1920   21.2880 C.ar  122  PHE122     -0.0003
    102  CE2        6.0710   16.1670   21.3030 C.ar  122  PHE122     -0.0003
    103  CZ         4.8840   16.8260   21.5400 C.ar  122  PHE122     -0.0000
    104  N          1.5330   20.9820   25.5850 N.3   134  VAL134     -0.1245
    105  CA         0.8590   19.7670   26.0450 C.3   134  VAL134      0.1561
    106  C          0.3970   19.9600   27.4970 C.2   134  VAL134      0.2260
    107  O          1.2300   20.0930   28.3930 O.2   134  VAL134     -0.2867
    108  CB         1.6950   18.4590   25.8400 C.3   134  VAL134      0.0252
    109  CG1        0.9570   17.2350   26.3870 C.3   134  VAL134      0.0019
    110  CG2        2.0600   18.2490   24.3680 C.3   134  VAL134      0.0019
    111  N          3.4400   21.1970   29.5340 N.3   146  TRP146     -0.1241
    112  CA         4.7070   20.9250   28.8470 C.3   146  TRP146      0.1605
    113  C          4.6610   21.8270   27.6110 C.2   146  TRP146      0.2264
    114  O          3.5840   22.0450   27.0570 O.2   146  TRP146     -0.2867
    115  CB         4.7970   19.4390   28.4140 C.3   146  TRP146      0.0550
    116  CG         6.0280   19.0660   27.6230 C.ar  146  TRP146      0.0003
    117  CD1        7.1550   18.4710   28.1050 C.ar  146  TRP146      0.0946
    118  CD2        6.2290   19.2140   26.2000 C.ar  146  TRP146      0.0152
    119  NE1        8.0380   18.2230   27.0760 N.ar  146  TRP146     -0.2442
    120  CE2        7.5040   18.6890   25.9010 C.ar  146  TRP146      0.0810
    121  CE3        5.4290   19.6960   25.1370 C.ar  146  TRP146      0.0012
    122  CZ2        7.9990   18.6250   24.5900 C.ar  146  TRP146      0.0191
    123  CZ3        5.9480   19.6860   23.8520 C.ar  146  TRP146      0.0001
    124  CH2        7.2120   19.1460   23.5870 C.ar  146  TRP146      0.0015
    125  N         -5.2450   14.3290   28.1940 N.3   168  THR168     -0.1218
    126  CA        -4.1670   15.0860   27.5670 C.3   168  THR168      0.1862
    127  C         -4.7170   15.9510   26.4360 C.2   168  THR168      0.2287
    128  O         -5.5730   15.5140   25.6720 O.2   168  THR168     -0.2866
    129  CB        -3.0530   14.1350   27.1230 C.3   168  THR168      0.1770
    130  OG1       -2.5190   13.5030   28.2810 O.3   168  THR168     -0.2211
    131  CG2       -1.9370   14.8310   26.3370 C.3   168  THR168      0.0375
    132  N         -3.2080   18.4900   23.3790 N.3   170  VAL170     -0.1245
    133  CA        -2.0720   18.8700   22.5330 C.3   170  VAL170      0.1561
    134  C         -2.4700   20.1130   21.7210 C.2   170  VAL170      0.2260
    135  O         -3.3500   20.0460   20.8660 O.2   170  VAL170     -0.2867
    136  CB        -1.5580   17.6770   21.6620 C.3   170  VAL170      0.0252
    137  CG1       -0.4240   18.1190   20.7210 C.3   170  VAL170      0.0019
    138  CG2       -1.0940   16.5110   22.5540 C.3   170  VAL170      0.0019
@<TRIPOS>BOND
     1     1     2    1
     2     7     6    1
     3     6     5    1
     4     6     8    1
     5     5     2    1
     6    96    95    2
     7     2     3    1
     8    95    94    1
     9    93    94    1
    10    89    90    1
    11     3     4    2
    12    94    97    1
    13    90    91    1
    14    91    92    2
    15     9    10    1
    16    97    98    1
    17    16    14   am
    18    15    14    2
    19    14    13    1
    20    98    99   ar
    21    98   100   ar
    22   137   136    1
    23    99   101   ar
    24   100   102   ar
    25   135   134    2
    26    10    13    1
    27    10    11    1
    28    29    28   ar
    29   101   103   ar
    30   102   103   ar
    31    30    28   ar
    32    17    11   am
    33    17    18    1
    34    21    22    1
    35    21    18    1
    36   136   133    1
    37   136   138    1
    38   134   133    1
    39    28    27    1
    40    11    12    2
    41    18    19    1
    42    23    24    1
    43    19    20    2
    44   133   132    1
    45    27    24    1
    46    24    25    1
    47   124   123   ar
    48   124   122   ar
    49   123   121   ar
    50    49    46    1
    51    49    50    1
    52   110   108    1
    53    52    50   ar
    54    45    46    1
    55   122   120   ar
    56    46    47    1
    57    25    31   am
    58    25    26    2
    59    50    51   ar
    60    31    32    1
    61   121   118   ar
    62   104   105    1
    63   128   127    2
    64   108   105    1
    65   108   109    1
    66   120   118   ar
    67   120   119   ar
    68   105   106    1
    69   118   116   ar
    70    47    48    2
    71   131   129    1
    72   127   126    1
    73    32    35    1
    74    32    33    1
    75    84    83    2
    76    33    34    2
    77   114   113    2
    78   119   117   ar
    79   129   126    1
    80   129   130    1
    81    83    82    1
    82   106   107    2
    83   126   125    1
    84   113   112    1
    85   116   117   ar
    86   116   115    1
    87    88    86    1
    88    36    37    1
    89    85    82    1
    90    85    86    1
    91    72    71    1
    92    82    81    1
    93   115   112    1
    94    86    87    1
    95    71    70    1
    96   112   111    1
    97    37    40    1
    98    37    38    1
    99    40    41    1
   100    79    78    1
   101    76    75    2
   102    53    54    1
   103    70    69    1
   104    42    41    1
   105    42    43    1
   106    38    39    2
   107    59    57    1
   108    78    80    1
   109    78    77    1
   110    61    62    1
   111    61    55   am
   112    75    74    1
   113    74    77    1
   114    74    73    1
   115    62    63    1
   116    69    66    1
   117    54    57    1
   118    54    55    1
   119    43    44    1
   120    57    58    1
   121    63    64    2
   122    63    65   am
   123    55    56    2
   124    65    66    1
   125    66    67    1
   126    58    60    1
   127    67    68    2
