@<TRIPOS>MOLECULE
tmp/4eg2A00.pdb
 115 111 0 0 0
SMALL
GASTEIGER

@<TRIPOS>ATOM
      1  N        -16.3090   46.0850   13.4230 N.3    69  SER69      -0.1217
      2  CA       -15.7580   47.4240   13.2640 C.3    69  SER69       0.1889
      3  C        -16.3480   48.2650   12.1340 C.2    69  SER69       0.2288
      4  O        -16.2970   49.5000   12.2040 O.2    69  SER69      -0.2866
      5  CB       -14.2760   47.3060   12.9460 C.3    69  SER69       0.2089
      6  OG       -14.0990   46.8040   11.6190 O.3    69  SER69      -0.2183
      7  N        -15.0350   48.7000    9.4880 N.3    71  PHE71      -0.1241
      8  CA       -13.8340   49.3880    9.0080 C.3    71  PHE71       0.1605
      9  C        -13.2470   48.4450    7.9610 C.2    71  PHE71       0.2264
     10  O        -12.7450   47.3910    8.2960 O.2    71  PHE71      -0.2867
     11  CB       -12.9130   49.5850   10.1980 C.3    71  PHE71       0.0534
     12  CG       -11.6440   50.2690    9.8790 C.ar   71  PHE71      -0.0203
     13  CD1      -11.6210   51.6410    9.6660 C.ar   71  PHE71      -0.0042
     14  CD2      -10.4620   49.5680    9.8380 C.ar   71  PHE71      -0.0042
     15  CE1      -10.4570   52.2810    9.3780 C.ar   71  PHE71      -0.0003
     16  CE2       -9.2880   50.2120    9.5570 C.ar   71  PHE71      -0.0003
     17  CZ        -9.2890   51.5760    9.3240 C.ar   71  PHE71      -0.0000
     18  N        -10.7890   47.1230    5.1560 N.3    73  VAL73      -0.1245
     19  CA        -9.4050   47.1580    4.7590 C.3    73  VAL73       0.1561
     20  C         -9.1820   46.1900    3.6150 C.2    73  VAL73       0.2260
     21  O         -9.6320   45.0490    3.6500 O.2    73  VAL73      -0.2867
     22  CB        -8.5030   46.7960    5.9630 C.3    73  VAL73       0.0252
     23  CG1       -7.0400   47.0360    5.6450 C.3    73  VAL73       0.0019
     24  CG2       -8.9120   47.6170    7.2130 C.3    73  VAL73       0.0019
     25  N        -10.1170   42.2010    5.2520 N.3    89  ASN89      -0.1240
     26  CA       -10.1840   41.7890    6.6410 C.3    89  ASN89       0.1653
     27  C        -11.4630   41.0040    6.9260 C.2    89  ASN89       0.2266
     28  O        -12.4450   41.1470    6.2120 O.2    89  ASN89      -0.2867
     29  CB        -9.9990   42.9870    7.5980 C.3    89  ASN89       0.1155
     30  CG       -11.0180   44.0890    7.3870 C.2    89  ASN89       0.2627
     31  OD1      -11.3740   44.4240    6.2510 O.2    89  ASN89      -0.2716
     32  ND2      -11.4580   44.7060    8.4990 N.am   89  ASN89      -0.0877
     33  N        -13.8920   39.5890   10.3400 N.3    90  GLU90      -0.1245
     34  CA       -14.1730   39.6440   11.7800 C.3    90  GLU90       0.1567
     35  C        -15.3300   38.6930   12.0750 C.2    90  GLU90       0.2260
     36  O        -16.2350   38.5210   11.2490 O.2    90  GLU90      -0.2867
     37  CB       -14.5770   41.0480   12.1780 C.3    90  GLU90       0.0388
     38  CG       -13.5400   42.1090   11.8340 C.3    90  GLU90       0.1160
     39  CD       -14.0770   43.5210   11.9950 C.2    90  GLU90       0.3649
     40  OE1      -15.3060   43.6930   12.1650 O.co2  90  GLU90      -0.2457
     41  OE2      -13.2720   44.4630   11.9420 O.co2  90  GLU90      -0.2457
     42  N         -9.7780   37.1090   14.5240 N.3    99  THR99      -0.1203
     43  CA        -9.8150   38.1430   13.4600 C.3    99  THR99       0.1994
     44  C         -8.7270   37.9280   12.4190 C.2    99  THR99       0.2618
     45  O         -7.6280   37.4940   12.7540 O.2    99  THR99      -0.2717
     46  CB        -9.6200   39.5630   14.0590 C.3    99  THR99       0.1784
     47  OG1      -10.5530   39.7710   15.1370 O.3    99  THR99      -0.2211
     48  CG2       -9.7920   40.6710   12.9870 C.3    99  THR99       0.0376
     49  N         -9.0410   38.2110   11.1510 N.am  100  VAL100     -0.1965
     50  CA        -8.0500   38.1240   10.0830 C.3   100  VAL100      0.1727
     51  C         -7.9020   39.5000    9.4450 C.2   100  VAL100      0.2616
     52  O         -8.8750   40.1290    9.0710 O.2   100  VAL100     -0.2715
     53  CB        -8.3920   37.0490    9.0270 C.3   100  VAL100      0.0290
     54  CG1       -7.3680   37.0470    7.8870 C.3   100  VAL100      0.0023
     55  CG2       -8.4470   35.6730    9.6850 C.3   100  VAL100      0.0023
     56  N         -6.6680   39.9650    9.3590 N.am  101  HIS101     -0.1959
     57  CA        -6.3580   41.2630    8.7640 C.3   101  HIS101      0.1787
     58  C         -6.2040   41.1320    7.2680 C.2   101  HIS101      0.2620
     59  O         -5.7910   40.0850    6.7910 O.2   101  HIS101     -0.2715
     60  CB        -5.0500   41.8000    9.3320 C.3   101  HIS101      0.0785
     61  CG        -5.1370   42.2060   10.7670 C.ar  101  HIS101      0.0821
     62  ND1       -4.8360   43.4830   11.1980 N.ar  101  HIS101     -0.2267
     63  CD2       -5.5200   41.5140   11.8680 C.ar  101  HIS101      0.1154
     64  CE1       -5.0180   43.5500   12.5070 C.ar  101  HIS101      0.1986
     65  NE2       -5.4390   42.3720   12.9350 N.ar  101  HIS101     -0.2212
     66  N         -6.5060   42.2130    6.5430 N.am  102  ALA102     -0.1963
     67  CA        -6.3860   42.2320    5.0840 C.3   102  ALA102      0.1728
     68  C         -5.0330   41.7110    4.6600 C.2   102  ALA102      0.2616
     69  O         -4.9410   40.8870    3.7540 O.2   102  ALA102     -0.2715
     70  CB        -6.6160   43.6660    4.5090 C.3   102  ALA102      0.0334
     71  N         -3.9880   42.1710    5.3320 N.am  103  GLU103     -0.1977
     72  CA        -2.6190   41.7460    5.0070 C.3   103  GLU103      0.1602
     73  C         -2.4420   40.2360    5.1150 C.2   103  GLU103      0.2287
     74  O         -1.8750   39.5910    4.2110 O.2   103  GLU103     -0.2864
     75  CB        -1.5960   42.4470    5.9040 C.3   103  GLU103      0.0415
     76  CG        -1.4880   43.9820    5.7190 C.3   103  GLU103      0.1163
     77  CD        -2.5080   44.8150    6.5430 C.2   103  GLU103      0.3649
     78  OE1       -3.5620   44.3030    6.9460 O.co2 103  GLU103     -0.2457
     79  OE2       -2.2300   46.0080    6.7900 O.co2 103  GLU103     -0.2457
     80  N         -4.7110   50.9410    4.5660 N.3   124  PHE124     -0.1227
     81  CA        -4.1990   51.7110    5.7130 C.3   124  PHE124      0.1736
     82  C         -2.8270   51.1660    6.1590 C.2   124  PHE124      0.2596
     83  O         -2.4780   50.0220    5.8470 O.2   124  PHE124     -0.2718
     84  CB        -5.1650   51.6130    6.9000 C.3   124  PHE124      0.0547
     85  CG        -6.5730   52.0050    6.5760 C.ar  124  PHE124     -0.0202
     86  CD1       -6.9860   53.3290    6.6810 C.ar  124  PHE124     -0.0042
     87  CD2       -7.4960   51.0500    6.1750 C.ar  124  PHE124     -0.0042
     88  CE1       -8.2950   53.6950    6.3820 C.ar  124  PHE124     -0.0003
     89  CE2       -8.8070   51.4070    5.8730 C.ar  124  PHE124     -0.0003
     90  CZ        -9.2060   52.7280    5.9780 C.ar  124  PHE124     -0.0000
     91  N         -2.0600   51.9850    6.8870 N.am  125  SER125     -0.1938
     92  CA        -0.7370   51.5720    7.3990 C.3   125  SER125      0.2040
     93  C         -0.8980   50.3200    8.2470 C.2   125  SER125      0.2485
     94  O         -1.8060   50.2480    9.0790 O.2   125  SER125     -0.2729
     95  CB        -0.0850   52.6480    8.2540 C.3   125  SER125      0.2129
     96  OG         1.1920   52.2180    8.7100 O.3   125  SER125     -0.2179
     97  N         -0.0230   49.3280    8.0390 N.am  126  PRO126     -0.2715
     98  CA        -0.1470   48.0620    8.7420 C.3   126  PRO126      0.1536
     99  C          0.1190   48.1690   10.2350 C.2   126  PRO126      0.2598
    100  O          1.0770   48.8300   10.6360 O.2   126  PRO126     -0.2715
    101  CB         0.9150   47.1840    8.0630 C.3   126  PRO126      0.0310
    102  CG         1.9310   48.1220    7.5770 C.3   126  PRO126      0.0237
    103  CD         1.1740   49.3630    7.1790 C.3   126  PRO126      0.0939
    104  N         -0.7290   47.5150   11.0370 N.am  127  CYS127     -0.1968
    105  CA        -0.5800   47.4940   12.4870 C.3   127  CYS127      0.1712
    106  C          0.6210   46.5940   12.8350 C.2   127  CYS127      0.2296
    107  O          1.1800   45.9320   11.9510 O.2   127  CYS127     -0.2864
    108  CB        -1.8430   46.9760   13.1700 C.3   127  CYS127      0.0983
    109  SG        -2.1140   45.2170   12.9960 S.3   127  CYS127     -0.0798
    110  N          0.3540   42.8210   11.9850 N.3   130  CYS130     -0.1235
    111  CA         0.6180   42.5130   10.5650 C.3   130  CYS130      0.1677
    112  C          2.0730   42.6390   10.2310 C.2   130  CYS130      0.2270
    113  O          2.6030   41.8350    9.4710 O.2   130  CYS130     -0.2867
    114  CB        -0.1730   43.4140    9.6150 C.3   130  CYS130      0.0956
    115  SG        -1.9030   43.0600    9.6170 S.3   130  CYS130     -0.0801
@<TRIPOS>BOND
     1    20    21    2
     2    20    19    1
     3    69    68    2
     4    74    73    2
     5    70    67    1
     6    80    81    1
     7    68    67    1
     8    68    71   am
     9    19    18    1
    10    19    22    1
    11    72    73    1
    12    72    71    1
    13    72    75    1
    14    67    66    1
    15    25    26    1
    16    23    22    1
    17    81    82    1
    18    81    84    1
    19    76    75    1
    20    76    77    1
    21    83    82    2
    22    89    90   ar
    23    89    87   ar
    24    22    24    1
    25    90    88   ar
    26    82    91   am
    27    87    85   ar
    28    28    27    2
    29    31    30    2
    30    88    86   ar
    31    66    58   am
    32    77    79   ar
    33    77    78   ar
    34    85    86   ar
    35    85    84    1
    36    26    27    1
    37    26    29    1
    38    59    58    2
    39    91    92    1
    40   103   102    1
    41   103    97    1
    42    58    57    1
    43    30    29    1
    44    30    32   am
    45    92    93    1
    46    92    95    1
    47   102   101    1
    48    54    53    1
    49     9    10    2
    50     9     8    1
    51    97    93   am
    52    97    98    1
    53   101    98    1
    54    93    94    2
    55    95    96    1
    56    98    99    1
    57    57    60    1
    58    57    56    1
    59     8     7    1
    60     8    11    1
    61    53    55    1
    62    53    50    1
    63    52    51    2
    64    17    15   ar
    65    17    16   ar
    66    60    61    1
    67    56    51   am
    68    15    13   ar
    69    51    50    1
    70   113   112    2
    71    16    14   ar
    72   114   115    1
    73   114   111    1
    74    13    12   ar
    75    14    12   ar
    76    12    11    1
    77    50    49    1
    78   112   111    1
    79    99   100    2
    80    99   104   am
    81    33    34    1
    82   111   110    1
    83    61    62   ar
    84    61    63   ar
    85   104   105    1
    86    49    44   am
    87    62    64   ar
    88    36    35    2
    89     6     5    1
    90    34    35    1
    91    34    37    1
    92    38    39    1
    93    38    37    1
    94    63    65   ar
    95    41    39   ar
    96   107   106    2
    97    39    40   ar
    98     3     4    2
    99     3     2    1
   100    44    45    2
   101    44    43    1
   102   105   106    1
   103   105   108    1
   104    64    65   ar
   105     5     2    1
   106    48    46    1
   107   109   108    1
   108     2     1    1
   109    43    46    1
   110    43    42    1
   111    46    47    1
