@<TRIPOS>MOLECULE
tmp/4eg3B00.pdb
 241 242 0 0 0
SMALL
GASTEIGER

@<TRIPOS>ATOM
      1  N        -29.8760   12.1360    6.2640 N.3    16  PRO16      -0.2102
      2  CA       -30.8870   12.6920    7.1530 C.3    16  PRO16       0.1504
      3  C        -30.6570   12.1450    8.5570 C.2    16  PRO16       0.2576
      4  O        -30.0940   11.0540    8.6910 O.2    16  PRO16      -0.2718
      5  CB       -32.2120   12.1720    6.5770 C.3    16  PRO16       0.0282
      6  CG       -31.8610   11.0360    5.6840 C.3    16  PRO16       0.0208
      7  CD       -30.3630   10.9400    5.5650 C.3    16  PRO16       0.0893
      8  N        -31.0550   12.9000    9.5820 N.am   17  ILE17      -0.1966
      9  CA       -31.0140   12.4040   10.9570 C.3    17  ILE17       0.1727
     10  C        -32.3880   11.8150   11.2850 C.2    17  ILE17       0.2616
     11  O        -33.4070   12.4280   10.9840 O.2    17  ILE17      -0.2715
     12  CB       -30.5860   13.4900   11.9720 C.3    17  ILE17       0.0290
     13  CG1      -31.4750   14.7460   11.8780 C.3    17  ILE17       0.0022
     14  CG2      -29.1230   13.8600   11.7490 C.3    17  ILE17       0.0023
     15  CD1      -31.6060   15.5220   13.1770 C.3    17  ILE17       0.0001
     16  N        -32.4090   10.6230   11.8840 N.am   18  TYR18      -0.1960
     17  CA       -33.6140    9.7840   11.8970 C.3    18  TYR18       0.1771
     18  C        -34.3750    9.8510   13.2040 C.2    18  TYR18       0.2619
     19  O        -33.7670    9.9090   14.2770 O.2    18  TYR18      -0.2715
     20  CB       -33.2430    8.3320   11.6130 C.3    18  TYR18       0.0574
     21  CG       -32.3150    8.2100   10.4500 C.ar   18  TYR18      -0.0198
     22  CD1      -32.7900    8.2780    9.1460 C.ar   18  TYR18      -0.0009
     23  CD2      -30.9380    8.0710   10.6530 C.ar   18  TYR18      -0.0009
     24  CE1      -31.9120    8.1830    8.0740 C.ar   18  TYR18       0.0417
     25  CE2      -30.0550    7.9730    9.5940 C.ar   18  TYR18       0.0417
     26  CZ       -30.5360    8.0280    8.3090 C.ar   18  TYR18       0.1957
     27  OH       -29.6440    7.9350    7.2730 O.3    18  TYR18      -0.2866
     28  N        -35.7040    9.8260   13.1150 N.am   19  TYR19      -0.1974
     29  CA       -36.5210    9.8560   14.3130 C.3    19  TYR19       0.1639
     30  C        -36.1620    8.6380   15.1520 C.2    19  TYR19       0.2290
     31  O        -36.2260    7.5140   14.6690 O.2    19  TYR19      -0.2864
     32  CB       -38.0320    9.9410   13.9800 C.3    19  TYR19       0.0560
     33  CG       -38.4120   11.3080   13.4330 C.ar   19  TYR19      -0.0198
     34  CD1      -38.1050   12.4660   14.1510 C.ar   19  TYR19      -0.0009
     35  CD2      -39.0380   11.4590   12.1990 C.ar   19  TYR19      -0.0009
     36  CE1      -38.4120   13.7300   13.6650 C.ar   19  TYR19       0.0417
     37  CE2      -39.3490   12.7280   11.7060 C.ar   19  TYR19       0.0417
     38  CZ       -39.0280   13.8590   12.4480 C.ar   19  TYR19       0.1957
     39  OH       -39.3090   15.1320   12.0060 O.3    19  TYR19      -0.2866
     40  N        -37.6650    6.9760   17.3130 N.3    21  ASN21      -0.1240
     41  CA       -38.9250    6.4780   17.8570 C.3    21  ASN21       0.1653
     42  C        -39.0440    4.9690   17.7200 C.2    21  ASN21       0.2266
     43  O        -40.0760    4.3940   18.0560 O.2    21  ASN21      -0.2867
     44  CB       -40.0880    7.1130   17.1150 C.3    21  ASN21       0.1155
     45  CG       -40.2430    6.5670   15.7150 C.2    21  ASN21       0.2627
     46  OD1      -41.2320    5.9030   15.4060 O.2    21  ASN21      -0.2716
     47  ND2      -39.2600    6.8300   14.8640 N.am   21  ASN21      -0.0877
     48  N        -33.5490    0.5070   10.9370 N.3    25  HIS25      -0.1226
     49  CA       -33.8110   -0.5260    9.9400 C.3    25  HIS25       0.1752
     50  C        -33.1570   -0.1550    8.6340 C.2    25  HIS25       0.2596
     51  O        -32.4990    0.8790    8.5400 O.2    25  HIS25      -0.2718
     52  CB       -35.3190   -0.7980    9.8060 C.3    25  HIS25       0.0759
     53  CG       -36.0930    0.3000    9.1180 C.ar   25  HIS25       0.0818
     54  ND1      -36.5530    1.3800    9.7730 N.ar   25  HIS25      -0.2268
     55  CD2      -36.5040    0.4370    7.7940 C.ar   25  HIS25       0.1154
     56  CE1      -37.2090    2.1780    8.9120 C.ar   25  HIS25       0.1986
     57  NE2      -37.1780    1.5990    7.7000 N.ar   25  HIS25      -0.2212
     58  N        -33.3090   -1.0090    7.6260 N.am   26  ILE26      -0.1966
     59  CA       -32.5370   -0.8980    6.3880 C.3    26  ILE26       0.1727
     60  C        -32.5450    0.5010    5.7620 C.2    26  ILE26       0.2617
     61  O        -31.5000    1.0090    5.3550 O.2    26  ILE26      -0.2715
     62  CB       -33.0000   -1.9480    5.3520 C.3    26  ILE26       0.0290
     63  CG1      -32.1780   -1.8350    4.0630 C.3    26  ILE26       0.0022
     64  CG2      -34.4890   -1.8160    5.0590 C.3    26  ILE26       0.0023
     65  CD1      -30.7000   -2.1020    4.2590 C.3    26  ILE26       0.0001
     66  N        -33.7160    1.1190    5.6860 N.am   27  GLY27      -0.1940
     67  CA       -33.8450    2.4350    5.0700 C.3    27  GLY27       0.2014
     68  C        -32.7660    3.4150    5.4960 C.2    27  GLY27       0.2638
     69  O        -32.1670    4.0980    4.6700 O.2    27  GLY27      -0.2714
     70  N        -32.5140    3.4560    6.7990 N.am   28  HIS28      -0.1973
     71  CA       -31.5380    4.3650    7.3980 C.3    28  HIS28       0.1656
     72  C        -30.1390    3.9450    7.0480 C.2    28  HIS28       0.2291
     73  O        -29.3070    4.7640    6.6390 O.2    28  HIS28      -0.2864
     74  CB       -31.7100    4.3960    8.9180 C.3    28  HIS28       0.0771
     75  CG       -33.1580    4.4460    9.3680 C.ar   28  HIS28       0.0820
     76  ND1      -33.6110    3.7470   10.4190 N.ar   28  HIS28      -0.2267
     77  CD2      -34.2570    5.1280    8.8470 C.ar   28  HIS28       0.1154
     78  CE1      -34.9310    3.9800   10.5800 C.ar   28  HIS28       0.1986
     79  NE2      -35.3250    4.8220    9.6150 N.ar   28  HIS28      -0.2212
     80  N        -29.2650    2.4210    4.4810 N.3    30  TYR30      -0.1227
     81  CA       -29.0980    2.7840    3.0780 C.3    30  TYR30       0.1736
     82  C        -28.7590    4.2550    2.9370 C.2    30  TYR30       0.2596
     83  O        -27.7240    4.6070    2.3660 O.2    30  TYR30      -0.2718
     84  CB       -30.3910    2.4840    2.3220 C.3    30  TYR30       0.0548
     85  CG       -30.4050    2.8370    0.8480 C.ar   30  TYR30      -0.0200
     86  CD1      -29.3630    2.4740    0.0010 C.ar   30  TYR30      -0.0009
     87  CD2      -31.4960    3.4940    0.2900 C.ar   30  TYR30      -0.0009
     88  CE1      -29.4020    2.7840   -1.3580 C.ar   30  TYR30       0.0417
     89  CE2      -31.5470    3.8040   -1.0630 C.ar   30  TYR30       0.0417
     90  CZ       -30.5030    3.4480   -1.8840 C.ar   30  TYR30       0.1957
     91  OH       -30.5760    3.7520   -3.2250 O.3    30  TYR30      -0.2866
     92  N        -29.6310    5.1120    3.4610 N.am   31  SER31      -0.1952
     93  CA       -29.4610    6.5520    3.3060 C.3    31  SER31       0.1924
     94  C        -28.0940    6.9560    3.8010 C.2    31  SER31       0.2314
     95  O        -27.3850    7.6760    3.1100 O.2    31  SER31      -0.2863
     96  CB       -30.5520    7.3400    4.0380 C.3    31  SER31       0.2116
     97  OG       -31.7250    7.4130    3.2530 O.3    31  SER31      -0.2180
     98  N        -32.7070   12.3060   15.3170 N.3    56  ASP56      -0.1239
     99  CA       -33.6470   13.4160   15.4050 C.3    56  ASP56       0.1674
    100  C        -34.5780   13.1370   16.5840 C.2    56  ASP56       0.2266
    101  O        -35.5510   12.4090   16.4380 O.2    56  ASP56      -0.2867
    102  CB       -34.4350   13.4820   14.0900 C.3    56  ASP56       0.1410
    103  CG       -35.1840   14.7770   13.9110 C.2    56  ASP56       0.3668
    104  OD1      -35.2700   15.5720   14.8730 O.co2  56  ASP56      -0.2456
    105  OD2      -35.6930   15.0000   12.7930 O.co2  56  ASP56      -0.2456
    106  N        -43.5880   12.6670   17.9080 N.3    61  LYS61      -0.1245
    107  CA       -43.4020   11.2950   17.4190 C.3    61  LYS61       0.1561
    108  C        -42.5460   10.5200   18.4060 C.2    61  LYS61       0.2260
    109  O        -42.9510    9.4610   18.8810 O.2    61  LYS61      -0.2867
    110  CB       -42.7580   11.2670   16.0230 C.3    61  LYS61       0.0271
    111  CG       -42.9340    9.9380   15.2790 C.3    61  LYS61       0.0035
    112  CD       -42.1870    9.9120   13.9420 C.3    61  LYS61       0.0206
    113  CE       -42.6540    8.8010   13.0040 C.3    61  LYS61       0.1093
    114  NZ       -42.2150    7.4360   13.4030 N.3    61  LYS61      -0.1314
    115  N        -38.8490   20.1960   12.6920 N.3   237  TRP237     -0.1241
    116  CA       -38.1910   20.1950   11.4010 C.3   237  TRP237      0.1605
    117  C        -37.2020   21.2960   11.2490 C.2   237  TRP237      0.2264
    118  O        -36.1150   21.0770   10.7030 O.2   237  TRP237     -0.2867
    119  CB       -39.1980   20.1790   10.2690 C.3   237  TRP237      0.0550
    120  CG       -39.3930   18.7690    9.7890 C.ar  237  TRP237      0.0003
    121  CD1      -40.4500   17.9070   10.0570 C.ar  237  TRP237      0.0946
    122  CD2      -38.4540   17.9880    8.9870 C.ar  237  TRP237      0.0152
    123  NE1      -40.2500   16.6880    9.4640 N.ar  237  TRP237     -0.2442
    124  CE2      -39.0660   16.6730    8.8030 C.ar  237  TRP237      0.0810
    125  CE3      -37.2140   18.2470    8.4060 C.ar  237  TRP237      0.0012
    126  CZ2      -38.4410   15.6740    8.0700 C.ar  237  TRP237      0.0191
    127  CZ3      -36.6000   17.2380    7.6670 C.ar  237  TRP237      0.0001
    128  CH2      -37.1970   15.9830    7.5050 C.ar  237  TRP237      0.0015
    129  N        -34.6230   20.1070   13.3280 N.3   240  ALA240     -0.1231
    130  CA       -34.0020   18.9670   12.6610 C.3   240  ALA240      0.1694
    131  C        -32.9840   19.4280   11.6460 C.2   240  ALA240      0.2591
    132  O        -31.8250   19.0310   11.7010 O.2   240  ALA240     -0.2718
    133  CB       -35.0610   18.1230   11.9780 C.3   240  ALA240      0.0304
    134  N        -33.4310   20.2850   10.7320 N.am  241  LEU241     -0.1980
    135  CA       -32.6000   20.7400    9.6220 C.3   241  LEU241      0.1596
    136  C        -31.3580   21.4540   10.1180 C.2   241  LEU241      0.2287
    137  O        -30.2800   21.3130    9.5350 O.2   241  LEU241     -0.2864
    138  CB       -33.3990   21.6440    8.6750 C.3   241  LEU241      0.0297
    139  CG       -34.5070   20.9240    7.8830 C.3   241  LEU241      0.0022
    140  CD1      -35.7500   21.7930    7.7110 C.3   241  LEU241      0.0001
    141  CD2      -34.0020   20.4130    6.5340 C.3   241  LEU241      0.0001
    142  N        -29.3360   20.8000   12.1390 N.3   243  ASN243     -0.1225
    143  CA       -28.2320   19.9000   12.4570 C.3   243  ASN243      0.1785
    144  C        -27.0760   20.0290   11.4830 C.2   243  ASN243      0.2597
    145  O        -25.9150   19.9030   11.8720 O.2   243  ASN243     -0.2718
    146  CB       -28.6960   18.4430   12.5070 C.3   243  ASN243      0.1169
    147  CG       -29.0420   17.8920   11.1430 C.2   243  ASN243      0.2627
    148  OD1      -29.8060   18.5060   10.3940 O.2   243  ASN243     -0.2716
    149  ND2      -28.4790   16.7300   10.8100 N.am  243  ASN243     -0.0877
    150  N        -27.4040   20.2940   10.2210 N.am  244  TYR244     -0.1976
    151  CA       -26.4060   20.3910    9.1720 C.3   244  TYR244      0.1639
    152  C        -25.5030   21.5820    9.4870 C.2   244  TYR244      0.2290
    153  O        -24.2620   21.4760    9.4400 O.2   244  TYR244     -0.2864
    154  CB       -27.0750   20.5300    7.8030 C.3   244  TYR244      0.0560
    155  CG       -28.0770   19.4220    7.4490 C.ar  244  TYR244     -0.0198
    156  CD1      -27.7030   18.0810    7.4440 C.ar  244  TYR244     -0.0009
    157  CD2      -29.4000   19.7290    7.0950 C.ar  244  TYR244     -0.0009
    158  CE1      -28.6150   17.0830    7.1170 C.ar  244  TYR244      0.0417
    159  CE2      -30.3130   18.7340    6.7590 C.ar  244  TYR244      0.0417
    160  CZ       -29.9180   17.4140    6.7710 C.ar  244  TYR244      0.1957
    161  OH       -30.8190   16.4290    6.4290 O.3   244  TYR244     -0.2866
    162  N        -34.2030   10.7260    1.6230 N.3   279  GLY279     -0.1225
    163  CA       -35.2110    9.9240    0.9410 C.3   279  GLY279      0.1811
    164  C        -36.1990   10.8470    0.2720 C.2   279  GLY279      0.2280
    165  O        -36.1350   12.0530    0.4600 O.2   279  GLY279     -0.2866
    166  N        -39.5460   10.9900    0.6500 N.3   281  ASP281     -0.1225
    167  CA       -40.5630   11.4400    1.6150 C.3   281  ASP281      0.1805
    168  C        -40.2620   12.7850    2.2750 C.2   281  ASP281      0.2597
    169  O        -41.1790   13.4820    2.7130 O.2   281  ASP281     -0.2718
    170  CB       -40.7500   10.3830    2.7150 C.3   281  ASP281      0.1424
    171  CG       -39.4400   10.0290    3.4250 C.2   281  ASP281      0.3668
    172  OD1      -38.3530   10.2980    2.8570 O.co2 281  ASP281     -0.2456
    173  OD2      -39.4960    9.4690    4.5420 O.co2 281  ASP281     -0.2456
    174  N        -38.9850   13.1470    2.3610 N.am  282  ILE282     -0.1980
    175  CA       -38.5990   14.3800    3.0460 C.3   282  ILE282      0.1595
    176  C        -37.9830   15.4300    2.1030 C.2   282  ILE282      0.2287
    177  O        -37.1140   16.2200    2.5160 O.2   282  ILE282     -0.2864
    178  CB       -37.6800   14.0720    4.2560 C.3   282  ILE282      0.0276
    179  CG1      -36.2810   13.6290    3.8140 C.3   282  ILE282      0.0022
    180  CG2      -38.3220   13.0040    5.1310 C.3   282  ILE282      0.0022
    181  CD1      -35.4240   13.1240    4.9520 C.3   282  ILE282      0.0001
    182  N        -36.3120   19.7600    2.4970 N.3   286  HIS286     -0.1241
    183  CA       -34.9320   20.0180    2.0770 C.3   286  HIS286      0.1621
    184  C        -34.8060   20.8990    0.8620 C.2   286  HIS286      0.2264
    185  O        -33.7920   21.5790    0.6930 O.2   286  HIS286     -0.2867
    186  CB       -34.2250   18.6930    1.8250 C.3   286  HIS286      0.0745
    187  CG       -33.9090   17.9370    3.0830 C.ar  286  HIS286      0.0817
    188  ND1      -34.8090   17.1530    3.6970 N.ar  286  HIS286     -0.2268
    189  CD2      -32.7400   17.8820    3.8490 C.ar  286  HIS286      0.1154
    190  CE1      -34.2510   16.6160    4.7950 C.ar  286  HIS286      0.1986
    191  NE2      -32.9810   17.0670    4.8860 N.ar  286  HIS286     -0.2212
    192  N        -33.9470    9.7870   -2.9730 N.3   308  HIS308     -0.1226
    193  CA       -34.0050    8.4440   -3.5700 C.3   308  HIS308      0.1752
    194  C        -35.2610    7.6880   -3.2160 C.2   308  HIS308      0.2597
    195  O        -36.0730    8.1520   -2.4240 O.2   308  HIS308     -0.2718
    196  CB       -32.7770    7.6370   -3.1650 C.3   308  HIS308      0.0759
    197  CG       -32.6410    7.4290   -1.6750 C.ar  308  HIS308      0.0818
    198  ND1      -33.4840    6.6520   -0.9700 N.ar  308  HIS308     -0.2268
    199  CD2      -31.7020    7.9180   -0.7670 C.ar  308  HIS308      0.1154
    200  CE1      -33.1150    6.6550    0.3240 C.ar  308  HIS308      0.1986
    201  NE2      -32.0240    7.4310    0.4470 N.ar  308  HIS308     -0.2212
    202  N        -35.4260    6.5030   -3.7980 N.am  309  GLY309     -0.1942
    203  CA       -36.6080    5.6770   -3.5530 C.3   309  GLY309      0.2014
    204  C        -36.6220    4.9070   -2.2410 C.2   309  GLY309      0.2639
    205  O        -35.6610    4.9410   -1.4700 O.2   309  GLY309     -0.2714
    206  N        -37.7350    4.2160   -2.0000 N.am  310  TRP310     -0.1959
    207  CA       -37.9170    3.3870   -0.8080 C.3   310  TRP310      0.1771
    208  C        -37.6900    1.9470   -1.1620 C.2   310  TRP310      0.2619
    209  O        -38.0890    1.5030   -2.2340 O.2   310  TRP310     -0.2715
    210  CB       -39.3170    3.5920   -0.1980 C.3   310  TRP310      0.0590
    211  CG       -39.3190    4.5750    0.9520 C.ar  310  TRP310      0.0006
    212  CD1      -38.7860    5.8610    0.9680 C.ar  310  TRP310      0.0946
    213  CD2      -39.8650    4.3780    2.3030 C.ar  310  TRP310      0.0152
    214  NE1      -38.9610    6.4540    2.1940 N.ar  310  TRP310     -0.2442
    215  CE2      -39.6000    5.6210    3.0380 C.ar  310  TRP310      0.0810
    216  CE3      -40.5220    3.3410    2.9520 C.ar  310  TRP310      0.0012
    217  CZ2      -39.9840    5.7900    4.3590 C.ar  310  TRP310      0.0191
    218  CZ3      -40.9020    3.5220    4.2910 C.ar  310  TRP310      0.0001
    219  CH2      -40.6390    4.7200    4.9740 C.ar  310  TRP310      0.0015
    220  N        -37.0470    1.2090   -0.2610 N.am  311  TRP311     -0.1974
    221  CA       -36.7290   -0.2010   -0.4870 C.3   311  TRP311      0.1640
    222  C        -37.8500   -1.1090   -0.0800 C.2   311  TRP311      0.2290
    223  O        -38.3880   -0.9800    1.0190 O.2   311  TRP311     -0.2864
    224  CB       -35.4830   -0.6070    0.2880 C.3   311  TRP311      0.0576
    225  CG       -34.2130   -0.3660   -0.4630 C.ar  311  TRP311      0.0006
    226  CD1      -33.3520    0.7070   -0.3370 C.ar  311  TRP311      0.0946
    227  CD2      -33.6110   -1.2180   -1.4910 C.ar  311  TRP311      0.0152
    228  NE1      -32.2920    0.5800   -1.1900 N.ar  311  TRP311     -0.2442
    229  CE2      -32.3860   -0.5460   -1.9090 C.ar  311  TRP311      0.0810
    230  CE3      -33.9510   -2.4230   -2.0840 C.ar  311  TRP311      0.0012
    231  CZ2      -31.5530   -1.0720   -2.8760 C.ar  311  TRP311      0.0191
    232  CZ3      -33.1040   -2.9430   -3.0640 C.ar  311  TRP311      0.0001
    233  CH2      -31.9330   -2.2790   -3.4460 C.ar  311  TRP311      0.0015
    234  N        -41.9130   -3.3740    4.5680 N.3   318  ILE318     -0.1245
    235  CA       -41.2100   -4.0030    5.6950 C.3   318  ILE318      0.1561
    236  C        -42.1470   -4.0730    6.9130 C.2   318  ILE318      0.2260
    237  O        -42.8910   -3.1240    7.1810 O.2   318  ILE318     -0.2867
    238  CB       -39.8900   -3.2650    6.0340 C.3   318  ILE318      0.0252
    239  CG1      -38.8050   -3.5760    4.9860 C.3   318  ILE318      0.0019
    240  CG2      -39.3810   -3.6650    7.4170 C.3   318  ILE318      0.0019
    241  CD1      -39.1430   -3.1740    3.5650 C.3   318  ILE318      0.0001
@<TRIPOS>BOND
     1   202   203    1
     2   202   194   am
     3   193   194    1
     4   193   196    1
     5   193   192    1
     6   203   204    1
     7   233   232   ar
     8   233   231   ar
     9    91    90    1
    10   194   195    2
    11   196   197    1
    12   232   230   ar
    13   231   229   ar
    14   204   206   am
    15   204   205    2
    16   209   208    2
    17   230   227   ar
    18   206   207    1
    19   229   227   ar
    20   229   228   ar
    21    90    88   ar
    22    90    89   ar
    23   197   198   ar
    24   197   199   ar
    25   227   225   ar
    26    88    86   ar
    27   228   226   ar
    28   208   207    1
    29   208   220   am
    30    89    87   ar
    31   198   200   ar
    32   207   210    1
    33   199   201   ar
    34   221   220    1
    35   221   222    1
    36   221   224    1
    37   225   226   ar
    38   225   224    1
    39   210   211    1
    40   222   223    2
    41    86    85   ar
    42   164   165    2
    43   164   163    1
    44    87    85   ar
    45   200   201   ar
    46   166   167    1
    47   185   184    2
    48    85    84    1
    49   184   183    1
    50   163   162    1
    51   211   212   ar
    52   211   213   ar
    53   212   214   ar
    54   167   168    1
    55   167   170    1
    56   186   183    1
    57   186   187    1
    58   183   182    1
    59   176   177    2
    60   176   175    1
    61   214   215   ar
    62   168   174   am
    63   168   169    2
    64   213   216   ar
    65   213   215   ar
    66    84    81    1
    67   174   175    1
    68    83    82    2
    69   170   171    1
    70   172   171   ar
    71    82    81    1
    72    82    92   am
    73   216   218   ar
    74   215   217   ar
    75   175   178    1
    76    81    80    1
    77   187   188   ar
    78   187   189   ar
    79    95    94    2
    80    97    96    1
    81    93    92    1
    82    93    94    1
    83    93    96    1
    84   171   173   ar
    85   241   239    1
    86   188   190   ar
    87   179   178    1
    88   179   181    1
    89   189   191   ar
    90    63    65    1
    91    63    62    1
    92   178   180    1
    93   218   219   ar
    94   217   219   ar
    95   234   235    1
    96    69    68    2
    97   190   191   ar
    98   239   238    1
    99    64    62    1
   100    67    68    1
   101    67    66    1
   102    62    59    1
   103    61    60    2
   104    68    70   am
   105     7     6    1
   106     7     1    1
   107     6     5    1
   108    66    60   am
   109   235   238    1
   110   235   236    1
   111    60    59    1
   112   238   240    1
   113     1     2    1
   114    59    58    1
   115   161   160    1
   116   141   139    1
   117     5     2    1
   118    73    72    2
   119   159   160   ar
   120   159   157   ar
   121   160   158   ar
   122    70    71    1
   123   236   237    2
   124    72    71    1
   125   157   155   ar
   126   158   156   ar
   127     2     3    1
   128    27    26    1
   129    71    74    1
   130   156   155   ar
   131   155   154    1
   132   128   127   ar
   133   128   126   ar
   134    58    50   am
   135   127   125   ar
   136    57    55   ar
   137    57    56   ar
   138   140   139    1
   139    55    53   ar
   140   154   151    1
   141   139   138    1
   142   126   124   ar
   143    24    26   ar
   144    24    22   ar
   145    26    25   ar
   146   125   122   ar
   147    51    50    2
   148     3     4    2
   149     3     8   am
   150    50    49    1
   151   138   135    1
   152   124   122   ar
   153   124   123   ar
   154    77    75   ar
   155    77    79   ar
   156    56    54   ar
   157    74    75    1
   158   122   120   ar
   159    53    54   ar
   160    53    52    1
   161    22    21   ar
   162   151   152    1
   163   151   150    1
   164    75    76   ar
   165   153   152    2
   166   123   121   ar
   167   137   136    2
   168     8     9    1
   169    25    23   ar
   170    79    78   ar
   171   135   136    1
   172   135   134    1
   173   120   121   ar
   174   120   119    1
   175    52    49    1
   176    49    48    1
   177   150   144   am
   178   119   116    1
   179   148   147    2
   180    76    78   ar
   181    21    23   ar
   182    21    20    1
   183   118   117    2
   184   134   131   am
   185   149   147   am
   186     9    10    1
   187     9    12    1
   188    11    10    2
   189   147   146    1
   190   117   116    1
   191    10    16   am
   192   116   115    1
   193   144   145    2
   194   144   143    1
   195    20    17    1
   196   131   132    2
   197   131   130    1
   198    37    35   ar
   199    37    38   ar
   200    14    12    1
   201    13    12    1
   202    13    15    1
   203    16    17    1
   204    17    18    1
   205   133   130    1
   206    39    38    1
   207   142   143    1
   208    35    33   ar
   209    38    36   ar
   210   143   146    1
   211   130   129    1
   212   105   103   ar
   213   113   114    1
   214   113   112    1
   215    28    18   am
   216    28    29    1
   217    18    19    2
   218    33    32    1
   219    33    34   ar
   220    36    34   ar
   221   103   102    1
   222   103   104   ar
   223   112   111    1
   224    32    29    1
   225   102    99    1
   226    29    30    1
   227    31    30    2
   228    47    45   am
   229   111   110    1
   230    98    99    1
   231    99   100    1
   232    46    45    2
   233    45    44    1
   234   110   107    1
   235   101   100    2
   236    44    41    1
   237    40    41    1
   238   107   106    1
   239   107   108    1
   240    42    41    1
   241    42    43    2
   242   108   109    2
