@<TRIPOS>MOLECULE
tmp/4eg4B00.pdb
 207 204 0 0 0
SMALL
GASTEIGER

@<TRIPOS>ATOM
      1  N         33.1650   11.4640   -5.1340 N.3    16  PRO16      -0.2102
      2  CA        34.2170   12.0020   -5.9690 C.3    16  PRO16       0.1504
      3  C         34.0570   11.4850   -7.3920 C.2    16  PRO16       0.2575
      4  O         33.3510   10.4930   -7.6090 O.2    16  PRO16      -0.2718
      5  CB        35.5000   11.4590   -5.3240 C.3    16  PRO16       0.0282
      6  CG        35.0830   10.7620   -4.0720 C.3    16  PRO16       0.0208
      7  CD        33.6560   10.3810   -4.2700 C.3    16  PRO16       0.0893
      8  N         34.6890   12.1720   -8.3430 N.am   17  ILE17      -0.1980
      9  CA        34.7770   11.6870   -9.7100 C.3    17  ILE17       0.1595
     10  C         36.0540   10.8690   -9.8450 C.2    17  ILE17       0.2287
     11  O         37.1300   11.2690   -9.3700 O.2    17  ILE17      -0.2864
     12  CB        34.6970   12.8060  -10.7730 C.3    17  ILE17       0.0276
     13  CG1       35.5590   14.0110  -10.3900 C.3    17  ILE17       0.0022
     14  CG2       33.2490   13.2400  -10.9670 C.3    17  ILE17       0.0022
     15  CD1       35.9480   14.8810  -11.5630 C.3    17  ILE17       0.0001
     16  N         39.0070    8.3190  -11.6640 N.3    19  TYR19      -0.1241
     17  CA        39.9390    8.3490  -12.8010 C.3    19  TYR19       0.1605
     18  C         39.7820    7.1300  -13.7200 C.2    19  TYR19       0.2264
     19  O         39.9070    5.9840  -13.2880 O.2    19  TYR19      -0.2867
     20  CB        41.3920    8.4740  -12.3090 C.3    19  TYR19       0.0534
     21  CG        42.3430    9.1800  -13.2630 C.ar   19  TYR19      -0.0201
     22  CD1       42.0100   10.3970  -13.8470 C.ar   19  TYR19      -0.0009
     23  CD2       43.5900    8.6440  -13.5500 C.ar   19  TYR19      -0.0009
     24  CE1       42.8780   11.0380  -14.7110 C.ar   19  TYR19       0.0417
     25  CE2       44.4720    9.2810  -14.4060 C.ar   19  TYR19       0.0417
     26  CZ        44.1160   10.4790  -14.9870 C.ar   19  TYR19       0.1957
     27  OH        45.0030   11.1190  -15.8390 O.3    19  TYR19      -0.2866
     28  N         36.6990   11.4530  -13.8470 N.3    56  ASP56      -0.1239
     29  CA        37.7890   12.3610  -14.1620 C.3    56  ASP56       0.1674
     30  C         38.5460   11.7910  -15.3650 C.2    56  ASP56       0.2266
     31  O         39.1590   10.7390  -15.2500 O.2    56  ASP56      -0.2867
     32  CB        38.7150   12.4680  -12.9390 C.3    56  ASP56       0.1410
     33  CG        39.8560   13.4460  -13.1380 C.2    56  ASP56       0.3668
     34  OD1       39.9510   14.0730  -14.2300 O.co2  56  ASP56      -0.2456
     35  OD2       40.6590   13.5860  -12.1850 O.co2  56  ASP56      -0.2456
     36  N         40.6330   13.6090  -17.9730 N.3    58  HIS58      -0.1226
     37  CA        41.7660   14.3120  -18.5880 C.3    58  HIS58       0.1752
     38  C         43.0680   13.8730  -17.9910 C.2    58  HIS58       0.2597
     39  O         43.0950   13.1500  -16.9990 O.2    58  HIS58      -0.2718
     40  CB        41.6060   15.8140  -18.4330 C.3    58  HIS58       0.0759
     41  CG        40.4120   16.3780  -19.1610 C.ar   58  HIS58       0.0818
     42  ND1       39.5920   17.2730  -18.6030 N.ar   58  HIS58      -0.2268
     43  CD2       39.9150   16.1360  -20.4360 C.ar   58  HIS58       0.1154
     44  CE1       38.6170   17.5960  -19.4760 C.ar   58  HIS58       0.1986
     45  NE2       38.8120   16.8990  -20.5930 N.ar   58  HIS58      -0.2212
     46  N         44.1690   14.2870  -18.6080 N.am   59  GLY59      -0.1942
     47  CA        45.5000   14.0070  -18.0690 C.3    59  GLY59       0.2014
     48  C         46.3380   13.1240  -18.9590 C.2    59  GLY59       0.2639
     49  O         45.8150   12.3700  -19.7670 O.2    59  GLY59      -0.2714
     50  N         47.6500   13.2110  -18.7960 N.am   60  GLN60      -0.1963
     51  CA        48.5470   12.4610  -19.6570 C.3    60  GLN60       0.1733
     52  C         48.4810   10.9580  -19.4280 C.2    60  GLN60       0.2616
     53  O         48.8220   10.1790  -20.3230 O.2    60  GLN60      -0.2715
     54  CB        49.9880   12.9500  -19.5290 C.3    60  GLN60       0.0408
     55  CG        50.6480   12.7360  -18.1790 C.3    60  GLN60       0.0908
     56  CD        52.1470   12.9940  -18.2320 C.2    60  GLN60       0.2608
     57  OE1       52.6480   13.9640  -17.6480 O.2    60  GLN60      -0.2717
     58  NE2       52.8710   12.1340  -18.9560 N.am   60  GLN60      -0.0878
     59  N         48.0510   10.5520  -18.2360 N.am   61  LYS61      -0.1977
     60  CA        47.9160    9.1290  -17.9300 C.3    61  LYS61       0.1596
     61  C         46.7460    8.5060  -18.7140 C.2    61  LYS61       0.2287
     62  O         46.8460    7.3650  -19.1790 O.2    61  LYS61      -0.2864
     63  CB        47.7370    8.8940  -16.4210 C.3    61  LYS61       0.0298
     64  CG        48.9660    9.1720  -15.5580 C.3    61  LYS61       0.0038
     65  CD        48.9170    8.3570  -14.2640 C.3    61  LYS61       0.0206
     66  CE        49.8870    8.8590  -13.2000 C.3    61  LYS61       0.1093
     67  NZ        49.2830    9.9270  -12.3500 N.3    61  LYS61      -0.1314
     68  N         55.4810   14.7040  -13.2590 N.3   136  GLU136     -0.1245
     69  CA        54.6020   15.7800  -13.7600 C.3   136  GLU136      0.1567
     70  C         54.5080   16.9440  -12.7650 C.2   136  GLU136      0.2260
     71  O         53.5290   17.6920  -12.7720 O.2   136  GLU136     -0.2867
     72  CB        53.2080   15.2240  -14.0650 C.3   136  GLU136      0.0388
     73  CG        52.4080   15.9990  -15.0930 C.3   136  GLU136      0.1160
     74  CD        51.1530   15.2540  -15.5060 C.2   136  GLU136      0.3649
     75  OE1       50.8270   14.2290  -14.8740 O.co2 136  GLU136     -0.2457
     76  OE2       50.4950   15.6810  -16.4750 O.co2 136  GLU136     -0.2457
     77  N         50.6900   17.4560  -21.0090 N.3   203  LEU203     -0.1245
     78  CA        49.4210   16.7240  -20.8580 C.3   203  LEU203      0.1561
     79  C         48.9610   16.0450  -22.1520 C.2   203  LEU203      0.2260
     80  O         47.7940   15.7010  -22.2830 O.2   203  LEU203     -0.2867
     81  CB        48.2920   17.6440  -20.3540 C.3   203  LEU203      0.0270
     82  CG        48.4780   18.5550  -19.1320 C.3   203  LEU203      0.0019
     83  CD1       47.1300   18.8720  -18.5050 C.3   203  LEU203      0.0001
     84  CD2       49.3900   17.9490  -18.0860 C.3   203  LEU203      0.0001
     85  N         43.3010   17.8780  -22.0680 N.3   207  ALA207     -0.1245
     86  CA        42.9380   18.6990  -20.9160 C.3   207  ALA207      0.1562
     87  C         42.1410   19.9160  -21.4100 C.2   207  ALA207      0.2260
     88  O         42.0130   20.1140  -22.6160 O.2   207  ALA207     -0.2867
     89  CB        44.1900   19.1420  -20.1790 C.3   207  ALA207      0.0290
     90  N         44.2930   23.6050  -18.0220 N.3   217  VAL217     -0.1231
     91  CA        43.8880   23.5110  -16.6330 C.3   217  VAL217      0.1692
     92  C         44.2190   22.1190  -16.0930 C.2   217  VAL217      0.2592
     93  O         43.7320   21.0910  -16.5970 O.2   217  VAL217     -0.2718
     94  CB        42.3980   23.8330  -16.4440 C.3   217  VAL217      0.0266
     95  CG1       41.9900   23.6290  -14.9970 C.3   217  VAL217      0.0020
     96  CG2       42.1210   25.2600  -16.8680 C.3   217  VAL217      0.0020
     97  N         45.0740   22.1140  -15.0740 N.am  218  TYR218     -0.1962
     98  CA        45.5250   20.8980  -14.4040 C.3   218  TYR218      0.1771
     99  C         44.4750   20.4560  -13.3980 C.2   218  TYR218      0.2619
    100  O         43.5590   21.2260  -13.0660 O.2   218  TYR218     -0.2715
    101  CB        46.8580   21.1660  -13.6920 C.3   218  TYR218      0.0574
    102  CG        47.6040   19.9380  -13.2340 C.ar  218  TYR218     -0.0198
    103  CD1       47.9220   18.9220  -14.1230 C.ar  218  TYR218     -0.0009
    104  CD2       48.0120   19.8030  -11.9180 C.ar  218  TYR218     -0.0009
    105  CE1       48.6070   17.7930  -13.7120 C.ar  218  TYR218      0.0417
    106  CE2       48.7050   18.6800  -11.4940 C.ar  218  TYR218      0.0417
    107  CZ        49.0010   17.6760  -12.3970 C.ar  218  TYR218      0.1957
    108  OH        49.6850   16.5540  -11.9850 O.3   218  TYR218     -0.2866
    109  N         44.6390   19.2260  -12.9110 N.am  219  VAL219     -0.1963
    110  CA        43.6690   18.5260  -12.0540 C.3   219  VAL219      0.1727
    111  C         42.7690   19.3520  -11.1060 C.2   219  VAL219      0.2616
    112  O         41.5670   19.1080  -11.0480 O.2   219  VAL219     -0.2715
    113  CB        44.3980   17.4240  -11.2350 C.3   219  VAL219      0.0290
    114  CG1       45.2470   18.0200  -10.1100 C.3   219  VAL219      0.0023
    115  CG2       43.4020   16.3970  -10.7040 C.3   219  VAL219      0.0023
    116  N         43.3420   20.3290  -10.3990 N.am  220  TRP220     -0.1974
    117  CA        42.6600   21.0110   -9.2900 C.3   220  TRP220      0.1640
    118  C         41.4180   21.7520   -9.7100 C.2   220  TRP220      0.2290
    119  O         40.3370   21.5070   -9.1790 O.2   220  TRP220     -0.2864
    120  CB        43.6000   21.9630   -8.5450 C.3   220  TRP220      0.0576
    121  CG        45.0050   21.4390   -8.3440 C.ar  220  TRP220      0.0006
    122  CD1       46.1850   21.9700   -8.8530 C.ar  220  TRP220      0.0946
    123  CD2       45.4230   20.2520   -7.5940 C.ar  220  TRP220      0.0152
    124  NE1       47.2700   21.2200   -8.4760 N.ar  220  TRP220     -0.2442
    125  CE2       46.8850   20.1750   -7.7260 C.ar  220  TRP220      0.0810
    126  CE3       44.7660   19.2850   -6.8570 C.ar  220  TRP220      0.0012
    127  CZ2       47.6250   19.1700   -7.1290 C.ar  220  TRP220      0.0191
    128  CZ3       45.5260   18.2730   -6.2560 C.ar  220  TRP220      0.0001
    129  CH2       46.9220   18.2220   -6.3890 C.ar  220  TRP220      0.0015
    130  N         39.9080   21.4070  -12.5040 N.3   222  ASP222     -0.1225
    131  CA        39.1430   20.5460  -13.4170 C.3   222  ASP222      0.1805
    132  C         38.2920   19.5680  -12.6250 C.2   222  ASP222      0.2598
    133  O         37.0710   19.5590  -12.7550 O.2   222  ASP222     -0.2718
    134  CB        40.0740   19.7710  -14.3680 C.3   222  ASP222      0.1424
    135  CG        39.3080   18.8740  -15.3620 C.2   222  ASP222      0.3668
    136  OD1       38.1080   19.1260  -15.5800 O.co2 222  ASP222     -0.2456
    137  OD2       39.9010   17.9170  -15.9270 O.co2 222  ASP222     -0.2456
    138  N         38.9470   18.7500  -11.8040 N.am  223  ALA223     -0.1966
    139  CA        38.2640   17.6930  -11.0510 C.3   223  ALA223      0.1728
    140  C         37.3280   18.2760   -9.9850 C.2   223  ALA223      0.2616
    141  O         36.1100   18.0430  -10.0210 O.2   223  ALA223     -0.2715
    142  CB        39.2740   16.7360  -10.4260 C.3   223  ALA223      0.0334
    143  N         37.8900   19.0530   -9.0630 N.am  224  LEU224     -0.1977
    144  CA        37.1050   19.6150   -7.9720 C.3   224  LEU224      0.1596
    145  C         35.8830   20.3770   -8.4950 C.2   224  LEU224      0.2287
    146  O         34.8180   20.3480   -7.8780 O.2   224  LEU224     -0.2864
    147  CB        37.9700   20.5120   -7.0650 C.3   224  LEU224      0.0297
    148  CG        39.0380   19.7930   -6.2070 C.3   224  LEU224      0.0022
    149  CD1       40.0530   20.7740   -5.6320 C.3   224  LEU224      0.0001
    150  CD2       38.4330   18.9480   -5.0840 C.3   224  LEU224      0.0001
    151  N         33.7630   19.8250  -10.7360 N.3   226  ASN226     -0.1225
    152  CA        32.5860   19.0520  -11.1480 C.3   226  ASN226      0.1785
    153  C         31.4050   19.2610  -10.2020 C.2   226  ASN226      0.2597
    154  O         30.2420   19.2230  -10.6270 O.2   226  ASN226     -0.2718
    155  CB        32.8970   17.5540  -11.2490 C.3   226  ASN226      0.1169
    156  CG        32.7390   16.8350   -9.9290 C.2   226  ASN226      0.2627
    157  OD1       31.9090   15.9430   -9.7960 O.2   226  ASN226     -0.2716
    158  ND2       33.5240   17.2340   -8.9360 N.am  226  ASN226     -0.0877
    159  N         31.7110   19.4880   -8.9240 N.am  227  TYR227     -0.1976
    160  CA        30.6860   19.7070   -7.9210 C.3   227  TYR227      0.1639
    161  C         29.8900   20.9730   -8.2570 C.2   227  TYR227      0.2290
    162  O         28.6870   21.0410   -8.0030 O.2   227  TYR227     -0.2864
    163  CB        31.3060   19.8190   -6.5280 C.3   227  TYR227      0.0560
    164  CG        32.1240   18.6180   -6.0900 C.ar  227  TYR227     -0.0198
    165  CD1       31.6220   17.3320   -6.1870 C.ar  227  TYR227     -0.0009
    166  CD2       33.3940   18.7780   -5.5370 C.ar  227  TYR227     -0.0009
    167  CE1       32.3710   16.2370   -5.7710 C.ar  227  TYR227      0.0417
    168  CE2       34.1510   17.6840   -5.1170 C.ar  227  TYR227      0.0417
    169  CZ        33.6340   16.4180   -5.2380 C.ar  227  TYR227      0.1957
    170  OH        34.3700   15.3390   -4.8270 O.3   227  TYR227     -0.2866
    171  N         42.3010    9.9500    1.4350 N.3   264  ASP264     -0.1225
    172  CA        43.4020   10.2990    0.5350 C.3   264  ASP264      0.1805
    173  C         43.2820   11.6600   -0.1800 C.2   264  ASP264      0.2597
    174  O         44.2990   12.2520   -0.5160 O.2   264  ASP264     -0.2718
    175  CB        43.6250    9.1710   -0.4920 C.3   264  ASP264      0.1424
    176  CG        42.3550    8.8150   -1.3010 C.2   264  ASP264      0.3668
    177  OD1       41.2360    9.2830   -0.9790 O.co2 264  ASP264     -0.2456
    178  OD2       42.4870    8.0410   -2.2740 O.co2 264  ASP264     -0.2456
    179  N         42.0620   12.1530   -0.3990 N.am  265  ILE265     -0.1980
    180  CA        41.8460   13.4280   -1.1150 C.3   265  ILE265      0.1595
    181  C         41.2100   14.5200   -0.2280 C.2   265  ILE265      0.2287
    182  O         40.5230   15.4420   -0.7080 O.2   265  ILE265     -0.2864
    183  CB        41.0400   13.2080   -2.4170 C.3   265  ILE265      0.0276
    184  CG1       39.6320   12.6720   -2.1380 C.3   265  ILE265      0.0022
    185  CG2       41.7930   12.2500   -3.3240 C.3   265  ILE265      0.0022
    186  CD1       38.8580   12.3000   -3.3850 C.3   265  ILE265      0.0001
    187  N         42.7410   18.1070   -0.6000 N.3   268  PHE268     -0.1227
    188  CA        42.2720   18.7700   -1.8120 C.3   268  PHE268      0.1736
    189  C         40.8330   19.2850   -1.6710 C.2   268  PHE268      0.2595
    190  O         40.4670   20.2830   -2.3030 O.2   268  PHE268     -0.2718
    191  CB        42.3880   17.8210   -3.0150 C.3   268  PHE268      0.0547
    192  CG        43.6770   17.0400   -3.0540 C.ar  268  PHE268     -0.0202
    193  CD1       44.9000   17.6880   -2.9900 C.ar  268  PHE268     -0.0042
    194  CD2       43.6670   15.6590   -3.1450 C.ar  268  PHE268     -0.0042
    195  CE1       46.0910   16.9790   -3.0170 C.ar  268  PHE268     -0.0003
    196  CE2       44.8520   14.9400   -3.1720 C.ar  268  PHE268     -0.0003
    197  CZ        46.0660   15.6030   -3.1070 C.ar  268  PHE268     -0.0000
    198  N         40.0290   18.6060   -0.8500 N.am  269  HIS269     -0.1975
    199  CA        38.6430   19.0290   -0.5830 C.3   269  HIS269      0.1656
    200  C         38.4880   20.0390    0.5460 C.2   269  HIS269      0.2291
    201  O         37.5650   20.8580    0.5330 O.2   269  HIS269     -0.2864
    202  CB        37.7710   17.8070   -0.2950 C.3   269  HIS269      0.0771
    203  CG        37.4200   17.0190   -1.5180 C.ar  269  HIS269      0.0820
    204  ND1       38.2840   16.1780   -2.1020 N.ar  269  HIS269     -0.2267
    205  CD2       36.2500   16.9780   -2.2800 C.ar  269  HIS269      0.1154
    206  CE1       37.7010   15.6160   -3.1860 C.ar  269  HIS269      0.1986
    207  NE2       36.4580   16.1100   -3.2930 N.ar  269  HIS269     -0.2212
@<TRIPOS>BOND
     1    88    87    2
     2    80    79    2
     3    79    78    1
     4    85    86    1
     5    87    86    1
     6    77    78    1
     7    86    89    1
     8    78    81    1
     9    45    43   ar
    10    45    44   ar
    11    43    41   ar
    12    81    82    1
    13    53    52    2
    14    49    48    2
    15    51    54    1
    16    51    52    1
    17    51    50    1
    18    54    55    1
    19    44    42   ar
    20    52    59   am
    21    62    61    2
    22    41    42   ar
    23    41    40    1
    24    82    83    1
    25    82    84    1
    26    48    50   am
    27    48    47    1
    28    58    56   am
    29    61    60    1
    30    46    47    1
    31    46    38   am
    32    37    40    1
    33    37    38    1
    34    37    36    1
    35    59    60    1
    36    56    55    1
    37    56    57    2
    38    90    91    1
    39    38    39    2
    40    60    63    1
    41    96    94    1
    42    91    94    1
    43    91    92    1
    44    93    92    2
    45    76    74   ar
    46    94    95    1
    47    63    64    1
    48    92    97   am
    49   137   135   ar
    50    27    26    1
    51   136   135   ar
    52    64    65    1
    53    74    73    1
    54    74    75   ar
    55    30    31    2
    56    30    29    1
    57   135   134    1
    58    73    72    1
    59    97    98    1
    60    26    24   ar
    61    26    25   ar
    62    24    22   ar
    63    25    23   ar
    64    98   101    1
    65    98    99    1
    66   134   131    1
    67    65    66    1
    68    34    33   ar
    69    29    28    1
    70    29    32    1
    71   103   105   ar
    72   103   102   ar
    73    72    69    1
    74    22    21   ar
    75    69    68    1
    76    69    70    1
    77    18    19    2
    78    18    17    1
    79   105   107   ar
    80   101   102    1
    81    23    21   ar
    82   131   132    1
    83   131   130    1
    84    99   100    2
    85    99   109   am
    86    21    20    1
    87   102   104   ar
    88    66    67    1
    89    33    32    1
    90    33    35   ar
    91   109   110    1
    92    17    20    1
    93    17    16    1
    94    71    70    2
    95   133   132    2
    96   132   138   am
    97   107   108    1
    98   107   106   ar
    99   110   113    1
   100   110   111    1
   101   104   106   ar
   102   138   139    1
   103    15    13    1
   104   155   152    1
   105   155   156    1
   106   113   115    1
   107   113   114    1
   108   152   151    1
   109   152   153    1
   110   111   112    2
   111   111   116   am
   112   139   142    1
   113   139   140    1
   114    14    12    1
   115    12    13    1
   116    12     9    1
   117   154   153    2
   118   116   117    1
   119   153   159   am
   120   141   140    2
   121   140   143   am
   122   156   157    2
   123   156   158   am
   124    10     9    1
   125    10    11    2
   126     9     8    1
   127   118   117    1
   128   118   119    2
   129   117   120    1
   130   143   144    1
   131   159   160    1
   132   122   124   ar
   133   122   121   ar
   134   120   121    1
   135   145   144    1
   136   145   146    2
   137   124   125   ar
   138   121   123   ar
   139     8     3   am
   140   161   162    2
   141   161   160    1
   142   144   147    1
   143   160   163    1
   144   125   123   ar
   145   125   127   ar
   146     4     3    2
   147   123   126   ar
   148     3     2    1
   149   127   129   ar
   150   147   148    1
   151   126   128   ar
   152   163   164    1
   153   129   128   ar
   154   148   149    1
   155   148   150    1
   156   165   164   ar
   157   165   167   ar
   158   164   166   ar
   159     2     5    1
   160     2     1    1
   161   167   169   ar
   162   166   168   ar
   163     5     6    1
   164   169   168   ar
   165   169   170    1
   166     1     7    1
   167     7     6    1
   168   186   184    1
   169   185   183    1
   170   207   206   ar
   171   207   205   ar
   172   206   204   ar
   173   196   194   ar
   174   196   197   ar
   175   194   192   ar
   176   197   195   ar
   177   192   191    1
   178   192   193   ar
   179   195   193   ar
   180   191   188    1
   181   183   184    1
   182   183   180    1
   183   190   189    2
   184   205   203   ar
   185   178   176   ar
   186   204   203   ar
   187   188   189    1
   188   188   187    1
   189   189   198   am
   190   203   202    1
   191   176   177   ar
   192   176   175    1
   193   180   179    1
   194   180   181    1
   195   198   199    1
   196   182   181    2
   197   199   202    1
   198   199   200    1
   199   174   173    2
   200   175   172    1
   201   179   173   am
   202   173   172    1
   203   201   200    2
   204   172   171    1
