@<TRIPOS>MOLECULE
tmp/4eg5B00.pdb
 218 217 0 0 0
SMALL
GASTEIGER

@<TRIPOS>ATOM
      1  N         32.8260  -11.6100    5.2010 N.3    16  PRO16      -0.2102
      2  CA        33.8160  -12.1920    6.0830 C.3    16  PRO16       0.1504
      3  C         33.6770  -11.5820    7.4510 C.2    16  PRO16       0.2576
      4  O         33.1580  -10.4750    7.5760 O.2    16  PRO16      -0.2718
      5  CB        35.1500  -11.7890    5.4530 C.3    16  PRO16       0.0282
      6  CG        34.8530  -10.6050    4.5980 C.3    16  PRO16       0.0208
      7  CD        33.3620  -10.4540    4.4620 C.3    16  PRO16       0.0893
      8  N         34.1170  -12.3300    8.4580 N.am   17  ILE17      -0.1966
      9  CA        34.2170  -11.8330    9.8100 C.3    17  ILE17       0.1727
     10  C         35.4960  -11.0110    9.9310 C.2    17  ILE17       0.2616
     11  O         36.5370  -11.4230    9.4440 O.2    17  ILE17      -0.2715
     12  CB        34.1790  -12.9730   10.8500 C.3    17  ILE17       0.0290
     13  CG1       35.2400  -14.0490   10.5760 C.3    17  ILE17       0.0022
     14  CG2       32.7920  -13.5990   10.9010 C.3    17  ILE17       0.0023
     15  CD1       35.4940  -14.9470   11.7690 C.3    17  ILE17       0.0001
     16  N         35.4070   -9.8500   10.5720 N.am   18  TYR18      -0.1960
     17  CA        36.4840   -8.8680   10.5610 C.3    18  TYR18       0.1771
     18  C         37.2870   -8.8620   11.8720 C.2    18  TYR18       0.2619
     19  O         36.7490   -9.1640   12.9430 O.2    18  TYR18      -0.2715
     20  CB        35.9140   -7.4740   10.2930 C.3    18  TYR18       0.0574
     21  CG        34.9130   -7.4440    9.1740 C.ar   18  TYR18      -0.0198
     22  CD1       35.3270   -7.5170    7.8540 C.ar   18  TYR18      -0.0009
     23  CD2       33.5390   -7.3540    9.4330 C.ar   18  TYR18      -0.0009
     24  CE1       34.4090   -7.4960    6.8210 C.ar   18  TYR18       0.0417
     25  CE2       32.6140   -7.3350    8.4070 C.ar   18  TYR18       0.0417
     26  CZ        33.0570   -7.4090    7.1060 C.ar   18  TYR18       0.1957
     27  OH        32.1630   -7.4010    6.0720 O.3    18  TYR18      -0.2866
     28  N         38.5670   -8.4840   11.7740 N.am   19  TYR19      -0.1974
     29  CA        39.5230   -8.5590   12.8910 C.3    19  TYR19       0.1639
     30  C         39.4760   -7.3290   13.8050 C.2    19  TYR19       0.2290
     31  O         39.6220   -6.1850   13.3610 O.2    19  TYR19      -0.2864
     32  CB        40.9430   -8.7630   12.3610 C.3    19  TYR19       0.0560
     33  CG        41.9100   -9.4350   13.3140 C.ar   19  TYR19      -0.0198
     34  CD1       41.6020  -10.6490   13.9380 C.ar   19  TYR19      -0.0009
     35  CD2       43.1670   -8.8780   13.5560 C.ar   19  TYR19      -0.0009
     36  CE1       42.5110  -11.2670   14.7950 C.ar   19  TYR19       0.0417
     37  CE2       44.0920   -9.4870   14.4040 C.ar   19  TYR19       0.0417
     38  CZ        43.7710  -10.6800   15.0230 C.ar   19  TYR19       0.1957
     39  OH        44.7130  -11.2600   15.8590 O.3    19  TYR19      -0.2866
     40  N         36.1940  -11.8150   13.9180 N.3    56  ASP56      -0.1239
     41  CA        37.3190  -12.6840   14.2500 C.3    56  ASP56       0.1674
     42  C         37.9880  -12.0650   15.4710 C.2    56  ASP56       0.2266
     43  O         38.5020  -10.9570   15.3670 O.2    56  ASP56      -0.2867
     44  CB        38.2920  -12.6960   13.0520 C.3    56  ASP56       0.1410
     45  CG        39.5220  -13.5850   13.2650 C.2    56  ASP56       0.3668
     46  OD1       39.6950  -14.1890   14.3610 O.co2  56  ASP56      -0.2456
     47  OD2       40.3230  -13.6730   12.3050 O.co2  56  ASP56      -0.2456
     48  N         40.1080  -13.8490   18.1950 N.3    58  HIS58      -0.1226
     49  CA        41.2680  -14.4890   18.7940 C.3    58  HIS58       0.1752
     50  C         42.5440  -14.0440   18.1240 C.2    58  HIS58       0.2597
     51  O         42.5060  -13.3690   17.0910 O.2    58  HIS58      -0.2718
     52  CB        41.1190  -16.0000   18.6980 C.3    58  HIS58       0.0759
     53  CG        39.8990  -16.5310   19.3980 C.ar   58  HIS58       0.0818
     54  ND1       39.1310  -17.4820   18.8680 N.ar   58  HIS58      -0.2268
     55  CD2       39.3160  -16.1850   20.6140 C.ar   58  HIS58       0.1154
     56  CE1       38.1170  -17.7550   19.7060 C.ar   58  HIS58       0.1986
     57  NE2       38.2290  -16.9560   20.7730 N.ar   58  HIS58      -0.2212
     58  N         43.6850  -14.4120   18.7110 N.am   59  GLY59      -0.1942
     59  CA        44.9850  -14.0840   18.1360 C.3    59  GLY59       0.2014
     60  C         45.9590  -13.3840   19.0740 C.2    59  GLY59       0.2639
     61  O         45.5740  -12.6650   19.9940 O.2    59  GLY59      -0.2714
     62  N         47.2410  -13.6070   18.8140 N.am   60  GLN60      -0.1963
     63  CA        48.3330  -12.9250   19.4860 C.3    60  GLN60       0.1733
     64  C         48.2160  -11.3940   19.4330 C.2    60  GLN60       0.2616
     65  O         48.6000  -10.7040   20.3770 O.2    60  GLN60      -0.2715
     66  CB        49.6410  -13.3670   18.8220 C.3    60  GLN60       0.0408
     67  CG        50.9160  -12.7340   19.3730 C.3    60  GLN60       0.0908
     68  CD        52.1690  -13.2750   18.7080 C.2    60  GLN60       0.2608
     69  OE1       52.1010  -14.1140   17.7970 O.2    60  GLN60      -0.2717
     70  NE2       53.3230  -12.7910   19.1550 N.am   60  GLN60      -0.0878
     71  N         47.6990  -10.8680   18.3270 N.am   61  LYS61      -0.1977
     72  CA        47.5640   -9.4190   18.1540 C.3    61  LYS61       0.1596
     73  C         46.3710   -8.8030   18.9130 C.2    61  LYS61       0.2287
     74  O         46.4760   -7.6900   19.4240 O.2    61  LYS61      -0.2864
     75  CB        47.4890   -9.0670   16.6660 C.3    61  LYS61       0.0298
     76  CG        48.7450   -9.4360   15.9010 C.3    61  LYS61       0.0038
     77  CD        48.7300   -8.9210   14.4710 C.3    61  LYS61       0.0206
     78  CE        50.0060   -9.3370   13.7550 C.3    61  LYS61       0.1093
     79  NZ        50.1970   -8.6190   12.4620 N.3    61  LYS61      -0.1314
     80  N         55.1910  -14.6920   12.9360 N.3   136  ASP136     -0.1239
     81  CA        54.1490  -15.7170   13.1820 C.3   136  ASP136      0.1674
     82  C         53.9560  -16.6930   12.0020 C.2   136  ASP136      0.2266
     83  O         52.8290  -17.0580   11.6410 O.2   136  ASP136     -0.2867
     84  CB        52.8190  -15.0570   13.5970 C.3   136  ASP136      0.1410
     85  CG        51.9760  -15.9470   14.5040 C.2   136  ASP136      0.3668
     86  OD1       52.1230  -17.1870   14.4280 O.co2 136  ASP136     -0.2456
     87  OD2       51.1690  -15.4000   15.2950 O.co2 136  ASP136     -0.2456
     88  N         50.4210  -17.8000   21.3510 N.3   195  LEU195     -0.1245
     89  CA        49.1070  -17.1760   21.1300 C.3   195  LEU195      0.1561
     90  C         48.5510  -16.4640   22.3810 C.2   195  LEU195      0.2260
     91  O         47.3720  -16.1020   22.4090 O.2   195  LEU195     -0.2867
     92  CB        48.0940  -18.2360   20.6550 C.3   195  LEU195      0.0270
     93  CG        47.7270  -18.3150   19.1710 C.3   195  LEU195      0.0019
     94  CD1       46.8360  -19.5160   18.8950 C.3   195  LEU195      0.0001
     95  CD2       47.0220  -17.0460   18.7300 C.3   195  LEU195      0.0001
     96  N         42.8580  -18.1050   22.2000 N.3   199  ALA199     -0.1245
     97  CA        42.4920  -18.9000   21.0320 C.3   199  ALA199      0.1562
     98  C         41.8090  -20.1780   21.5020 C.2   199  ALA199      0.2260
     99  O         41.9420  -20.5480   22.6640 O.2   199  ALA199     -0.2867
    100  CB        43.7340  -19.2500   20.2250 C.3   199  ALA199      0.0290
    101  N         43.9930  -23.8340   18.2300 N.3   210  VAL210     -0.1231
    102  CA        43.5540  -23.8050   16.8360 C.3   210  VAL210      0.1692
    103  C         43.7850  -22.4390   16.2030 C.2   210  VAL210      0.2592
    104  O         43.1810  -21.4500   16.6090 O.2   210  VAL210     -0.2718
    105  CB        42.0670  -24.1400   16.6900 C.3   210  VAL210      0.0266
    106  CG1       41.6440  -24.0290   15.2320 C.3   210  VAL210      0.0020
    107  CG2       41.7890  -25.5280   17.2320 C.3   210  VAL210      0.0020
    108  N         44.6390  -22.4100   15.1830 N.am  211  TYR211     -0.1962
    109  CA        45.0420  -21.1740   14.4970 C.3   211  TYR211      0.1771
    110  C         43.8970  -20.6090   13.6190 C.2   211  TYR211      0.2619
    111  O         42.7940  -21.1720   13.5880 O.2   211  TYR211     -0.2715
    112  CB        46.3280  -21.4530   13.6910 C.3   211  TYR211      0.0574
    113  CG        47.0830  -20.2400   13.1930 C.ar  211  TYR211     -0.0198
    114  CD1       47.3810  -19.1720   14.0380 C.ar  211  TYR211     -0.0009
    115  CD2       47.5160  -20.1710   11.8770 C.ar  211  TYR211     -0.0009
    116  CE1       48.0640  -18.0580   13.5740 C.ar  211  TYR211      0.0417
    117  CE2       48.2050  -19.0680   11.4000 C.ar  211  TYR211      0.0417
    118  CZ        48.4770  -18.0180   12.2520 C.ar  211  TYR211      0.1957
    119  OH        49.1600  -16.9300   11.7660 O.3   211  TYR211     -0.2866
    120  N         44.1590  -19.4980   12.9270 N.am  212  VAL212     -0.1963
    121  CA        43.1300  -18.7350   12.1950 C.3   212  VAL212      0.1727
    122  C         42.2570  -19.5070   11.1860 C.2   212  VAL212      0.2616
    123  O         41.0490  -19.2640   11.1000 O.2   212  VAL212     -0.2715
    124  CB        43.7760  -17.5590   11.4360 C.3   212  VAL212      0.0290
    125  CG1       44.6950  -18.0690   10.3350 C.3   212  VAL212      0.0023
    126  CG2       42.7080  -16.6460   10.8660 C.3   212  VAL212      0.0023
    127  N         42.8590  -20.4250   10.4280 N.am  213  TRP213     -0.1974
    128  CA        42.1510  -21.0660    9.3140 C.3   213  TRP213      0.1640
    129  C         40.9480  -21.8030    9.8250 C.2   213  TRP213      0.2290
    130  O         39.8340  -21.5270    9.3950 O.2   213  TRP213     -0.2864
    131  CB        43.0510  -21.9890    8.4930 C.3   213  TRP213      0.0576
    132  CG        44.4620  -21.4730    8.3310 C.ar  213  TRP213      0.0006
    133  CD1       45.6360  -22.0600    8.7930 C.ar  213  TRP213      0.0946
    134  CD2       44.8950  -20.2320    7.6800 C.ar  213  TRP213      0.0152
    135  NE1       46.7280  -21.3020    8.4660 N.ar  213  TRP213     -0.2442
    136  CE2       46.3540  -20.1880    7.8040 C.ar  213  TRP213      0.0810
    137  CE3       44.2490  -19.2010    7.0190 C.ar  213  TRP213      0.0012
    138  CZ2       47.1070  -19.1390    7.2890 C.ar  213  TRP213      0.0191
    139  CZ3       45.0220  -18.1490    6.4980 C.ar  213  TRP213      0.0001
    140  CH2       46.4180  -18.1220    6.6360 C.ar  213  TRP213      0.0015
    141  N         39.5900  -21.6380   12.6720 N.3   215  ASP215     -0.1225
    142  CA        38.8190  -20.7950   13.5930 C.3   215  ASP215      0.1805
    143  C         37.8530  -19.8970   12.8240 C.2   215  ASP215      0.2598
    144  O         36.6460  -20.0590   12.9330 O.2   215  ASP215     -0.2718
    145  CB        39.7560  -19.9470   14.4670 C.3   215  ASP215      0.1424
    146  CG        39.0600  -19.3900   15.7190 C.2   215  ASP215      0.3668
    147  OD1       37.8840  -18.9550   15.6060 O.co2 215  ASP215     -0.2456
    148  OD2       39.7000  -19.4020   16.8170 O.co2 215  ASP215     -0.2456
    149  N         38.4030  -18.9660   12.0410 N.am  216  ALA216     -0.1966
    150  CA        37.6190  -17.9810   11.2840 C.3   216  ALA216      0.1728
    151  C         36.7600  -18.6470   10.2170 C.2   216  ALA216      0.2616
    152  O         35.5310  -18.5820   10.2820 O.2   216  ALA216     -0.2715
    153  CB        38.5400  -16.9490   10.6320 C.3   216  ALA216      0.0334
    154  N         37.4020  -19.2900    9.2410 N.am  217  LEU217     -0.1977
    155  CA        36.6690  -19.8670    8.1220 C.3   217  LEU217      0.1596
    156  C         35.4420  -20.6030    8.6360 C.2   217  LEU217      0.2287
    157  O         34.3540  -20.4620    8.0640 O.2   217  LEU217     -0.2864
    158  CB        37.5510  -20.7820    7.2680 C.3   217  LEU217      0.0297
    159  CG        38.6410  -20.0650    6.4580 C.3   217  LEU217      0.0022
    160  CD1       39.4150  -21.0610    5.6270 C.3   217  LEU217      0.0001
    161  CD2       38.0930  -18.9790    5.5480 C.3   217  LEU217      0.0001
    162  N         33.4040  -19.9890   10.9380 N.3   219  ASN219     -0.1225
    163  CA        32.2620  -19.1400   11.2950 C.3   219  ASN219      0.1785
    164  C         31.0810  -19.3410   10.3550 C.2   219  ASN219      0.2597
    165  O         29.9340  -19.3360   10.8020 O.2   219  ASN219     -0.2718
    166  CB        32.6360  -17.6460   11.3150 C.3   219  ASN219      0.1169
    167  CG        32.4600  -16.9720    9.9660 C.2   219  ASN219      0.2627
    168  OD1       31.3780  -16.4620    9.6350 O.2   219  ASN219     -0.2716
    169  ND2       33.5300  -16.9680    9.1710 N.am  219  ASN219     -0.0877
    170  N         31.3610  -19.5060    9.0590 N.am  220  TYR220     -0.1976
    171  CA        30.3020  -19.7180    8.0780 C.3   220  TYR220      0.1639
    172  C         29.4800  -20.9590    8.4280 C.2   220  TYR220      0.2290
    173  O         28.2750  -20.9610    8.2230 O.2   220  TYR220     -0.2864
    174  CB        30.8590  -19.8510    6.6590 C.3   220  TYR220      0.0560
    175  CG        31.7470  -18.7100    6.2160 C.ar  220  TYR220     -0.0198
    176  CD1       31.3520  -17.3850    6.3810 C.ar  220  TYR220     -0.0009
    177  CD2       32.9820  -18.9520    5.6060 C.ar  220  TYR220     -0.0009
    178  CE1       32.1630  -16.3340    5.9700 C.ar  220  TYR220      0.0417
    179  CE2       33.7990  -17.9020    5.1840 C.ar  220  TYR220      0.0417
    180  CZ        33.3870  -16.5920    5.3710 C.ar  220  TYR220      0.1957
    181  OH        34.1750  -15.5360    4.9660 O.3   220  TYR220     -0.2866
    182  N         41.9710   -9.9170   -1.1830 N.3   257  ASP257     -0.1225
    183  CA        43.0620  -10.2260   -0.2690 C.3   257  ASP257      0.1805
    184  C         42.9340  -11.5760    0.4620 C.2   257  ASP257      0.2597
    185  O         43.9480  -12.1680    0.8360 O.2   257  ASP257     -0.2718
    186  CB        43.2290   -9.0760    0.7410 C.3   257  ASP257      0.1424
    187  CG        41.9440   -8.7900    1.5330 C.2   257  ASP257      0.3668
    188  OD1       40.9300   -8.3630    0.9180 O.co2 257  ASP257     -0.2456
    189  OD2       41.9540   -8.9890    2.7690 O.co2 257  ASP257     -0.2456
    190  N         41.7140  -12.0720    0.6590 N.am  258  ILE258     -0.1980
    191  CA        41.5160  -13.3660    1.3500 C.3   258  ILE258      0.1595
    192  C         40.9400  -14.4690    0.4210 C.2   258  ILE258      0.2287
    193  O         40.1860  -15.3630    0.8590 O.2   258  ILE258     -0.2864
    194  CB        40.6960  -13.1830    2.6540 C.3   258  ILE258      0.0276
    195  CG1       39.2580  -12.7400    2.3740 C.3   258  ILE258      0.0022
    196  CG2       41.3730  -12.1510    3.5450 C.3   258  ILE258      0.0022
    197  CD1       38.4120  -12.6180    3.6180 C.3   258  ILE258      0.0001
    198  N         42.2790  -18.0880    0.8310 N.3   261  PHE261     -0.1227
    199  CA        41.7440  -18.7130    2.0430 C.3   261  PHE261      0.1736
    200  C         40.3540  -19.2770    1.8590 C.2   261  PHE261      0.2595
    201  O         40.0230  -20.2780    2.4800 O.2   261  PHE261     -0.2718
    202  CB        41.7310  -17.7380    3.2300 C.3   261  PHE261      0.0547
    203  CG        43.0280  -16.9990    3.4430 C.ar  261  PHE261     -0.0202
    204  CD1       44.2520  -17.5920    3.1460 C.ar  261  PHE261     -0.0042
    205  CD2       43.0160  -15.7180    3.9550 C.ar  261  PHE261     -0.0042
    206  CE1       45.4340  -16.9090    3.3340 C.ar  261  PHE261     -0.0003
    207  CE2       44.1930  -15.0310    4.1500 C.ar  261  PHE261     -0.0003
    208  CZ        45.4070  -15.6280    3.8400 C.ar  261  PHE261     -0.0000
    209  N         39.5480  -18.6390    1.0160 N.am  262  HIS262     -0.1975
    210  CA        38.1680  -19.0970    0.7450 C.3   262  HIS262      0.1656
    211  C         38.0340  -20.0570   -0.4220 C.2   262  HIS262      0.2291
    212  O         37.1970  -20.9480   -0.4010 O.2   262  HIS262     -0.2864
    213  CB        37.2660  -17.8840    0.5440 C.3   262  HIS262      0.0771
    214  CG        37.0270  -17.1140    1.8030 C.ar  262  HIS262      0.0820
    215  ND1       37.9900  -16.4120    2.4010 N.ar  262  HIS262     -0.2267
    216  CD2       35.8940  -16.9970    2.5990 C.ar  262  HIS262      0.1154
    217  CE1       37.5040  -15.8660    3.5310 C.ar  262  HIS262      0.1986
    218  NE2       36.2170  -16.2250    3.6440 N.ar  262  HIS262     -0.2212
@<TRIPOS>BOND
     1   182   183    1
     2   211   212    2
     3   211   210    1
     4   183   184    1
     5   183   186    1
     6   192   193    2
     7   192   191    1
     8   184   190   am
     9   184   185    2
    10   213   210    1
    11   213   214    1
    12   190   191    1
    13   186   187    1
    14   210   209    1
    15   198   199    1
    16   188   187   ar
    17   209   200   am
    18   191   194    1
    19   187   189   ar
    20   214   215   ar
    21   214   216   ar
    22   200   199    1
    23   200   201    2
    24   199   202    1
    25   195   194    1
    26   195   197    1
    27   215   217   ar
    28   216   218   ar
    29   194   196    1
    30   204   206   ar
    31   204   203   ar
    32   202   203    1
    33   206   208   ar
    34   203   205   ar
    35   217   218   ar
    36   208   207   ar
    37   205   207   ar
    38     7     6    1
    39     7     1    1
    40     6     5    1
    41   181   180    1
    42   179   180   ar
    43   179   177   ar
    44     1     2    1
    45   180   178   ar
    46     5     2    1
    47   161   159    1
    48   177   175   ar
    49   160   159    1
    50   178   176   ar
    51    27    26    1
    52     2     3    1
    53   175   176   ar
    54   175   174    1
    55   159   158    1
    56   139   140   ar
    57   139   137   ar
    58   140   138   ar
    59   174   171    1
    60    24    26   ar
    61    24    22   ar
    62   137   134   ar
    63    26    25   ar
    64   158   155    1
    65   138   136   ar
    66     3     4    2
    67     3     8   am
    68   134   136   ar
    69   134   132   ar
    70   136   135   ar
    71    22    21   ar
    72   157   156    2
    73   171   172    1
    74   171   170    1
    75   155   156    1
    76   155   154    1
    77   173   172    2
    78   132   131    1
    79   132   133   ar
    80    25    23   ar
    81     8     9    1
    82   135   133   ar
    83   131   128    1
    84   170   164   am
    85   169   167   am
    86    21    23   ar
    87    21    20    1
    88   154   151   am
    89   128   129    1
    90   128   127    1
    91   130   129    2
    92    11    10    2
    93   168   167    2
    94     9    10    1
    95     9    12    1
    96    10    16   am
    97   167   166    1
    98   151   152    2
    99   151   150    1
   100    20    17    1
   101   125   124    1
   102   164   165    2
   103   164   163    1
   104   127   122   am
   105    17    16    1
   106    17    18    1
   107    13    12    1
   108    13    15    1
   109   153   150    1
   110    12    14    1
   111   126   124    1
   112   162   163    1
   113   123   122    2
   114   122   121    1
   115   150   149    1
   116   163   166    1
   117   117   115   ar
   118   117   118   ar
   119   124   121    1
   120    83    82    2
   121   119   118    1
   122    28    18   am
   123    28    29    1
   124    18    19    2
   125   115   113   ar
   126    82    81    1
   127   149   143   am
   128   121   120    1
   129   118   116   ar
   130    47    45   ar
   131    32    29    1
   132    32    33    1
   133    79    78    1
   134   141   142    1
   135   143   144    2
   136   143   142    1
   137    29    30    1
   138   120   110   am
   139    80    81    1
   140    44    45    1
   141    44    41    1
   142    81    84    1
   143   113   112    1
   144   113   114   ar
   145    45    46   ar
   146    33    35   ar
   147    33    34   ar
   148    31    30    2
   149    35    37   ar
   150   116   114   ar
   151   111   110    2
   152   142   145    1
   153    84    85    1
   154   110   109    1
   155   112   109    1
   156    78    77    1
   157    40    41    1
   158    34    36   ar
   159    41    42    1
   160    37    38   ar
   161    86    85   ar
   162   145   146    1
   163    77    76    1
   164   109   108    1
   165    85    87   ar
   166    36    38   ar
   167    38    39    1
   168   108   103   am
   169   106   105    1
   170    43    42    2
   171   147   146   ar
   172   146   148   ar
   173    76    75    1
   174   103   104    2
   175   103   102    1
   176    75    72    1
   177   105   102    1
   178   105   107    1
   179   102   101    1
   180    51    50    2
   181    69    68    2
   182    50    58   am
   183    50    49    1
   184    59    58    1
   185    59    60    1
   186    72    71    1
   187    72    73    1
   188    48    49    1
   189    71    64   am
   190    52    49    1
   191    52    53    1
   192    68    70   am
   193    68    67    1
   194    95    93    1
   195    62    60   am
   196    62    63    1
   197    66    67    1
   198    66    63    1
   199    54    53   ar
   200    54    56   ar
   201    94    93    1
   202    73    74    2
   203    60    61    2
   204    93    92    1
   205    53    55   ar
   206    64    63    1
   207    64    65    2
   208    56    57   ar
   209   100    97    1
   210    55    57   ar
   211    92    89    1
   212    97    98    1
   213    97    96    1
   214    89    88    1
   215    89    90    1
   216    98    99    2
   217    90    91    2
