@<TRIPOS>MOLECULE
tmp/4eg6B00.pdb
 199 196 0 0 0
SMALL
GASTEIGER

@<TRIPOS>ATOM
      1  N        -33.0510  -11.2480   -5.1370 N.3    16  PRO16      -0.2102
      2  CA       -34.1240  -11.7750   -5.9600 C.3    16  PRO16       0.1504
      3  C        -33.8300  -11.3880   -7.3890 C.2    16  PRO16       0.2575
      4  O        -33.0050  -10.5060   -7.6120 O.2    16  PRO16      -0.2718
      5  CB       -35.3600  -11.0320   -5.4480 C.3    16  PRO16       0.0282
      6  CG       -34.9980  -10.5820   -4.0780 C.3    16  PRO16       0.0208
      7  CD       -33.5380  -10.2420   -4.1800 C.3    16  PRO16       0.0893
      8  N        -34.4600  -12.0550   -8.3480 N.am   17  ILE17      -0.1980
      9  CA       -34.4510  -11.5750   -9.7190 C.3    17  ILE17       0.1595
     10  C        -35.7380  -10.7780   -9.8970 C.2    17  ILE17       0.2287
     11  O        -36.7880  -11.1760   -9.3940 O.2    17  ILE17      -0.2864
     12  CB       -34.3010  -12.7050  -10.7540 C.3    17  ILE17       0.0276
     13  CG1      -35.3660  -13.7940  -10.5780 C.3    17  ILE17       0.0022
     14  CG2      -32.9230  -13.3220  -10.6400 C.3    17  ILE17       0.0022
     15  CD1      -35.5630  -14.6630  -11.8050 C.3    17  ILE17       0.0001
     16  N        -38.8600   -8.3920  -11.5950 N.3    19  TYR19      -0.1241
     17  CA       -39.8050   -8.4470  -12.7030 C.3    19  TYR19       0.1605
     18  C        -39.6600   -7.2170  -13.5990 C.2    19  TYR19       0.2264
     19  O        -39.6860   -6.0890  -13.1140 O.2    19  TYR19      -0.2867
     20  CB       -41.2350   -8.5790  -12.1680 C.3    19  TYR19       0.0534
     21  CG       -42.2390   -9.1130  -13.1710 C.ar   19  TYR19      -0.0201
     22  CD1      -41.8900  -10.1250  -14.0690 C.ar   19  TYR19      -0.0009
     23  CD2      -43.5540   -8.6360  -13.2030 C.ar   19  TYR19      -0.0009
     24  CE1      -42.8050  -10.6250  -14.9800 C.ar   19  TYR19       0.0417
     25  CE2      -44.4820   -9.1370  -14.1150 C.ar   19  TYR19       0.0417
     26  CZ       -44.1010  -10.1340  -15.0040 C.ar   19  TYR19       0.1957
     27  OH       -44.9950  -10.6610  -15.9250 O.3    19  TYR19      -0.2866
     28  N        -36.3770  -11.3370  -13.8760 N.3    56  ASP56      -0.1239
     29  CA       -37.4420  -12.3080  -14.0860 C.3    56  ASP56       0.1674
     30  C        -38.2090  -11.8330  -15.3230 C.2    56  ASP56       0.2266
     31  O        -38.9730  -10.8780  -15.2480 O.2    56  ASP56      -0.2867
     32  CB       -38.3360  -12.3170  -12.8300 C.3    56  ASP56       0.1410
     33  CG       -39.4790  -13.3280  -12.8980 C.2    56  ASP56       0.3668
     34  OD1      -39.7250  -13.9250  -13.9660 O.co2  56  ASP56      -0.2456
     35  OD2      -40.1460  -13.5290  -11.8580 O.co2  56  ASP56      -0.2456
     36  N        -40.2230  -13.5830  -17.9250 N.3    58  HIS58      -0.1226
     37  CA       -41.4090  -14.2110  -18.5270 C.3    58  HIS58       0.1752
     38  C        -42.6640  -13.7640  -17.8530 C.2    58  HIS58       0.2597
     39  O        -42.6050  -13.0870  -16.8470 O.2    58  HIS58      -0.2718
     40  CB       -41.2840  -15.7210  -18.4590 C.3    58  HIS58       0.0759
     41  CG       -40.1010  -16.2620  -19.2210 C.ar   58  HIS58       0.0818
     42  ND1      -39.1270  -16.9630  -18.6320 N.ar   58  HIS58      -0.2268
     43  CD2      -39.7550  -16.1620  -20.5580 C.ar   58  HIS58       0.1154
     44  CE1      -38.2110  -17.3150  -19.5450 C.ar   58  HIS58       0.1986
     45  NE2      -38.5930  -16.8250  -20.7220 N.ar   58  HIS58      -0.2212
     46  N        -43.8170  -14.1260  -18.4010 N.am   59  GLY59      -0.1942
     47  CA       -45.1140  -13.7530  -17.8040 C.3    59  GLY59       0.2014
     48  C        -46.0430  -13.0560  -18.7810 C.2    59  GLY59       0.2638
     49  O        -45.6240  -12.6630  -19.8620 O.2    59  GLY59      -0.2714
     50  N        -47.3090  -12.8970  -18.4110 N.am   60  GLN60      -0.1977
     51  CA       -48.2730  -12.2450  -19.3070 C.3    60  GLN60       0.1601
     52  C        -48.2560  -10.7170  -19.2060 C.2    60  GLN60       0.2287
     53  O        -48.4470  -10.0330  -20.2090 O.2    60  GLN60      -0.2864
     54  CB       -49.6910  -12.7970  -19.1040 C.3    60  GLN60       0.0394
     55  CG       -50.4330  -12.2780  -17.8870 C.3    60  GLN60       0.0908
     56  CD       -51.9050  -12.6040  -17.9510 C.2    60  GLN60       0.2608
     57  OE1      -52.3660  -13.5440  -17.3030 O.2    60  GLN60      -0.2717
     58  NE2      -52.6490  -11.8420  -18.7550 N.am   60  GLN60      -0.0878
     59  N        -54.2500  -14.8650  -12.7990 N.3   137  GLU137     -0.1245
     60  CA       -53.9970  -16.2200  -13.2680 C.3   137  GLU137      0.1567
     61  C        -54.3870  -17.1870  -12.1510 C.2   137  GLU137      0.2260
     62  O        -53.6880  -18.1690  -11.9040 O.2   137  GLU137     -0.2867
     63  CB       -52.5220  -16.4090  -13.6420 C.3   137  GLU137      0.0388
     64  CG       -51.9490  -15.3460  -14.5710 C.3   137  GLU137      0.1160
     65  CD       -51.3640  -14.1470  -13.8430 C.2   137  GLU137      0.3649
     66  OE1      -50.9100  -14.2900  -12.6890 O.co2 137  GLU137     -0.2457
     67  OE2      -51.3460  -13.0530  -14.4390 O.co2 137  GLU137     -0.2457
     68  N        -50.3960  -17.1360  -20.9130 N.3   204  LEU204     -0.1245
     69  CA       -49.1320  -16.4270  -20.7270 C.3   204  LEU204      0.1561
     70  C        -48.6440  -15.7450  -22.0110 C.2   204  LEU204      0.2260
     71  O        -47.5120  -15.2580  -22.0660 O.2   204  LEU204     -0.2867
     72  CB       -48.0560  -17.4040  -20.2340 C.3   204  LEU204      0.0270
     73  CG       -48.2740  -18.1270  -18.9020 C.3   204  LEU204      0.0019
     74  CD1      -47.0230  -18.8940  -18.4790 C.3   204  LEU204      0.0001
     75  CD2      -48.6920  -17.1360  -17.8200 C.3   204  LEU204      0.0001
     76  N        -43.0270  -17.6350  -22.0930 N.3   208  ALA208     -0.1245
     77  CA       -42.6730  -18.5110  -20.9660 C.3   208  ALA208      0.1562
     78  C        -41.8280  -19.6990  -21.4520 C.2   208  ALA208      0.2260
     79  O        -41.3890  -19.7020  -22.5970 O.2   208  ALA208     -0.2867
     80  CB       -43.9320  -18.9940  -20.2660 C.3   208  ALA208      0.0290
     81  N        -44.2130  -23.4740  -18.0910 N.3   218  VAL218     -0.1231
     82  CA       -43.7220  -23.4870  -16.7220 C.3   218  VAL218      0.1692
     83  C        -44.0250  -22.1230  -16.0930 C.2   218  VAL218      0.2592
     84  O        -43.5350  -21.0890  -16.5700 O.2   218  VAL218     -0.2718
     85  CB       -42.2070  -23.7810  -16.6840 C.3   218  VAL218      0.0266
     86  CG1      -41.6900  -23.8090  -15.2620 C.3   218  VAL218      0.0020
     87  CG2      -41.9080  -25.0990  -17.3730 C.3   218  VAL218      0.0020
     88  N        -44.8360  -22.1220  -15.0340 N.am  219  TYR219     -0.1962
     89  CA       -45.2560  -20.8810  -14.3650 C.3   219  TYR219      0.1771
     90  C        -44.1020  -20.2820  -13.5290 C.2   219  TYR219      0.2619
     91  O        -42.9700  -20.7750  -13.5940 O.2   219  TYR219     -0.2715
     92  CB       -46.5270  -21.1440  -13.5250 C.3   219  TYR219      0.0574
     93  CG       -47.3040  -19.9040  -13.1090 C.ar  219  TYR219     -0.0198
     94  CD1      -47.6090  -18.8900  -14.0240 C.ar  219  TYR219     -0.0009
     95  CD2      -47.7310  -19.7480  -11.7940 C.ar  219  TYR219     -0.0009
     96  CE1      -48.3050  -17.7560  -13.6340 C.ar  219  TYR219      0.0417
     97  CE2      -48.4360  -18.6200  -11.3900 C.ar  219  TYR219      0.0417
     98  CZ       -48.7240  -17.6270  -12.3080 C.ar  219  TYR219      0.1957
     99  OH       -49.4250  -16.5150  -11.8730 O.3   219  TYR219     -0.2866
    100  N        -44.3880  -19.2230  -12.7670 N.am  220  VAL220     -0.1963
    101  CA       -43.3600  -18.4000  -12.0990 C.3   220  VAL220      0.1727
    102  C        -42.4100  -19.1320  -11.1330 C.2   220  VAL220      0.2616
    103  O        -41.2260  -18.7880  -11.0310 O.2   220  VAL220     -0.2715
    104  CB       -44.0160  -17.2200  -11.3280 C.3   220  VAL220      0.0290
    105  CG1      -44.8700  -17.7330  -10.1760 C.3   220  VAL220      0.0023
    106  CG2      -42.9600  -16.2520  -10.8090 C.3   220  VAL220      0.0023
    107  N        -42.9280  -20.1440  -10.4450 N.am  221  TRP221     -0.1974
    108  CA       -42.2060  -20.7640   -9.3400 C.3   221  TRP221      0.1640
    109  C        -40.9800  -21.4830   -9.8160 C.2   221  TRP221      0.2290
    110  O        -39.8630  -21.1110   -9.4550 O.2   221  TRP221     -0.2864
    111  CB       -43.1140  -21.7110   -8.5450 C.3   221  TRP221      0.0576
    112  CG       -44.5210  -21.1860   -8.3680 C.ar  221  TRP221      0.0006
    113  CD1      -45.6980  -21.7600   -8.8260 C.ar  221  TRP221      0.0946
    114  CD2      -44.9360  -19.9370   -7.7080 C.ar  221  TRP221      0.0152
    115  NE1      -46.7820  -20.9890   -8.4890 N.ar  221  TRP221     -0.2442
    116  CE2      -46.3970  -19.8820   -7.8200 C.ar  221  TRP221      0.0810
    117  CE3      -44.2700  -18.9010   -7.0540 C.ar  221  TRP221      0.0012
    118  CZ2      -47.1390  -18.8270   -7.2980 C.ar  221  TRP221      0.0191
    119  CZ3      -45.0270  -17.8470   -6.5270 C.ar  221  TRP221      0.0001
    120  CH2      -46.4270  -17.8130   -6.6490 C.ar  221  TRP221      0.0015
    121  N        -39.6980  -21.4720  -12.6540 N.3   223  ASP223     -0.1225
    122  CA       -38.9400  -20.6410  -13.5810 C.3   223  ASP223      0.1805
    123  C        -38.0220  -19.7050  -12.8170 C.2   223  ASP223      0.2598
    124  O        -36.8060  -19.8170  -12.9290 O.2   223  ASP223     -0.2718
    125  CB       -39.8840  -19.8420  -14.4850 C.3   223  ASP223      0.1424
    126  CG       -39.1430  -18.9980  -15.5190 C.2   223  ASP223      0.3668
    127  OD1      -37.8900  -18.9700  -15.5080 O.co2 223  ASP223     -0.2456
    128  OD2      -39.8280  -18.3600  -16.3480 O.co2 223  ASP223     -0.2456
    129  N        -38.6110  -18.7950  -12.0410 N.am  224  ALA224     -0.1966
    130  CA       -37.8510  -17.7360  -11.3690 C.3   224  ALA224      0.1728
    131  C        -36.9530  -18.2870  -10.2580 C.2   224  ALA224      0.2616
    132  O        -35.7440  -18.0540  -10.2650 O.2   224  ALA224     -0.2715
    133  CB       -38.7830  -16.6630  -10.8190 C.3   224  ALA224      0.0334
    134  N        -37.5340  -19.0260   -9.3150 N.am  225  LEU225     -0.1977
    135  CA       -36.7560  -19.5630   -8.1970 C.3   225  LEU225      0.1596
    136  C        -35.5590  -20.3960   -8.6670 C.2   225  LEU225      0.2287
    137  O        -34.5010  -20.3730   -8.0470 O.2   225  LEU225     -0.2864
    138  CB       -37.6370  -20.3900   -7.2570 C.3   225  LEU225      0.0297
    139  CG       -38.5540  -19.5720   -6.3420 C.3   225  LEU225      0.0022
    140  CD1      -39.7390  -20.3930   -5.8650 C.3   225  LEU225      0.0001
    141  CD2      -37.7750  -19.0280   -5.1510 C.3   225  LEU225      0.0001
    142  N        -33.5740  -19.8590  -10.9400 N.3   227  ASN227     -0.1225
    143  CA       -32.4590  -19.0250  -11.3670 C.3   227  ASN227      0.1785
    144  C        -31.2230  -19.2340  -10.4910 C.2   227  ASN227      0.2597
    145  O        -30.0800  -19.1930  -10.9820 O.2   227  ASN227     -0.2718
    146  CB       -32.8470  -17.5490  -11.3460 C.3   227  ASN227      0.1169
    147  CG       -32.5930  -16.9000  -10.0030 C.2   227  ASN227      0.2627
    148  OD1      -31.4840  -16.4310   -9.7290 O.2   227  ASN227     -0.2716
    149  ND2      -33.6130  -16.8780   -9.1520 N.am  227  ASN227     -0.0877
    150  N        -31.4720  -19.4500   -9.1960 N.am  228  TYR228     -0.1976
    151  CA       -30.4130  -19.6450   -8.2060 C.3   228  TYR228      0.1639
    152  C        -29.5770  -20.8790   -8.5190 C.2   228  TYR228      0.2290
    153  O        -28.3630  -20.8740   -8.3580 O.2   228  TYR228     -0.2864
    154  CB       -31.0140  -19.7980   -6.8080 C.3   228  TYR228      0.0560
    155  CG       -31.8250  -18.6160   -6.3170 C.ar  228  TYR228     -0.0198
    156  CD1      -31.3420  -17.3190   -6.4230 C.ar  228  TYR228     -0.0009
    157  CD2      -33.0630  -18.8000   -5.7000 C.ar  228  TYR228     -0.0009
    158  CE1      -32.0780  -16.2380   -5.9610 C.ar  228  TYR228      0.0417
    159  CE2      -33.7990  -17.7160   -5.2300 C.ar  228  TYR228      0.0417
    160  CZ       -33.2950  -16.4430   -5.3630 C.ar  228  TYR228      0.1957
    161  OH       -33.9970  -15.3720   -4.8970 O.3   228  TYR228     -0.2866
    162  N        -41.8690  -12.0270   -0.5650 N.3   266  ILE266     -0.1245
    163  CA       -41.5890  -13.2790   -1.2910 C.3   266  ILE266      0.1561
    164  C        -40.9410  -14.3620   -0.4020 C.2   266  ILE266      0.2260
    165  O        -40.2580  -15.2800   -0.8840 O.2   266  ILE266     -0.2867
    166  CB       -40.7680  -13.0040   -2.5780 C.3   266  ILE266      0.0252
    167  CG1      -39.3690  -12.4670   -2.2630 C.3   266  ILE266      0.0019
    168  CG2      -41.5000  -12.0030   -3.4600 C.3   266  ILE266      0.0019
    169  CD1      -38.5710  -12.1230   -3.5010 C.3   266  ILE266      0.0001
    170  N        -42.6960  -16.5860    1.6290 N.3   268  LYS268     -0.1231
    171  CA       -43.4500  -17.7990    1.3170 C.3   268  LYS268      0.1693
    172  C        -42.7440  -18.6240    0.2520 C.2   268  LYS268      0.2592
    173  O        -42.4670  -19.7990    0.4510 O.2   268  LYS268     -0.2718
    174  CB       -44.8640  -17.4300    0.8210 C.3   268  LYS268      0.0285
    175  CG       -45.7600  -18.6270    0.4510 C.3   268  LYS268      0.0035
    176  CD       -47.2580  -18.2830    0.3820 C.3   268  LYS268      0.0206
    177  CE       -47.6660  -17.6000   -0.9270 C.3   268  LYS268      0.1093
    178  NZ       -49.1040  -17.1830   -0.9620 N.3   268  LYS268     -0.1314
    179  N        -42.4410  -17.9770   -0.8710 N.am  269  PHE269     -0.1962
    180  CA       -41.9360  -18.6610   -2.0590 C.3   269  PHE269      0.1771
    181  C        -40.5330  -19.1900   -1.8380 C.2   269  PHE269      0.2619
    182  O        -40.1730  -20.2320   -2.3750 O.2   269  PHE269     -0.2715
    183  CB       -41.9150  -17.7290   -3.2770 C.3   269  PHE269      0.0574
    184  CG       -43.1660  -16.9090   -3.4580 C.ar  269  PHE269     -0.0200
    185  CD1      -44.4230  -17.4530   -3.2380 C.ar  269  PHE269     -0.0042
    186  CD2      -43.0830  -15.5950   -3.8760 C.ar  269  PHE269     -0.0042
    187  CE1      -45.5730  -16.6960   -3.4120 C.ar  269  PHE269     -0.0003
    188  CE2      -44.2290  -14.8340   -4.0480 C.ar  269  PHE269     -0.0003
    189  CZ       -45.4770  -15.3880   -3.8200 C.ar  269  PHE269     -0.0000
    190  N        -39.7430  -18.4530   -1.0600 N.am  270  HIS270     -0.1973
    191  CA       -38.3450  -18.8180   -0.7790 C.3   270  HIS270      0.1656
    192  C        -38.1680  -19.7940    0.3770 C.2   270  HIS270      0.2291
    193  O        -37.2040  -20.5690    0.4190 O.2   270  HIS270     -0.2864
    194  CB       -37.5370  -17.5480   -0.5280 C.3   270  HIS270      0.0771
    195  CG       -37.1520  -16.8210   -1.7870 C.ar  270  HIS270      0.0820
    196  ND1      -37.9710  -15.9570   -2.4010 N.ar  270  HIS270     -0.2267
    197  CD2      -35.9840  -16.8690   -2.5510 C.ar  270  HIS270      0.1154
    198  CE1      -37.3650  -15.4720   -3.5040 C.ar  270  HIS270      0.1986
    199  NE2      -36.1510  -16.0350   -3.5940 N.ar  270  HIS270     -0.2212
@<TRIPOS>BOND
     1    79    78    2
     2    76    77    1
     3    71    70    2
     4    70    69    1
     5    78    77    1
     6    77    80    1
     7    68    69    1
     8    69    72    1
     9    45    43   ar
    10    45    44   ar
    11    43    41   ar
    12    72    73    1
    13    53    52    2
    14    49    48    2
    15    44    42   ar
    16    51    52    1
    17    51    54    1
    18    51    50    1
    19    41    42   ar
    20    41    40    1
    21    54    55    1
    22    73    74    1
    23    73    75    1
    24    48    50   am
    25    48    47    1
    26    58    56   am
    27    37    40    1
    28    37    36    1
    29    37    38    1
    30    46    38   am
    31    46    47    1
    32    81    82    1
    33    56    55    1
    34    56    57    2
    35    38    39    2
    36    87    85    1
    37    82    85    1
    38    82    83    1
    39    85    86    1
    40    84    83    2
    41   128   126   ar
    42    83    88   am
    43    27    26    1
    44   126   127   ar
    45   126   125    1
    46    30    31    2
    47    30    29    1
    48    88    89    1
    49    26    24   ar
    50    26    25   ar
    51    24    22   ar
    52    64    65    1
    53    64    63    1
    54   125   122    1
    55    67    65   ar
    56    89    90    1
    57    89    92    1
    58    25    23   ar
    59    29    28    1
    60    29    32    1
    61    22    21   ar
    62    94    96   ar
    63    94    93   ar
    64    34    33   ar
    65    65    66   ar
    66    63    60    1
    67    96    98   ar
    68    18    19    2
    69    18    17    1
    70    91    90    2
    71   122   123    1
    72   122   121    1
    73    90   100   am
    74    92    93    1
    75    60    59    1
    76    60    61    1
    77    23    21   ar
    78    21    20    1
    79    93    95   ar
    80   124   123    2
    81    33    32    1
    82    33    35   ar
    83   123   129   am
    84   100   101    1
    85    17    20    1
    86    17    16    1
    87    98    99    1
    88    98    97   ar
    89    61    62    2
    90   101   104    1
    91   101   102    1
    92   129   130    1
    93    15    13    1
    94    95    97   ar
    95   130   133    1
    96   130   131    1
    97   143   146    1
    98   143   142    1
    99   143   144    1
   100   146   147    1
   101   104   106    1
   102   104   105    1
   103   102   103    2
   104   102   107   am
   105   145   144    2
   106    12    14    1
   107    12    13    1
   108    12     9    1
   109   144   150   am
   110   107   108    1
   111   132   131    2
   112   131   134   am
   113   147   148    2
   114   147   149   am
   115    10     9    1
   116    10    11    2
   117   109   110    2
   118   109   108    1
   119     9     8    1
   120   108   111    1
   121   134   135    1
   122   150   151    1
   123   113   115   ar
   124   113   112   ar
   125   136   135    1
   126   136   137    2
   127   111   112    1
   128   152   153    2
   129   152   151    1
   130   115   116   ar
   131   112   114   ar
   132     8     3   am
   133   151   154    1
   134   135   138    1
   135   116   114   ar
   136   116   118   ar
   137   114   117   ar
   138     4     3    2
   139     3     2    1
   140   118   120   ar
   141   138   139    1
   142   117   119   ar
   143   154   155    1
   144   120   119   ar
   145   156   155   ar
   146   156   158   ar
   147   139   140    1
   148   139   141    1
   149   155   157   ar
   150   158   160   ar
   151     2     5    1
   152     2     1    1
   153   157   159   ar
   154     5     6    1
   155   160   159   ar
   156   160   161    1
   157     1     7    1
   158     7     6    1
   159   188   186   ar
   160   188   189   ar
   161   186   184   ar
   162   189   187   ar
   163   199   198   ar
   164   199   197   ar
   165   198   196   ar
   166   169   167    1
   167   168   166    1
   168   184   183    1
   169   184   185   ar
   170   187   185   ar
   171   183   180    1
   172   166   167    1
   173   166   163    1
   174   197   195   ar
   175   196   195   ar
   176   182   181    2
   177   180   181    1
   178   180   179    1
   179   181   190   am
   180   195   194    1
   181   163   162    1
   182   163   164    1
   183   190   191    1
   184   178   177    1
   185   177   176    1
   186   165   164    2
   187   179   172   am
   188   191   194    1
   189   191   192    1
   190   172   173    2
   191   172   171    1
   192   192   193    2
   193   176   175    1
   194   175   174    1
   195   174   171    1
   196   171   170    1
