@<TRIPOS>MOLECULE
tmp/4eg7B00.pdb
 210 209 0 0 0
SMALL
GASTEIGER

@<TRIPOS>ATOM
      1  N        -33.7330   11.6590    5.1890 N.3    16  PRO16      -0.2102
      2  CA       -34.8200   12.1900    5.9760 C.3    16  PRO16       0.1504
      3  C        -34.6360   11.7320    7.3890 C.2    16  PRO16       0.2576
      4  O        -33.8930   10.7870    7.6310 O.2    16  PRO16      -0.2718
      5  CB       -36.0560   11.5190    5.3780 C.3    16  PRO16       0.0282
      6  CG       -35.6070   10.9130    4.0870 C.3    16  PRO16       0.0208
      7  CD       -34.1790   10.5580    4.3290 C.3    16  PRO16       0.0893
      8  N        -35.2840   12.4090    8.3210 N.am   17  ILE17      -0.1966
      9  CA       -35.3560   11.9100    9.6770 C.3    17  ILE17       0.1727
     10  C        -36.6320   11.0770    9.7870 C.2    17  ILE17       0.2616
     11  O        -37.6760   11.4490    9.2530 O.2    17  ILE17      -0.2715
     12  CB       -35.2500   13.0390   10.7210 C.3    17  ILE17       0.0290
     13  CG1      -36.4400   14.0070   10.6540 C.3    17  ILE17       0.0022
     14  CG2      -33.9420   13.7910   10.5150 C.3    17  ILE17       0.0023
     15  CD1      -36.4910   14.9990   11.8040 C.3    17  ILE17       0.0001
     16  N        -36.5120    9.9310   10.4540 N.am   18  TYR18      -0.1960
     17  CA       -37.5090    8.8580   10.3930 C.3    18  TYR18       0.1771
     18  C        -38.3800    8.8060   11.6330 C.2    18  TYR18       0.2619
     19  O        -37.8790    8.9750   12.7410 O.2    18  TYR18      -0.2715
     20  CB       -36.7920    7.5200   10.2080 C.3    18  TYR18       0.0574
     21  CG       -35.8050    7.5410    9.0580 C.ar   18  TYR18      -0.0198
     22  CD1      -36.2440    7.6110    7.7510 C.ar   18  TYR18      -0.0009
     23  CD2      -34.4410    7.5200    9.2850 C.ar   18  TYR18      -0.0009
     24  CE1      -35.3540    7.6500    6.6990 C.ar   18  TYR18       0.0417
     25  CE2      -33.5400    7.5450    8.2410 C.ar   18  TYR18       0.0417
     26  CZ       -34.0010    7.6150    6.9460 C.ar   18  TYR18       0.1957
     27  OH       -33.1110    7.6450    5.8870 O.3    18  TYR18      -0.2866
     28  N        -39.6750    8.5500   11.4480 N.am   19  TYR19      -0.1974
     29  CA       -40.6380    8.6290   12.5510 C.3    19  TYR19       0.1639
     30  C        -40.5330    7.4260   13.4780 C.2    19  TYR19       0.2290
     31  O        -40.5770    6.2840   13.0360 O.2    19  TYR19      -0.2864
     32  CB       -42.0800    8.7800   12.0200 C.3    19  TYR19       0.0560
     33  CG       -43.0500    9.5340   12.9420 C.ar   19  TYR19      -0.0198
     34  CD1      -42.6400   10.6570   13.6690 C.ar   19  TYR19      -0.0009
     35  CD2      -44.3910    9.1470   13.0430 C.ar   19  TYR19      -0.0009
     36  CE1      -43.5210   11.3490   14.4840 C.ar   19  TYR19       0.0417
     37  CE2      -45.2830    9.8310   13.8570 C.ar   19  TYR19       0.0417
     38  CZ       -44.8480   10.9350   14.5780 C.ar   19  TYR19       0.1957
     39  OH       -45.7300   11.6320   15.3860 O.3    19  TYR19      -0.2866
     40  N        -37.2930   11.5490   13.8590 N.3    56  ASP56      -0.1239
     41  CA       -38.3700   12.5250   14.0450 C.3    56  ASP56       0.1674
     42  C        -39.1870   12.0480   15.2320 C.2    56  ASP56       0.2266
     43  O        -39.8230   11.0020   15.1530 O.2    56  ASP56      -0.2867
     44  CB       -39.2470   12.5380   12.7850 C.3    56  ASP56       0.1410
     45  CG       -40.3500   13.5690   12.8270 C.2    56  ASP56       0.3668
     46  OD1      -40.4790   14.3260   13.8210 O.co2  56  ASP56      -0.2456
     47  OD2      -41.0950   13.6330   11.8370 O.co2  56  ASP56      -0.2456
     48  N        -41.4320   13.8770   17.8250 N.3    58  HIS58      -0.1226
     49  CA       -42.5790   14.5060   18.4890 C.3    58  HIS58       0.1752
     50  C        -43.9100   14.1020   17.9130 C.2    58  HIS58       0.2597
     51  O        -43.9670   13.4360   16.8900 O.2    58  HIS58      -0.2718
     52  CB       -42.4470   16.0130   18.4060 C.3    58  HIS58       0.0759
     53  CG       -41.2350   16.5590   19.1210 C.ar   58  HIS58       0.0818
     54  ND1      -40.3050   17.3050   18.5030 N.ar   58  HIS58      -0.2268
     55  CD2      -40.8210   16.4330   20.4330 C.ar   58  HIS58       0.1154
     56  CE1      -39.3540   17.6440   19.3740 C.ar   58  HIS58       0.1986
     57  NE2      -39.6660   17.1110   20.5560 N.ar   58  HIS58      -0.2212
     58  N        -44.9970   14.4960   18.5740 N.am   59  GLY59      -0.1942
     59  CA       -46.3380   14.3770   18.0080 C.3    59  GLY59       0.2014
     60  C        -47.2360   13.3640   18.6860 C.2    59  GLY59       0.2638
     61  O        -46.7600   12.4840   19.3970 O.2    59  GLY59      -0.2714
     62  N        -48.5380   13.4700   18.4250 N.am   60  GLN60      -0.1977
     63  CA       -49.5490   12.7220   19.1690 C.3    60  GLN60       0.1601
     64  C        -49.3600   11.2050   19.0770 C.2    60  GLN60       0.2287
     65  O        -49.6300   10.4700   20.0340 O.2    60  GLN60      -0.2864
     66  CB       -50.9670   13.1250   18.7110 C.3    60  GLN60       0.0394
     67  CG       -51.4090   12.4970   17.4000 C.3    60  GLN60       0.0908
     68  CD       -52.6580   13.1140   16.7930 C.2    60  GLN60       0.2608
     69  OE1      -52.7380   14.3230   16.5540 O.2    60  GLN60      -0.2717
     70  NE2      -53.6250   12.2630   16.4890 N.am   60  GLN60      -0.0878
     71  N        -55.0180   13.9890   11.6590 N.3   136  GLU136     -0.1245
     72  CA       -54.3300   15.2300   12.0210 C.3   136  GLU136      0.1567
     73  C        -54.4920   16.2920   10.9390 C.2   136  GLU136      0.2260
     74  O        -53.5510   17.0120   10.6390 O.2   136  GLU136     -0.2867
     75  CB       -52.8390   14.9840   12.2750 C.3   136  GLU136      0.0388
     76  CG       -52.5330   13.7730   13.1370 C.3   136  GLU136      0.1160
     77  CD       -51.0480   13.5230   13.3230 C.2   136  GLU136      0.3649
     78  OE1      -50.2240   14.2730   12.7690 O.co2 136  GLU136     -0.2457
     79  OE2      -50.7100   12.5590   14.0310 O.co2 136  GLU136     -0.2457
     80  N        -51.7960   17.3040   20.7550 N.3   224  LEU224     -0.1245
     81  CA       -50.4920   16.6200   20.6560 C.3   224  LEU224      0.1561
     82  C        -50.0150   16.0020   21.9840 C.2   224  LEU224      0.2260
     83  O        -48.8300   15.7180   22.1370 O.2   224  LEU224     -0.2867
     84  CB       -49.4090   17.5960   20.1750 C.3   224  LEU224      0.0270
     85  CG       -49.5890   18.3300   18.8440 C.3   224  LEU224      0.0019
     86  CD1      -48.3450   19.1390   18.5280 C.3   224  LEU224      0.0001
     87  CD2      -49.8900   17.3570   17.7120 C.3   224  LEU224      0.0001
     88  N        -44.3670   17.9390   22.0500 N.3   228  ALA228     -0.1245
     89  CA       -43.9170   18.6870   20.8740 C.3   228  ALA228      0.1562
     90  C        -43.0290   19.8770   21.2910 C.2   228  ALA228      0.2260
     91  O        -42.6970   20.0110   22.4750 O.2   228  ALA228     -0.2867
     92  CB       -45.1200   19.1560   20.0700 C.3   228  ALA228      0.0290
     93  N        -45.4900   23.5470   17.7900 N.3   238  VAL238     -0.1231
     94  CA       -45.0310   23.4930   16.4170 C.3   238  VAL238      0.1692
     95  C        -45.3130   22.0980   15.8800 C.2   238  VAL238      0.2592
     96  O        -44.8710   21.0890   16.4580 O.2   238  VAL238     -0.2718
     97  CB       -43.5310   23.7750   16.3230 C.3   238  VAL238      0.0266
     98  CG1      -43.0850   23.7800   14.8710 C.3   238  VAL238      0.0020
     99  CG2      -43.2040   25.0880   17.0040 C.3   238  VAL238      0.0020
    100  N        -46.0540   22.0420   14.7780 N.am  239  TYR239     -0.1962
    101  CA       -46.4520   20.7780   14.1630 C.3   239  TYR239      0.1771
    102  C        -45.3000   20.2760   13.2680 C.2   239  TYR239      0.2619
    103  O        -44.2280   20.8950   13.2160 O.2   239  TYR239     -0.2715
    104  CB       -47.7750   20.9960   13.4070 C.3   239  TYR239      0.0574
    105  CG       -48.4240   19.7600   12.8470 C.ar  239  TYR239     -0.0198
    106  CD1      -48.7450   18.6900   13.6500 C.ar  239  TYR239     -0.0009
    107  CD2      -48.7210   19.6720   11.4980 C.ar  239  TYR239     -0.0009
    108  CE1      -49.3360   17.5570   13.1280 C.ar  239  TYR239      0.0417
    109  CE2      -49.3220   18.5460   10.9620 C.ar  239  TYR239      0.0417
    110  CZ       -49.6270   17.4890   11.7810 C.ar  239  TYR239      0.1957
    111  OH       -50.2090   16.3740   11.2240 O.3   239  TYR239     -0.2866
    112  N        -45.5060   19.1590   12.5790 N.am  240  VAL240     -0.1963
    113  CA       -44.4190   18.4680   11.8820 C.3   240  VAL240      0.1727
    114  C        -43.5040   19.3250   11.0050 C.2   240  VAL240      0.2616
    115  O        -42.2950   19.0890   10.9680 O.2   240  VAL240     -0.2715
    116  CB       -44.9690   17.3360   10.9880 C.3   240  VAL240      0.0290
    117  CG1      -45.8620   17.9020    9.8890 C.3   240  VAL240      0.0023
    118  CG2      -43.8160   16.5190   10.4070 C.3   240  VAL240      0.0023
    119  N        -44.0790   20.3030   10.3020 N.am  241  TRP241     -0.1974
    120  CA       -43.4240   20.8920    9.1310 C.3   241  TRP241      0.1640
    121  C        -42.2050   21.6410    9.5480 C.2   241  TRP241      0.2290
    122  O        -41.0990   21.2770    9.1640 O.2   241  TRP241     -0.2864
    123  CB       -44.3710   21.7960    8.3360 C.3   241  TRP241      0.0576
    124  CG       -45.7370   21.2000    8.0810 C.ar  241  TRP241      0.0006
    125  CD1      -46.9600   21.6720    8.5320 C.ar  241  TRP241      0.0946
    126  CD2      -46.0570   20.0010    7.3180 C.ar  241  TRP241      0.0152
    127  NE1      -47.9800   20.8730    8.1070 N.ar  241  TRP241     -0.2442
    128  CE2      -47.5050   19.8450    7.3890 C.ar  241  TRP241      0.0810
    129  CE3      -45.3150   19.0660    6.6270 C.ar  241  TRP241      0.0012
    130  CZ2      -48.1590   18.7860    6.7800 C.ar  241  TRP241      0.0191
    131  CZ3      -45.9830   18.0050    6.0050 C.ar  241  TRP241      0.0001
    132  CH2      -47.3680   17.8720    6.0800 C.ar  241  TRP241      0.0015
    133  N        -40.7820   21.5770   12.3190 N.3   243  ASP243     -0.1225
    134  CA       -40.0020   20.8070   13.2760 C.3   243  ASP243      0.1805
    135  C        -39.0910   19.8380   12.5430 C.2   243  ASP243      0.2598
    136  O        -37.8710   19.8840   12.6840 O.2   243  ASP243     -0.2718
    137  CB       -40.9480   20.0350   14.2100 C.3   243  ASP243      0.1424
    138  CG       -40.2100   19.1720   15.2430 C.2   243  ASP243      0.3668
    139  OD1      -38.9670   19.1810   15.2780 O.co2 243  ASP243     -0.2456
    140  OD2      -40.8940   18.4740   16.0220 O.co2 243  ASP243     -0.2456
    141  N        -39.6940   18.9570   11.7590 N.am  244  ALA244     -0.1966
    142  CA       -38.9580   17.8730   11.1390 C.3   244  ALA244      0.1728
    143  C        -37.9970   18.3940   10.0660 C.2   244  ALA244      0.2616
    144  O        -36.8310   18.0090   10.0460 O.2   244  ALA244     -0.2715
    145  CB       -39.9190   16.8460   10.5570 C.3   244  ALA244      0.0334
    146  N        -38.4890   19.2720    9.1910 N.am  245  LEU245     -0.1977
    147  CA       -37.7030   19.7610    8.0550 C.3   245  LEU245      0.1596
    148  C        -36.5320   20.6000    8.5340 C.2   245  LEU245      0.2287
    149  O        -35.4430   20.5290    7.9630 O.2   245  LEU245     -0.2864
    150  CB       -38.5650   20.5710    7.0830 C.3   245  LEU245      0.0297
    151  CG       -39.6200   19.7260    6.3550 C.3   245  LEU245      0.0022
    152  CD1      -40.7130   20.5970    5.7810 C.3   245  LEU245      0.0001
    153  CD2      -39.0040   18.8810    5.2540 C.3   245  LEU245      0.0001
    154  N        -34.5030   20.0450   10.6630 N.3   247  ASN247     -0.1225
    155  CA       -33.3520   19.2630   11.1400 C.3   247  ASN247      0.1785
    156  C        -32.1140   19.4770   10.2760 C.2   247  ASN247      0.2597
    157  O        -30.9820   19.4470   10.7720 O.2   247  ASN247     -0.2718
    158  CB       -33.6640   17.7690   11.2010 C.3   247  ASN247      0.1169
    159  CG       -33.5590   17.0940    9.8510 C.2   247  ASN247      0.2627
    160  OD1      -32.5540   16.4900    9.5340 O.2   247  ASN247     -0.2716
    161  ND2      -34.5940   17.2150    9.0470 N.am  247  ASN247     -0.0877
    162  N        -32.3450   19.6850    8.9830 N.am  248  TYR248     -0.1976
    163  CA       -31.2680   19.9400    8.0410 C.3   248  TYR248      0.1639
    164  C        -30.5400   21.2370    8.4110 C.2   248  TYR248      0.2290
    165  O        -29.3150   21.3230    8.3520 O.2   248  TYR248     -0.2864
    166  CB       -31.8160   20.0250    6.6150 C.3   248  TYR248      0.0560
    167  CG       -32.6350   18.8260    6.1810 C.ar  248  TYR248     -0.0198
    168  CD1      -32.1560   17.5380    6.3260 C.ar  248  TYR248     -0.0009
    169  CD2      -33.8810   18.9910    5.6080 C.ar  248  TYR248     -0.0009
    170  CE1      -32.9010   16.4490    5.9210 C.ar  248  TYR248      0.0417
    171  CE2      -34.6330   17.9110    5.1970 C.ar  248  TYR248      0.0417
    172  CZ       -34.1410   16.6430    5.3500 C.ar  248  TYR248      0.1957
    173  OH       -34.9050   15.5830    4.9270 O.3   248  TYR248     -0.2866
    174  N        -42.9570    9.8060   -1.2870 N.3   285  ASP285     -0.1225
    175  CA       -44.0220   10.1970   -0.3360 C.3   285  ASP285      0.1805
    176  C        -43.8810   11.5960    0.2780 C.2   285  ASP285      0.2597
    177  O        -44.8770   12.2720    0.4930 O.2   285  ASP285     -0.2718
    178  CB       -44.1570    9.1620    0.8030 C.3   285  ASP285      0.1424
    179  CG       -42.7960    8.8440    1.5260 C.2   285  ASP285      0.3668
    180  OD1      -41.7430    8.6210    0.8560 O.co2 285  ASP285     -0.2456
    181  OD2      -42.7940    8.7750    2.7830 O.co2 285  ASP285     -0.2456
    182  N        -42.6590   12.0270    0.5630 N.am  286  ILE286     -0.1980
    183  CA       -42.4450   13.3320    1.1790 C.3   286  ILE286      0.1595
    184  C        -41.8410   14.3870    0.2310 C.2   286  ILE286      0.2287
    185  O        -41.2660   15.3810    0.6790 O.2   286  ILE286     -0.2864
    186  CB       -41.6090   13.1730    2.4640 C.3   286  ILE286      0.0276
    187  CG1      -40.1500   12.7810    2.1550 C.3   286  ILE286      0.0022
    188  CG2      -42.2720   12.1360    3.3610 C.3   286  ILE286      0.0022
    189  CD1      -39.3550   12.3430    3.3700 C.3   286  ILE286      0.0001
    190  N        -43.3230   17.9160    0.4560 N.3   289  PHE289     -0.1227
    191  CA       -42.9270   18.5910    1.6970 C.3   289  PHE289      0.1736
    192  C        -41.5560   19.2240    1.5410 C.2   289  PHE289      0.2595
    193  O        -41.3510   20.3480    1.9930 O.2   289  PHE289     -0.2718
    194  CB       -42.9320   17.6650    2.9180 C.3   289  PHE289      0.0547
    195  CG       -44.2180   16.9050    3.1190 C.ar  289  PHE289     -0.0202
    196  CD1      -45.4490   17.4490    2.7570 C.ar  289  PHE289     -0.0042
    197  CD2      -44.1970   15.6420    3.6960 C.ar  289  PHE289     -0.0042
    198  CE1      -46.6160   16.7460    2.9390 C.ar  289  PHE289     -0.0003
    199  CE2      -45.3760   14.9350    3.8830 C.ar  289  PHE289     -0.0003
    200  CZ       -46.5840   15.4910    3.5070 C.ar  289  PHE289     -0.0000
    201  N        -40.6350   18.5180    0.8880 N.am  290  HIS290     -0.1975
    202  CA       -39.2810   19.0310    0.6340 C.3   290  HIS290      0.1656
    203  C        -39.1310   20.0090   -0.5220 C.2   290  HIS290      0.2291
    204  O        -38.2310   20.8450   -0.4910 O.2   290  HIS290     -0.2864
    205  CB       -38.3210   17.8600    0.4310 C.3   290  HIS290      0.0771
    206  CG       -38.0260   17.0920    1.6940 C.ar  290  HIS290      0.0820
    207  ND1      -38.9360   16.3030    2.2870 N.ar  290  HIS290     -0.2267
    208  CD2      -36.8710   17.0210    2.4720 C.ar  290  HIS290      0.1154
    209  CE1      -38.3960   15.7550    3.3910 C.ar  290  HIS290      0.1986
    210  NE2      -37.1340   16.2010    3.5050 N.ar  290  HIS290     -0.2212
@<TRIPOS>BOND
     1   174   175    1
     2   203   204    2
     3   203   202    1
     4   175   176    1
     5   175   178    1
     6   184   185    2
     7   184   183    1
     8   176   177    2
     9   176   182   am
    10   205   202    1
    11   205   206    1
    12   190   191    1
    13   182   183    1
    14   202   201    1
    15   178   179    1
    16   180   179   ar
    17   201   192   am
    18   183   186    1
    19   179   181   ar
    20   192   191    1
    21   192   193    2
    22   206   207   ar
    23   206   208   ar
    24   191   194    1
    25   187   186    1
    26   187   189    1
    27   207   209   ar
    28   186   188    1
    29   208   210   ar
    30   196   198   ar
    31   196   195   ar
    32   194   195    1
    33   198   200   ar
    34   195   197   ar
    35   209   210   ar
    36   200   199   ar
    37   197   199   ar
    38     6     7    1
    39     6     5    1
    40     7     1    1
    41   173   172    1
    42     1     2    1
    43   171   172   ar
    44   171   169   ar
    45   153   151    1
    46   172   170   ar
    47     5     2    1
    48   169   167   ar
    49   152   151    1
    50    27    26    1
    51   170   168   ar
    52     2     3    1
    53   131   132   ar
    54   131   129   ar
    55   132   130   ar
    56   167   168   ar
    57   167   166    1
    58   151   150    1
    59   166   163    1
    60   129   126   ar
    61    24    26   ar
    62    24    22   ar
    63   130   128   ar
    64    26    25   ar
    65   150   147    1
    66   126   128   ar
    67   126   124   ar
    68     3     4    2
    69     3     8   am
    70   128   127   ar
    71    22    21   ar
    72   149   148    2
    73   163   164    1
    74   163   162    1
    75   147   148    1
    76   147   146    1
    77   124   123    1
    78   124   125   ar
    79   127   125   ar
    80    25    23   ar
    81     8     9    1
    82   123   120    1
    83   165   164    2
    84   162   156   am
    85   161   159   am
    86    21    23   ar
    87    21    20    1
    88   120   121    1
    89   120   119    1
    90   122   121    2
    91   146   143   am
    92    11    10    2
    93   160   159    2
    94     9    10    1
    95     9    12    1
    96    10    16   am
    97   159   158    1
    98   117   116    1
    99   144   143    2
   100   143   142    1
   101    20    17    1
   102   156   157    2
   103   156   155    1
   104   119   114   am
   105    17    16    1
   106    17    18    1
   107   118   116    1
   108    14    12    1
   109   145   142    1
   110    74    73    2
   111    13    12    1
   112    13    15    1
   113   154   155    1
   114    73    72    1
   115   109   107   ar
   116   109   110   ar
   117   115   114    2
   118   116   113    1
   119   114   113    1
   120   142   141    1
   121   155   158    1
   122   111   110    1
   123    28    18   am
   124    28    29    1
   125   107   105   ar
   126    18    19    2
   127    71    72    1
   128   141   135   am
   129   110   108   ar
   130    47    45   ar
   131   113   112    1
   132    32    29    1
   133    32    33    1
   134    72    75    1
   135    75    76    1
   136   133   134    1
   137   135   136    2
   138   135   134    1
   139    29    30    1
   140   112   102   am
   141    78    77   ar
   142    44    45    1
   143    44    41    1
   144    45    46   ar
   145   105   104    1
   146   105   106   ar
   147    33    35   ar
   148    33    34   ar
   149    31    30    2
   150    35    37   ar
   151   108   106   ar
   152    76    77    1
   153   103   102    2
   154   102   101    1
   155   134   137    1
   156    77    79   ar
   157   104   101    1
   158    34    36   ar
   159    37    38   ar
   160    40    41    1
   161    41    42    1
   162   101   100    1
   163   137   138    1
   164    36    38   ar
   165    38    39    1
   166   100    95   am
   167    98    97    1
   168    43    42    2
   169   138   139   ar
   170   138   140   ar
   171    95    94    1
   172    95    96    2
   173    97    94    1
   174    97    99    1
   175    94    93    1
   176    70    68   am
   177    69    68    2
   178    68    67    1
   179    51    50    2
   180    67    66    1
   181    87    85    1
   182    48    49    1
   183    50    49    1
   184    50    58   am
   185    59    58    1
   186    59    60    1
   187    52    49    1
   188    52    53    1
   189    62    60   am
   190    62    63    1
   191    54    53   ar
   192    54    56   ar
   193    86    85    1
   194    60    61    2
   195    66    63    1
   196    85    84    1
   197    64    63    1
   198    64    65    2
   199    53    55   ar
   200    56    57   ar
   201    92    89    1
   202    84    81    1
   203    55    57   ar
   204    81    80    1
   205    81    82    1
   206    89    90    1
   207    89    88    1
   208    90    91    2
   209    82    83    2
