@<TRIPOS>MOLECULE
tmp/4eg8B00.pdb
 95 90 0 0 0
SMALL
GASTEIGER

@<TRIPOS>ATOM
      1  N         39.1200    8.6780  -11.4590 N.3    19  TYR19      -0.1241
      2  CA        40.0970    8.7870  -12.5460 C.3    19  TYR19       0.1605
      3  C         40.0010    7.5740  -13.4530 C.2    19  TYR19       0.2264
      4  O         40.0780    6.4370  -12.9910 O.2    19  TYR19      -0.2867
      5  CB        41.5350    8.9480  -12.0050 C.3    19  TYR19       0.0534
      6  CG        42.5210    9.6330  -12.9560 C.ar   19  TYR19      -0.0201
      7  CD1       42.1210   10.7090  -13.7670 C.ar   19  TYR19      -0.0009
      8  CD2       43.8630    9.2360  -13.0170 C.ar   19  TYR19      -0.0009
      9  CE1       43.0100   11.3470  -14.6160 C.ar   19  TYR19       0.0417
     10  CE2       44.7650    9.8810  -13.8630 C.ar   19  TYR19       0.0417
     11  CZ        44.3360   10.9380  -14.6630 C.ar   19  TYR19       0.1957
     12  OH        45.2160   11.5960  -15.5190 O.3    19  TYR19      -0.2866
     13  N         36.8000   11.6240  -13.7690 N.3    56  ASP56      -0.1239
     14  CA        37.9250   12.5330  -14.0230 C.3    56  ASP56       0.1674
     15  C         38.5920   11.9730  -15.2700 C.2    56  ASP56       0.2266
     16  O         39.1120   10.8600  -15.2350 O.2    56  ASP56      -0.2867
     17  CB        38.8750   12.4640  -12.8150 C.3    56  ASP56       0.1410
     18  CG        39.9930   13.5040  -12.8390 C.2    56  ASP56       0.3668
     19  OD1       40.3340   14.0530  -13.9050 O.co2  56  ASP56      -0.2456
     20  OD2       40.5480   13.7610  -11.7520 O.co2  56  ASP56      -0.2456
     21  N         40.8220   13.7870  -17.7970 N.3    58  HIS58      -0.1226
     22  CA        41.9610   14.4780  -18.4270 C.3    58  HIS58       0.1752
     23  C         43.3040   14.1110  -17.8670 C.2    58  HIS58       0.2596
     24  O         43.4020   13.4980  -16.8120 O.2    58  HIS58      -0.2718
     25  CB        41.7770   15.9770  -18.2870 C.3    58  HIS58       0.0759
     26  CG        40.6240   16.5190  -19.0870 C.ar   58  HIS58       0.0818
     27  ND1       39.6970   17.3250  -18.5570 N.ar   58  HIS58      -0.2268
     28  CD2       40.2680   16.3310  -20.4100 C.ar   58  HIS58       0.1154
     29  CE1       38.7950   17.6470  -19.5000 C.ar   58  HIS58       0.1986
     30  NE2       39.1430   17.0370  -20.6290 N.ar   58  HIS58      -0.2212
     31  N         44.3640   14.4950  -18.5720 N.am   59  GLY59      -0.1957
     32  CA        45.7200   14.3430  -18.0570 C.3    59  GLY59       0.1869
     33  C         46.6070   13.3930  -18.8390 C.2    59  GLY59       0.2309
     34  O         46.1290   12.6220  -19.6690 O.2    59  GLY59      -0.2863
     35  N         54.2650   14.1770  -11.8070 N.3   137  GLU137     -0.1245
     36  CA        53.5380   15.4120  -12.1530 C.3   137  GLU137      0.1567
     37  C         53.6840   16.4610  -11.0350 C.2   137  GLU137      0.2260
     38  O         52.7440   17.2100  -10.7470 O.2   137  GLU137     -0.2867
     39  CB        52.0540   15.1300  -12.4460 C.3   137  GLU137      0.0388
     40  CG        51.7880   13.9350  -13.3520 C.3   137  GLU137      0.1160
     41  CD        50.3110   13.6050  -13.4920 C.2   137  GLU137      0.3649
     42  OE1       49.4810   14.5240  -13.4580 O.co2 137  GLU137     -0.2457
     43  OE2       49.9750   12.4170  -13.6490 O.co2 137  GLU137     -0.2457
     44  N         51.0350   17.2070  -20.8780 N.3   222  LEU222     -0.1245
     45  CA        49.7460   16.5170  -20.7880 C.3   222  LEU222      0.1561
     46  C         49.3040   15.8670  -22.1020 C.2   222  LEU222      0.2260
     47  O         48.1590   15.4300  -22.2350 O.2   222  LEU222     -0.2867
     48  CB        48.6700   17.5090  -20.3600 C.3   222  LEU222      0.0270
     49  CG        48.9060   18.2580  -19.0540 C.3   222  LEU222      0.0019
     50  CD1       47.6380   18.9930  -18.6450 C.3   222  LEU222      0.0001
     51  CD2       49.3460   17.3010  -17.9550 C.3   222  LEU222      0.0001
     52  N         43.7830   17.9160  -21.9810 N.3   226  ALA226     -0.1245
     53  CA        43.3000   18.6650  -20.8200 C.3   226  ALA226      0.1562
     54  C         42.5190   19.8790  -21.3260 C.2   226  ALA226      0.2260
     55  O         42.3720   20.0470  -22.5320 O.2   226  ALA226     -0.2867
     56  CB        44.4720   19.1010  -19.9480 C.3   226  ALA226      0.0290
     57  N         44.6910   23.5970  -17.9240 N.3   236  VAL236     -0.1231
     58  CA        44.2390   23.5670  -16.5530 C.3   236  VAL236      0.1692
     59  C         44.5860   22.1850  -15.9780 C.2   236  VAL236      0.2592
     60  O         44.2140   21.1500  -16.5380 O.2   236  VAL236     -0.2718
     61  CB        42.7310   23.8170  -16.4570 C.3   236  VAL236      0.0266
     62  CG1       42.3080   23.8640  -14.9990 C.3   236  VAL236      0.0020
     63  CG2       42.3630   25.1000  -17.1710 C.3   236  VAL236      0.0020
     64  N         45.3250   22.1750  -14.8720 N.am  237  TYR237     -0.1962
     65  CA        45.6660   20.9290  -14.1860 C.3   237  TYR237      0.1771
     66  C         44.4590   20.4000  -13.3680 C.2   237  TYR237      0.2619
     67  O         43.3850   21.0180  -13.3670 O.2   237  TYR237     -0.2715
     68  CB        46.9000   21.1620  -13.3150 C.3   237  TYR237      0.0574
     69  CG        47.5980   19.9070  -12.8500 C.ar  237  TYR237     -0.0198
     70  CD1       47.9730   18.9150  -13.7490 C.ar  237  TYR237     -0.0009
     71  CD2       47.8840   19.7130  -11.5000 C.ar  237  TYR237     -0.0009
     72  CE1       48.5950   17.7630  -13.3160 C.ar  237  TYR237      0.0417
     73  CE2       48.5200   18.5680  -11.0590 C.ar  237  TYR237      0.0417
     74  CZ        48.8730   17.5980  -11.9660 C.ar  237  TYR237      0.1957
     75  OH        49.5030   16.4610  -11.5150 O.3   237  TYR237     -0.2866
     76  N         44.6450   19.2640  -12.6910 N.am  238  VAL238     -0.1977
     77  CA        43.5710   18.5400  -11.9860 C.3   238  VAL238      0.1596
     78  C         42.7320   19.3690  -10.9960 C.2   238  VAL238      0.2287
     79  O         41.5190   19.1720  -10.8990 O.2   238  VAL238     -0.2864
     80  CB        44.1440   17.2870  -11.2530 C.3   238  VAL238      0.0276
     81  CG1       45.0230   17.6830  -10.0750 C.3   238  VAL238      0.0022
     82  CG2       43.0270   16.3590  -10.8000 C.3   238  VAL238      0.0022
     83  N         40.2240   21.7330  -12.5990 N.3   241  ASP241     -0.1225
     84  CA        39.4380   20.9370  -13.5340 C.3   241  ASP241      0.1805
     85  C         38.5210   19.9870  -12.7550 C.2   241  ASP241      0.2597
     86  O         37.3040   20.0830  -12.8550 O.2   241  ASP241     -0.2718
     87  CB        40.3660   20.1520  -14.4820 C.3   241  ASP241      0.1424
     88  CG        39.6060   19.2350  -15.4590 C.2   241  ASP241      0.3668
     89  OD1       38.3470   19.2180  -15.4580 O.co2 241  ASP241     -0.2456
     90  OD2       40.2940   18.5270  -16.2360 O.co2 241  ASP241     -0.2456
     91  N         39.1040   19.0730  -11.9840 N.am  242  ALA242     -0.1979
     92  CA        38.3270   18.0060  -11.3430 C.3   242  ALA242      0.1597
     93  C         37.4450   18.5050  -10.1800 C.2   242  ALA242      0.2287
     94  O         36.2790   18.1410  -10.0960 O.2   242  ALA242     -0.2864
     95  CB        39.2390   16.8750  -10.8850 C.3   242  ALA242      0.0319
@<TRIPOS>BOND
     1    55    54    2
     2    47    46    2
     3    46    45    1
     4    52    53    1
     5    54    53    1
     6    44    45    1
     7    53    56    1
     8    45    48    1
     9    30    28   ar
    10    30    29   ar
    11    28    26   ar
    12    48    49    1
    13    34    33    2
    14    29    27   ar
    15    26    27   ar
    16    26    25    1
    17    49    50    1
    18    49    51    1
    19    33    32    1
    20    31    32    1
    21    31    23   am
    22    22    25    1
    23    22    23    1
    24    22    21    1
    25    57    58    1
    26    23    24    2
    27    63    61    1
    28    58    61    1
    29    58    59    1
    30    60    59    2
    31    61    62    1
    32    90    88   ar
    33    59    64   am
    34    12    11    1
    35    88    89   ar
    36    88    87    1
    37    15    16    2
    38    15    14    1
    39    64    65    1
    40    11     9   ar
    41    11    10   ar
    42     9     7   ar
    43    87    84    1
    44    65    66    1
    45    65    68    1
    46    14    13    1
    47    14    17    1
    48    19    18   ar
    49    10     8   ar
    50     7     6   ar
    51    70    72   ar
    52    70    69   ar
    53    43    41   ar
    54    84    85    1
    55    84    83    1
    56    41    42   ar
    57    41    40    1
    58     3     4    2
    59     3     2    1
    60    66    67    2
    61    66    76   am
    62    40    39    1
    63    72    74   ar
    64    68    69    1
    65     8     6   ar
    66     6     5    1
    67    86    85    2
    68    69    71   ar
    69    18    17    1
    70    18    20   ar
    71    85    91   am
    72    76    77    1
    73     2     5    1
    74     2     1    1
    75    39    36    1
    76    36    35    1
    77    36    37    1
    78    77    80    1
    79    77    78    1
    80    91    92    1
    81    74    75    1
    82    74    73   ar
    83    71    73   ar
    84    92    95    1
    85    92    93    1
    86    80    82    1
    87    80    81    1
    88    37    38    2
    89    78    79    2
    90    93    94    2
