@<TRIPOS>MOLECULE
tmp/4egaB00.pdb
 207 204 0 0 0
SMALL
GASTEIGER

@<TRIPOS>ATOM
      1  N        -32.9560   11.3510    5.1720 N.3    16  PRO16      -0.2102
      2  CA       -34.0100   11.8990    6.0030 C.3    16  PRO16       0.1504
      3  C        -33.8070   11.4070    7.4160 C.2    16  PRO16       0.2575
      4  O        -33.1910   10.3590    7.6020 O.2    16  PRO16      -0.2718
      5  CB       -35.2910   11.2860    5.4130 C.3    16  PRO16       0.0282
      6  CG       -34.8870   10.5440    4.1790 C.3    16  PRO16       0.0208
      7  CD       -33.4330   10.2190    4.3650 C.3    16  PRO16       0.0893
      8  N        -34.2910   12.1680    8.3970 N.am   17  ILE17      -0.1980
      9  CA       -34.3740   11.6880    9.7630 C.3    17  ILE17       0.1595
     10  C        -35.6850   10.8830    9.8960 C.2    17  ILE17       0.2287
     11  O        -36.7160   11.2700    9.3650 O.2    17  ILE17      -0.2864
     12  CB       -34.3050   12.8300   10.8030 C.3    17  ILE17       0.0276
     13  CG1      -35.3350   13.9320   10.5020 C.3    17  ILE17       0.0022
     14  CG2      -32.9030   13.4170   10.8830 C.3    17  ILE17       0.0022
     15  CD1      -35.8240   14.6670   11.7340 C.3    17  ILE17       0.0001
     16  N        -38.7390    8.3410   11.7290 N.3    19  TYR19      -0.1241
     17  CA       -39.6460    8.3770   12.8780 C.3    19  TYR19       0.1605
     18  C        -39.4920    7.1750   13.8200 C.2    19  TYR19       0.2264
     19  O        -39.5130    6.0120   13.3960 O.2    19  TYR19      -0.2867
     20  CB       -41.1010    8.5030   12.4170 C.3    19  TYR19       0.0534
     21  CG       -41.9780    9.2710   13.3770 C.ar   19  TYR19      -0.0201
     22  CD1      -41.5330   10.4600   13.9520 C.ar   19  TYR19      -0.0009
     23  CD2      -43.2540    8.8330   13.6920 C.ar   19  TYR19      -0.0009
     24  CE1      -42.3240   11.1710   14.8270 C.ar   19  TYR19       0.0417
     25  CE2      -44.0580    9.5500   14.5680 C.ar   19  TYR19       0.0417
     26  CZ       -43.5870   10.7190   15.1330 C.ar   19  TYR19       0.1957
     27  OH       -44.3690   11.4430   16.0090 O.3    19  TYR19      -0.2866
     28  N        -36.3910   11.5200   14.0140 N.3    56  ASP56      -0.1239
     29  CA       -37.4580   12.5000   14.2180 C.3    56  ASP56       0.1674
     30  C        -38.2060   11.9710   15.4310 C.2    56  ASP56       0.2266
     31  O        -38.8600   10.9410   15.3370 O.2    56  ASP56      -0.2867
     32  CB       -38.3410   12.5130   12.9550 C.3    56  ASP56       0.1410
     33  CG       -39.5790   13.3910   13.0740 C.2    56  ASP56       0.3668
     34  OD1      -39.7320   14.1300   14.0720 O.co2  56  ASP56      -0.2456
     35  OD2      -40.4150   13.3390   12.1420 O.co2  56  ASP56      -0.2456
     36  N        -40.3190   13.6580   17.9890 N.3    58  HIS58      -0.1226
     37  CA       -41.4550   14.3340   18.6200 C.3    58  HIS58       0.1752
     38  C        -42.7980   13.9400   18.0500 C.2    58  HIS58       0.2597
     39  O        -42.8880   13.3970   16.9580 O.2    58  HIS58      -0.2718
     40  CB       -41.2940   15.8470   18.5130 C.3    58  HIS58       0.0759
     41  CG       -40.1190   16.3950   19.2820 C.ar   58  HIS58       0.0818
     42  ND1      -39.2680   17.2870   18.7560 N.ar   58  HIS58      -0.2268
     43  CD2      -39.6720   16.1420   20.5660 C.ar   58  HIS58       0.1154
     44  CE1      -38.3340   17.6010   19.6590 C.ar   58  HIS58       0.1986
     45  NE2      -38.5720   16.8920   20.7640 N.ar   58  HIS58      -0.2212
     46  N        -43.8640   14.2190   18.7950 N.am   59  GLY59      -0.1942
     47  CA       -45.2170   14.0400   18.2820 C.3    59  GLY59       0.2014
     48  C        -46.1290   13.1520   19.1000 C.2    59  GLY59       0.2639
     49  O        -45.7040   12.3780   19.9430 O.2    59  GLY59      -0.2714
     50  N        -47.4090   13.2730   18.8140 N.am   60  GLN60      -0.1963
     51  CA       -48.4430   12.5270   19.5110 C.3    60  GLN60       0.1733
     52  C        -48.2530   11.0010   19.4790 C.2    60  GLN60       0.2616
     53  O        -48.4940   10.3180   20.4840 O.2    60  GLN60      -0.2715
     54  CB       -49.8010   12.9060   18.9180 C.3    60  GLN60       0.0408
     55  CG       -50.9530   12.0410   19.3910 C.3    60  GLN60       0.0908
     56  CD       -52.2920   12.5490   18.9080 C.2    60  GLN60       0.2608
     57  OE1      -52.3600   13.4250   18.0350 O.2    60  GLN60      -0.2717
     58  NE2      -53.3730   12.0040   19.4770 N.am   60  GLN60      -0.0878
     59  N        -47.8350   10.4780   18.3260 N.am   61  LYS61      -0.1977
     60  CA       -47.6860    9.0320   18.1320 C.3    61  LYS61       0.1596
     61  C        -46.5210    8.4300   18.9320 C.2    61  LYS61       0.2287
     62  O        -46.6290    7.3180   19.4420 O.2    61  LYS61      -0.2864
     63  CB       -47.4960    8.7080   16.6510 C.3    61  LYS61       0.0298
     64  CG       -48.6750    9.0460   15.7580 C.3    61  LYS61       0.0038
     65  CD       -48.3830    8.6450   14.3110 C.3    61  LYS61       0.0206
     66  CE       -49.0900    9.5360   13.2910 C.3    61  LYS61       0.1093
     67  NZ       -48.4920   10.9040   13.1780 N.3    61  LYS61      -0.1314
     68  N        -55.0610   15.0480   13.1810 N.3   136  GLU136     -0.1245
     69  CA       -54.3300   16.3220   13.3440 C.3   136  GLU136      0.1567
     70  C        -54.3840   17.1910   12.0850 C.2   136  GLU136      0.2260
     71  O        -53.3850   17.8060   11.6990 O.2   136  GLU136     -0.2867
     72  CB       -52.8800   16.0890   13.7740 C.3   136  GLU136      0.0388
     73  CG       -52.7590   15.4760   15.1540 C.3   136  GLU136      0.1160
     74  CD       -51.3270   15.3950   15.6350 C.2   136  GLU136      0.3649
     75  OE1      -50.4410   15.0430   14.8330 O.co2 136  GLU136     -0.2457
     76  OE2      -51.0900   15.6800   16.8220 O.co2 136  GLU136     -0.2457
     77  N        -50.3050   17.5310   21.0070 N.3   216  LEU216     -0.1245
     78  CA       -49.0240   16.8230   20.8680 C.3   216  LEU216      0.1561
     79  C        -48.6010   16.0730   22.1390 C.2   216  LEU216      0.2260
     80  O        -47.4450   15.6730   22.2650 O.2   216  LEU216     -0.2867
     81  CB       -47.9020   17.8000   20.4810 C.3   216  LEU216      0.0270
     82  CG       -48.0220   18.5910   19.1760 C.3   216  LEU216      0.0019
     83  CD1      -46.6760   19.1880   18.7840 C.3   216  LEU216      0.0001
     84  CD2      -48.5530   17.7080   18.0580 C.3   216  LEU216      0.0001
     85  N        -42.8290   17.8430   22.2120 N.3   220  ALA220     -0.1245
     86  CA       -42.5150   18.6880   21.0680 C.3   220  ALA220      0.1562
     87  C        -41.7270   19.8860   21.5780 C.2   220  ALA220      0.2260
     88  O        -41.4580   19.9780   22.7790 O.2   220  ALA220     -0.2867
     89  CB       -43.7940   19.1520   20.3770 C.3   220  ALA220      0.0290
     90  N        -43.9590   23.7460   18.1630 N.3   230  VAL230     -0.1231
     91  CA       -43.5390   23.6670   16.7640 C.3   230  VAL230      0.1692
     92  C        -43.8340   22.2790   16.1890 C.2   230  VAL230      0.2592
     93  O        -43.2680   21.2660   16.6350 O.2   230  VAL230     -0.2718
     94  CB       -42.0410   23.9560   16.5940 C.3   230  VAL230      0.0266
     95  CG1      -41.6640   23.8940   15.1180 C.3   230  VAL230      0.0020
     96  CG2      -41.6820   25.3100   17.2040 C.3   230  VAL230      0.0020
     97  N        -44.7250   22.2500   15.1960 N.am  231  TYR231     -0.1962
     98  CA       -45.1670   21.0080   14.5410 C.3   231  TYR231      0.1771
     99  C        -44.0730   20.4660   13.5960 C.2   231  TYR231      0.2619
    100  O        -42.9860   21.0330   13.5200 O.2   231  TYR231     -0.2715
    101  CB       -46.4960   21.2750   13.8150 C.3   231  TYR231      0.0574
    102  CG       -47.2410   20.0600   13.3230 C.ar  231  TYR231     -0.0198
    103  CD1      -47.4790   18.9750   14.1490 C.ar  231  TYR231     -0.0009
    104  CD2      -47.7260   20.0100   12.0250 C.ar  231  TYR231     -0.0009
    105  CE1      -48.1660   17.8650   13.6900 C.ar  231  TYR231      0.0417
    106  CE2      -48.4180   18.9100   11.5520 C.ar  231  TYR231      0.0417
    107  CZ       -48.6330   17.8390   12.3860 C.ar  231  TYR231      0.1957
    108  OH       -49.3190   16.7470   11.9040 O.3   231  TYR231     -0.2866
    109  N        -44.3540   19.3770   12.8880 N.am  232  VAL232     -0.1963
    110  CA       -43.3160   18.6110   12.1960 C.3   232  VAL232      0.1727
    111  C        -42.4360   19.3980   11.2130 C.2   232  VAL232      0.2616
    112  O        -41.2210   19.1570   11.1130 O.2   232  VAL232     -0.2715
    113  CB       -43.9380   17.4370   11.4290 C.3   232  VAL232      0.0290
    114  CG1      -44.6620   17.9370   10.1830 C.3   232  VAL232      0.0023
    115  CG2      -42.8730   16.4170   11.0740 C.3   232  VAL232      0.0023
    116  N        -43.0460   20.3420   10.5030 N.am  233  TRP233     -0.1974
    117  CA       -42.3820   21.0030    9.3800 C.3   233  TRP233      0.1640
    118  C        -41.1260   21.6980    9.8180 C.2   233  TRP233      0.2290
    119  O        -40.0370   21.3390    9.3750 O.2   233  TRP233     -0.2864
    120  CB       -43.3220   21.9620    8.6450 C.3   233  TRP233      0.0576
    121  CG       -44.7230   21.4220    8.4640 C.ar  233  TRP233      0.0006
    122  CD1      -45.8950   21.9430    8.9870 C.ar  233  TRP233      0.0946
    123  CD2      -45.1370   20.2140    7.7470 C.ar  233  TRP233      0.0152
    124  NE1      -46.9740   21.1770    8.6300 N.ar  233  TRP233     -0.2442
    125  CE2      -46.5900   20.1320    7.8830 C.ar  233  TRP233      0.0810
    126  CE3      -44.4810   19.2450    7.0180 C.ar  233  TRP233      0.0012
    127  CZ2      -47.3290   19.1060    7.3140 C.ar  233  TRP233      0.0191
    128  CZ3      -45.2380   18.2130    6.4350 C.ar  233  TRP233      0.0001
    129  CH2      -46.6270   18.1480    6.5880 C.ar  233  TRP233      0.0015
    130  N        -39.7140   21.5400   12.6350 N.3   235  ASP235     -0.1225
    131  CA       -38.9490   20.6810   13.5330 C.3   235  ASP235      0.1805
    132  C        -38.0520   19.7490   12.7240 C.2   235  ASP235      0.2598
    133  O        -36.8410   19.8610   12.7820 O.2   235  ASP235     -0.2718
    134  CB       -39.8880   19.8730   14.4510 C.3   235  ASP235      0.1424
    135  CG       -39.1310   19.0590   15.5090 C.2   235  ASP235      0.3668
    136  OD1      -37.8850   18.9980   15.4500 O.co2 235  ASP235     -0.2456
    137  OD2      -39.7770   18.4890   16.4100 O.co2 235  ASP235     -0.2456
    138  N        -38.6610   18.8430   11.9700 N.am  236  ALA236     -0.1966
    139  CA       -37.9370   17.7980   11.2580 C.3   236  ALA236      0.1728
    140  C        -36.9600   18.3680   10.2200 C.2   236  ALA236      0.2616
    141  O        -35.7570   18.0930   10.2780 O.2   236  ALA236     -0.2715
    142  CB       -38.9270   16.8410   10.5870 C.3   236  ALA236      0.0334
    143  N        -37.4840   19.1680    9.2850 N.am  237  LEU237     -0.1977
    144  CA       -36.6950   19.6820    8.1690 C.3   237  LEU237      0.1596
    145  C        -35.4530   20.4210    8.6490 C.2   237  LEU237      0.2287
    146  O        -34.4070   20.3430    8.0160 O.2   237  LEU237     -0.2864
    147  CB       -37.5390   20.5710    7.2470 C.3   237  LEU237      0.0297
    148  CG       -38.5810   19.7870    6.4250 C.3   237  LEU237      0.0022
    149  CD1      -39.7240   20.6640    5.9300 C.3   237  LEU237      0.0001
    150  CD2      -37.9810   19.0300    5.2500 C.3   237  LEU237      0.0001
    151  N        -33.4480   19.8630   10.9520 N.3   239  ASN239     -0.1225
    152  CA       -32.3380   19.0070   11.3360 C.3   239  ASN239      0.1785
    153  C        -31.1450   19.2130   10.4070 C.2   239  ASN239      0.2597
    154  O        -29.9750   19.1380   10.8240 O.2   239  ASN239     -0.2718
    155  CB       -32.7610   17.5310   11.3170 C.3   239  ASN239      0.1169
    156  CG       -32.5770   16.8790    9.9590 C.2   239  ASN239      0.2627
    157  OD1      -31.4910   16.3870    9.6410 O.2   239  ASN239     -0.2716
    158  ND2      -33.6410   16.8660    9.1520 N.am  239  ASN239     -0.0877
    159  N        -31.4430   19.4730    9.1400 N.am  240  TYR240     -0.1976
    160  CA       -30.3990   19.6700    8.1580 C.3   240  TYR240      0.1639
    161  C        -29.5720   20.8990    8.4960 C.2   240  TYR240      0.2290
    162  O        -28.3590   20.8920    8.3360 O.2   240  TYR240     -0.2864
    163  CB       -31.0060   19.8120    6.7720 C.3   240  TYR240      0.0560
    164  CG       -31.8050   18.6210    6.3200 C.ar  240  TYR240     -0.0198
    165  CD1      -31.3660   17.3220    6.5500 C.ar  240  TYR240     -0.0009
    166  CD2      -32.9880   18.7890    5.6140 C.ar  240  TYR240     -0.0009
    167  CE1      -32.1030   16.2290    6.1100 C.ar  240  TYR240      0.0417
    168  CE2      -33.7120   17.7010    5.1600 C.ar  240  TYR240      0.0417
    169  CZ       -33.2630   16.4280    5.4150 C.ar  240  TYR240      0.1957
    170  OH       -33.9900   15.3640    4.9760 O.3   240  TYR240     -0.2866
    171  N        -42.1880    9.8530   -1.1200 N.3   277  ASP277     -0.1225
    172  CA       -43.2640   10.2240   -0.1890 C.3   277  ASP277      0.1805
    173  C        -43.1130   11.6210    0.4280 C.2   277  ASP277      0.2597
    174  O        -44.1070   12.2720    0.7450 O.2   277  ASP277     -0.2718
    175  CB       -43.3900    9.1710    0.9310 C.3   277  ASP277      0.1424
    176  CG       -42.0200    8.7700    1.5530 C.2   277  ASP277      0.3668
    177  OD1      -41.0710    8.4390    0.8000 O.co2 277  ASP277     -0.2456
    178  OD2      -41.9030    8.7560    2.8030 O.co2 277  ASP277     -0.2456
    179  N        -41.8750   12.0840    0.5850 N.am  278  ILE278     -0.1980
    180  CA       -41.6070   13.3570    1.2590 C.3   278  ILE278      0.1595
    181  C        -40.9580   14.4080    0.3410 C.2   278  ILE278      0.2287
    182  O        -40.2920   15.3490    0.8100 O.2   278  ILE278     -0.2864
    183  CB       -40.8060   13.1100    2.5450 C.3   278  ILE278      0.0276
    184  CG1      -39.4010   12.5710    2.2420 C.3   278  ILE278      0.0022
    185  CG2      -41.5680   12.1170    3.4080 C.3   278  ILE278      0.0022
    186  CD1      -38.5870   12.2610    3.4890 C.3   278  ILE278      0.0001
    187  N        -42.4020   17.9990    0.6830 N.3   281  PHE281     -0.1227
    188  CA       -41.9130   18.7010    1.8690 C.3   281  PHE281      0.1736
    189  C        -40.5090   19.2580    1.6590 C.2   281  PHE281      0.2595
    190  O        -40.2260   20.3750    2.0990 O.2   281  PHE281     -0.2718
    191  CB       -41.9490   17.7840    3.1000 C.3   281  PHE281      0.0547
    192  CG       -43.2530   17.0440    3.2750 C.ar  281  PHE281     -0.0202
    193  CD1      -44.4670   17.6410    2.9530 C.ar  281  PHE281     -0.0042
    194  CD2      -43.2660   15.7550    3.7790 C.ar  281  PHE281     -0.0042
    195  CE1      -45.6580   16.9620    3.1140 C.ar  281  PHE281     -0.0003
    196  CE2      -44.4650   15.0720    3.9390 C.ar  281  PHE281     -0.0003
    197  CZ       -45.6590   15.6790    3.6110 C.ar  281  PHE281     -0.0000
    198  N        -39.6400   18.4940    0.9890 N.am  282  HIS282     -0.1975
    199  CA       -38.2510   18.9320    0.7260 C.3   282  HIS282      0.1656
    200  C        -38.1000   19.9130   -0.4400 C.2   282  HIS282      0.2291
    201  O        -37.1550   20.7190   -0.4800 O.2   282  HIS282     -0.2864
    202  CB       -37.3550   17.7100    0.5250 C.3   282  HIS282      0.0771
    203  CG       -37.0840   16.9480    1.7940 C.ar  282  HIS282      0.0820
    204  ND1      -38.0100   16.1830    2.3840 N.ar  282  HIS282     -0.2267
    205  CD2      -35.9420   16.8630    2.5830 C.ar  282  HIS282      0.1154
    206  CE1      -37.4940   15.6280    3.5000 C.ar  282  HIS282      0.1986
    207  NE2      -36.2290   16.0540    3.6260 N.ar  282  HIS282     -0.2212
@<TRIPOS>BOND
     1   171   172    1
     2   201   200    2
     3   200   199    1
     4   172   173    1
     5   172   175    1
     6   181   182    2
     7   181   180    1
     8   173   179   am
     9   173   174    2
    10   202   199    1
    11   202   203    1
    12   179   180    1
    13   187   188    1
    14   199   198    1
    15   177   176   ar
    16   175   176    1
    17   198   189   am
    18   180   183    1
    19   176   178   ar
    20   189   188    1
    21   189   190    2
    22   203   204   ar
    23   203   205   ar
    24   188   191    1
    25   184   183    1
    26   184   186    1
    27   204   206   ar
    28   183   185    1
    29   205   207   ar
    30   193   195   ar
    31   193   192   ar
    32   191   192    1
    33   195   197   ar
    34   192   194   ar
    35   206   207   ar
    36   197   196   ar
    37   194   196   ar
    38     6     7    1
    39     6     5    1
    40     7     1    1
    41   170   169    1
    42   168   169   ar
    43   168   166   ar
    44     1     2    1
    45   150   148    1
    46     5     2    1
    47   169   167   ar
    48   166   164   ar
    49   149   148    1
    50     2     3    1
    51   167   165   ar
    52   164   165   ar
    53   164   163    1
    54   148   147    1
    55   128   129   ar
    56   128   126   ar
    57   129   127   ar
    58   163   160    1
    59   126   123   ar
    60   147   144    1
    61   127   125   ar
    62     3     4    2
    63     3     8   am
    64   123   125   ar
    65   123   121   ar
    66   125   124   ar
    67   146   145    2
    68   160   161    1
    69   160   159    1
    70   144   145    1
    71   144   143    1
    72   162   161    2
    73     8     9    1
    74   121   120    1
    75   121   122   ar
    76   124   122   ar
    77   120   117    1
    78   159   153   am
    79   158   156   am
    80   143   140   am
    81    11    10    2
    82   119   118    2
    83   117   118    1
    84   117   116    1
    85   157   156    2
    86     9    10    1
    87     9    12    1
    88   156   155    1
    89   114   113    1
    90   140   141    2
    91   140   139    1
    92   153   154    2
    93   153   152    1
    94    13    12    1
    95    13    15    1
    96   116   111   am
    97   142   139    1
    98    12    14    1
    99   151   152    1
   100   115   113    1
   101   112   111    2
   102   111   110    1
   103   139   138    1
   104   155   152    1
   105   113   110    1
   106   106   104   ar
   107   106   107   ar
   108    71    70    2
   109    16    17    1
   110   108   107    1
   111   138   132   am
   112   104   102   ar
   113    70    69    1
   114    35    33   ar
   115   110   109    1
   116   107   105   ar
   117    20    17    1
   118    20    21    1
   119   130   131    1
   120   132   133    2
   121   132   131    1
   122    17    18    1
   123   109    99   am
   124    32    33    1
   125    32    29    1
   126    33    34   ar
   127    67    66    1
   128    68    69    1
   129    66    65    1
   130   102   101    1
   131   102   103   ar
   132    69    72    1
   133    21    23   ar
   134    21    22   ar
   135    19    18    2
   136   100    99    2
   137   131   134    1
   138    99    98    1
   139   105   103   ar
   140    23    25   ar
   141    72    73    1
   142   101    98    1
   143    22    24   ar
   144    28    29    1
   145    29    30    1
   146    65    64    1
   147   134   135    1
   148    98    97    1
   149    25    26   ar
   150    24    26   ar
   151    75    74   ar
   152    95    94    1
   153    26    27    1
   154    73    74    1
   155    97    92   am
   156    31    30    2
   157   136   135   ar
   158   135   137   ar
   159    74    76   ar
   160    64    63    1
   161    92    93    2
   162    92    91    1
   163    94    91    1
   164    94    96    1
   165    63    60    1
   166    91    90    1
   167    39    38    2
   168    36    37    1
   169    57    56    2
   170    38    37    1
   171    38    46   am
   172    84    82    1
   173    60    59    1
   174    60    61    1
   175    47    46    1
   176    47    48    1
   177    59    52   am
   178    40    37    1
   179    40    41    1
   180    42    41   ar
   181    42    44   ar
   182    83    82    1
   183    50    48   am
   184    50    51    1
   185    56    55    1
   186    56    58   am
   187    54    55    1
   188    54    51    1
   189    61    62    2
   190    48    49    2
   191    82    81    1
   192    41    43   ar
   193    52    51    1
   194    52    53    2
   195    44    45   ar
   196    89    86    1
   197    81    78    1
   198    43    45   ar
   199    78    77    1
   200    78    79    1
   201    86    87    1
   202    86    85    1
   203    87    88    2
   204    79    80    2
