@<TRIPOS>MOLECULE
tmp/4egcA00.pdb
 187 182 0 0 0
SMALL
GASTEIGER

@<TRIPOS>ATOM
      1  N         21.6300   67.8580   40.2500 N.3    12  ASN12      -0.1240
      2  CA        22.8660   68.5190   40.6930 C.3    12  ASN12       0.1653
      3  C         24.1020   68.1850   39.8550 C.2    12  ASN12       0.2266
      4  O         24.2050   67.1030   39.2770 O.2    12  ASN12      -0.2867
      5  CB        23.1650   68.2420   42.1670 C.3    12  ASN12       0.1155
      6  CG        23.9820   69.3580   42.8070 C.2    12  ASN12       0.2627
      7  OD1       23.7760   70.5340   42.5020 O.2    12  ASN12      -0.2716
      8  ND2       24.9130   69.0000   43.6820 N.am   12  ASN12      -0.0877
      9  N         27.0450   67.3560   40.5810 N.3    14  ASP14      -0.1225
     10  CA        27.9090   66.2620   41.0110 C.3    14  ASP14       0.1805
     11  C         27.3110   64.8910   40.6720 C.2    14  ASP14       0.2597
     12  O         27.9530   63.8720   40.9000 O.2    14  ASP14      -0.2718
     13  CB        28.3040   66.3750   42.5030 C.3    14  ASP14       0.1424
     14  CG        27.0960   66.4740   43.4580 C.2    14  ASP14       0.3668
     15  OD1       25.9320   66.3650   43.0120 O.co2  14  ASP14      -0.2456
     16  OD2       27.3160   66.6600   44.6840 O.co2  14  ASP14      -0.2456
     17  N         26.0950   64.8710   40.1170 N.am   15  LYS15      -0.1979
     18  CA        25.4290   63.6100   39.7620 C.3    15  LYS15       0.1596
     19  C         25.6430   63.2250   38.2910 C.2    15  LYS15       0.2287
     20  O         26.2010   63.9960   37.5220 O.2    15  LYS15      -0.2864
     21  CB        23.9210   63.6650   40.0530 C.3    15  LYS15       0.0298
     22  CG        23.5280   64.2740   41.3970 C.3    15  LYS15       0.0038
     23  CD        24.1300   63.5220   42.5660 C.3    15  LYS15       0.0206
     24  CE        23.7520   64.1970   43.9070 C.3    15  LYS15       0.1093
     25  NZ        24.3960   63.4890   45.0270 N.3    15  LYS15      -0.1314
     26  N         18.9670   73.6530   44.5120 N.3    44  GLU44      -0.1245
     27  CA        17.9840   73.4400   45.5700 C.3    44  GLU44       0.1567
     28  C         17.2540   74.7330   45.9210 C.2    44  GLU44       0.2260
     29  O         16.1260   74.7050   46.4060 O.2    44  GLU44      -0.2867
     30  CB        18.6320   72.8150   46.8150 C.3    44  GLU44       0.0388
     31  CG        19.4450   73.7630   47.6950 C.3    44  GLU44       0.1160
     32  CD        20.8570   74.0350   47.1760 C.2    44  GLU44       0.3649
     33  OE1       21.1420   73.8010   45.9750 O.co2  44  GLU44      -0.2457
     34  OE2       21.6950   74.4760   47.9910 O.co2  44  GLU44      -0.2457
     35  N         16.6720   66.1100   43.8100 N.3    62  TRP62      -0.1227
     36  CA        17.5410   66.4760   44.9260 C.3    62  TRP62       0.1737
     37  C         17.3710   65.4390   46.0250 C.2    62  TRP62       0.2595
     38  O         16.4270   64.6480   45.9850 O.2    62  TRP62      -0.2718
     39  CB        17.1730   67.8640   45.4720 C.3    62  TRP62       0.0564
     40  CG        18.2330   68.4270   46.4030 C.ar   62  TRP62       0.0003
     41  CD1       18.2510   68.3620   47.7730 C.ar   62  TRP62       0.0946
     42  CD2       19.4410   69.0930   46.0180 C.ar   62  TRP62       0.0152
     43  NE1       19.3910   68.9640   48.2570 N.ar   62  TRP62      -0.2442
     44  CE2       20.1300   69.4310   47.2000 C.ar   62  TRP62       0.0810
     45  CE3       19.9880   69.4690   44.7830 C.ar   62  TRP62       0.0012
     46  CZ2       21.3590   70.1140   47.1880 C.ar   62  TRP62       0.0191
     47  CZ3       21.2120   70.1480   44.7690 C.ar   62  TRP62       0.0001
     48  CH2       21.8810   70.4600   45.9600 C.ar   62  TRP62       0.0015
     49  N         18.2580   65.4400   47.0160 N.am   63  ALA63      -0.1980
     50  CA        17.9740   64.6790   48.2420 C.3    63  ALA63       0.1597
     51  C         16.5820   65.0350   48.8120 C.2    63  ALA63       0.2287
     52  O         16.1010   66.1670   48.6900 O.2    63  ALA63      -0.2864
     53  CB        19.0670   64.8870   49.2800 C.3    63  ALA63       0.0319
     54  N         15.4100   65.7550   51.5610 N.3    65  ASP65      -0.1225
     55  CA        15.2330   66.6710   52.6910 C.3    65  ASP65       0.1805
     56  C         14.6570   68.0100   52.2580 C.2    65  ASP65       0.2597
     57  O         13.9930   68.6870   53.0450 O.2    65  ASP65      -0.2718
     58  CB        16.5270   66.8800   53.4930 C.3    65  ASP65       0.1424
     59  CG        17.6040   67.5880   52.6950 C.2    65  ASP65       0.3668
     60  OD1       18.0160   68.6950   53.0900 O.co2  65  ASP65      -0.2456
     61  OD2       18.0580   67.0210   51.6800 O.co2  65  ASP65      -0.2456
     62  N         14.9000   68.3910   51.0060 N.am   66  ARG66      -0.1979
     63  CA        14.3400   69.6320   50.4910 C.3    66  ARG66       0.1597
     64  C         12.8580   69.5130   50.0760 C.2    66  ARG66       0.2287
     65  O         12.1940   70.5180   49.8220 O.2    66  ARG66      -0.2864
     66  CB        15.1790   70.1380   49.3060 C.3    66  ARG66       0.0334
     67  CG        16.6000   70.5650   49.6730 C.3    66  ARG66       0.0492
     68  CD        16.6340   71.9930   50.1900 C.3    66  ARG66       0.2205
     69  NE        17.9020   72.3360   50.8320 N.pl3  66  ARG66      -0.0865
     70  CZ        18.1300   73.4950   51.4420 C.cat  66  ARG66       0.5346
     71  NH1       17.1800   74.4240   51.4670 N.pl3  66  ARG66       0.1354
     72  NH2       19.3010   73.7310   52.0270 N.pl3  66  ARG66       0.1354
     73  N         21.9650   57.8310   49.6210 N.3   111  GLU111     -0.1245
     74  CA        23.2640   58.4740   49.6740 C.3   111  GLU111      0.1567
     75  C         23.7080   58.5690   51.1260 C.2   111  GLU111      0.2260
     76  O         23.0100   59.1670   51.9460 O.2   111  GLU111     -0.2867
     77  CB        23.1500   59.9050   49.1270 C.3   111  GLU111      0.0388
     78  CG        22.5350   60.0040   47.7320 C.3   111  GLU111      0.1160
     79  CD        22.5300   61.4250   47.1870 C.2   111  GLU111      0.3649
     80  OE1       22.6150   62.3800   47.9900 O.co2 111  GLU111     -0.2457
     81  OE2       22.4510   61.5820   45.9450 O.co2 111  GLU111     -0.2457
     82  N         35.4980   68.3660   52.2350 N.3   150  ASN150     -0.1240
     83  CA        34.8020   69.6410   52.0490 C.3   150  ASN150      0.1653
     84  C         34.3830   70.2200   53.3930 C.2   150  ASN150      0.2266
     85  O         33.5950   69.6170   54.1040 O.2   150  ASN150     -0.2867
     86  CB        33.5770   69.4270   51.1470 C.3   150  ASN150      0.1155
     87  CG        32.8530   70.7220   50.7930 C.2   150  ASN150      0.2627
     88  OD1       33.2530   71.8090   51.2030 O.2   150  ASN150     -0.2716
     89  ND2       31.7720   70.6020   50.0210 N.am  150  ASN150     -0.0877
     90  N         30.4440   72.8500   53.1750 N.3   153  GLU153     -0.1231
     91  CA        29.0500   72.3960   53.2650 C.3   153  GLU153      0.1684
     92  C         28.8380   71.6030   54.5320 C.2   153  GLU153      0.2434
     93  O         29.5100   70.5950   54.7480 O.2   153  GLU153     -0.2733
     94  CB        28.6880   71.5400   52.0580 C.3   153  GLU153      0.0402
     95  CG        28.5580   72.3180   50.7650 C.3   153  GLU153      0.1161
     96  CD        27.2580   73.1200   50.6640 C.2   153  GLU153      0.3649
     97  OE1       26.3260   72.9010   51.4850 O.co2 153  GLU153     -0.2457
     98  OE2       27.1740   73.9760   49.7520 O.co2 153  GLU153     -0.2457
     99  N         27.8810   72.0340   55.3730 N.am  154  PRO154     -0.2718
    100  CA        27.7100   71.3800   56.6730 C.3   154  PRO154      0.1535
    101  C         27.3000   69.9070   56.5550 C.2   154  PRO154      0.2599
    102  O         27.4360   69.1810   57.5370 O.2   154  PRO154     -0.2715
    103  CB        26.6260   72.2210   57.3500 C.3   154  PRO154      0.0310
    104  CG        25.9020   72.8760   56.2470 C.3   154  PRO154      0.0237
    105  CD        26.8990   73.1090   55.1520 C.3   154  PRO154      0.0939
    106  N         26.8450   69.4780   55.3740 N.am  155  TYR155     -0.1960
    107  CA        26.5590   68.0570   55.1000 C.3   155  TYR155      0.1771
    108  C         27.7520   67.1770   55.4850 C.2   155  TYR155      0.2619
    109  O         27.5880   66.0990   56.0540 O.2   155  TYR155     -0.2715
    110  CB        26.2520   67.8710   53.6120 C.3   155  TYR155      0.0574
    111  CG        25.8870   66.4640   53.1570 C.ar  155  TYR155     -0.0198
    112  CD1       24.6500   65.8930   53.4920 C.ar  155  TYR155     -0.0009
    113  CD2       26.7510   65.7300   52.3360 C.ar  155  TYR155     -0.0009
    114  CE1       24.3010   64.6210   53.0450 C.ar  155  TYR155      0.0417
    115  CE2       26.4050   64.4550   51.8840 C.ar  155  TYR155      0.0417
    116  CZ        25.1820   63.9120   52.2440 C.ar  155  TYR155      0.1957
    117  OH        24.8300   62.6550   51.7960 O.3   155  TYR155     -0.2866
    118  N         28.9520   67.6570   55.1680 N.am  156  PHE156     -0.1974
    119  CA        30.1850   66.8990   55.3710 C.3   156  PHE156      0.1639
    120  C         30.7080   66.9280   56.8010 C.2   156  PHE156      0.2290
    121  O         31.4250   66.0210   57.2130 O.2   156  PHE156     -0.2864
    122  CB        31.2630   67.4090   54.4250 C.3   156  PHE156      0.0560
    123  CG        30.9440   67.1700   52.9770 C.ar  156  PHE156     -0.0200
    124  CD1       30.1060   68.0290   52.2870 C.ar  156  PHE156     -0.0042
    125  CD2       31.4800   66.0810   52.3110 C.ar  156  PHE156     -0.0042
    126  CE1       29.7880   67.8060   50.9510 C.ar  156  PHE156     -0.0003
    127  CE2       31.1820   65.8570   50.9740 C.ar  156  PHE156     -0.0003
    128  CZ        30.3350   66.7190   50.2940 C.ar  156  PHE156     -0.0000
    129  N         28.7220   59.3290   44.5460 N.3   230  TRP230     -0.1241
    130  CA        28.8960   60.0650   43.3030 C.3   230  TRP230      0.1605
    131  C         30.3740   60.3300   43.0100 C.2   230  TRP230      0.2264
    132  O         30.7770   60.4610   41.8480 O.2   230  TRP230     -0.2867
    133  CB        28.1500   61.4000   43.3610 C.3   230  TRP230      0.0550
    134  CG        28.4810   62.2090   44.5740 C.ar  230  TRP230      0.0003
    135  CD1       29.5310   63.0490   44.7300 C.ar  230  TRP230      0.0946
    136  CD2       27.7570   62.2300   45.8080 C.ar  230  TRP230      0.0152
    137  NE1       29.5090   63.6070   45.9870 N.ar  230  TRP230     -0.2442
    138  CE2       28.4230   63.1220   46.6650 C.ar  230  TRP230      0.0810
    139  CE3       26.5930   61.5870   46.2650 C.ar  230  TRP230      0.0012
    140  CZ2       27.9800   63.3840   47.9610 C.ar  230  TRP230      0.0191
    141  CZ3       26.1500   61.8500   47.5500 C.ar  230  TRP230      0.0001
    142  CH2       26.8390   62.7430   48.3850 C.ar  230  TRP230      0.0015
    143  N         20.7490   60.9440   52.8340 N.3   260  GLY260     -0.1225
    144  CA        19.8510   61.4870   51.8380 C.3   260  GLY260      0.1811
    145  C         19.3150   60.4010   50.9330 C.2   260  GLY260      0.2280
    146  O         19.9740   59.3960   50.7070 O.2   260  GLY260     -0.2866
    147  N         18.1980   60.4600   47.1580 N.3   262  LEU262     -0.1245
    148  CA        18.0240   61.2060   45.9140 C.3   262  LEU262      0.1561
    149  C         16.6210   60.9370   45.4010 C.2   262  LEU262      0.2260
    150  O         16.2050   59.7820   45.2560 O.2   262  LEU262     -0.2867
    151  CB        19.0620   60.8200   44.8660 C.3   262  LEU262      0.0270
    152  CG        18.9470   61.5060   43.4930 C.3   262  LEU262      0.0019
    153  CD1       19.3210   62.9980   43.5520 C.3   262  LEU262      0.0001
    154  CD2       19.8050   60.7650   42.4570 C.3   262  LEU262      0.0001
    155  N         17.5470   61.8160   56.8410 N.3   330  MET330     -0.1245
    156  CA        17.1570   63.2020   57.0780 C.3   330  MET330      0.1570
    157  C         15.6380   63.3200   57.1920 C.2   330  MET330      0.2261
    158  O         14.9050   62.5930   56.5280 O.2   330  MET330     -0.2867
    159  CB        17.6610   64.1170   55.9670 C.3   330  MET330      0.0387
    160  CG        19.1570   64.4290   56.0620 C.3   330  MET330      0.0595
    161  SD        19.6310   65.6320   54.8210 S.3   330  MET330     -0.1393
    162  CE        19.6080   64.6400   53.3320 C.3   330  MET330      0.0692
    163  N         19.7220   73.8070   57.9880 N.3   340  TRP340     -0.1241
    164  CA        20.9650   73.8320   57.2210 C.3   340  TRP340      0.1605
    165  C         21.5720   75.2380   57.1260 C.2   340  TRP340      0.2264
    166  O         22.7930   75.3920   57.1690 O.2   340  TRP340     -0.2867
    167  CB        20.7680   73.2700   55.8220 C.3   340  TRP340      0.0550
    168  CG        20.6400   71.7620   55.7620 C.ar  340  TRP340      0.0003
    169  CD1       19.5960   71.0430   55.2320 C.ar  340  TRP340      0.0946
    170  CD2       21.5930   70.7960   56.2310 C.ar  340  TRP340      0.0152
    171  NE1       19.8500   69.6910   55.3400 N.ar  340  TRP340     -0.2442
    172  CE2       21.0680   69.5160   55.9480 C.ar  340  TRP340      0.0810
    173  CE3       22.8410   70.8870   56.8600 C.ar  340  TRP340      0.0012
    174  CZ2       21.7550   68.3400   56.2680 C.ar  340  TRP340      0.0191
    175  CZ3       23.5210   69.7170   57.1800 C.ar  340  TRP340      0.0001
    176  CH2       22.9790   68.4640   56.8820 C.ar  340  TRP340      0.0015
    177  N         25.2390   75.8500   58.6060 N.3   344  ARG344     -0.1245
    178  CA        26.2340   76.2580   57.6270 C.3   344  ARG344      0.1563
    179  C         27.0330   77.4470   58.1670 C.2   344  ARG344      0.2260
    180  O         28.2720   77.4490   58.1440 O.2   344  ARG344     -0.2867
    181  CB        25.5700   76.6340   56.3020 C.3   344  ARG344      0.0307
    182  CG        26.5550   77.1090   55.2360 C.3   344  ARG344      0.0489
    183  CD        25.8400   77.6560   54.0090 C.3   344  ARG344      0.2205
    184  NE        24.7760   76.7590   53.5520 N.pl3 344  ARG344     -0.0865
    185  CZ        24.9490   75.7720   52.6780 C.cat 344  ARG344      0.5346
    186  NH1       26.1510   75.5560   52.1490 N.pl3 344  ARG344      0.1354
    187  NH2       23.9200   75.0070   52.3230 N.pl3 344  ARG344      0.1354
@<TRIPOS>BOND
     1    20    19    2
     2    19    18    1
     3     4     3    2
     4    18    21    1
     5    18    17    1
     6     3     2    1
     7    21    22    1
     8    17    11   am
     9     1     2    1
    10     9    10    1
    11    11    12    2
    12    11    10    1
    13     2     5    1
    14    10    13    1
    15    22    23    1
    16   132   131    2
    17     5     6    1
    18   154   152    1
    19     7     6    2
    20    13    14    1
    21    23    24    1
    22     6     8   am
    23   131   130    1
    24    15    14   ar
    25   130   133    1
    26   130   129    1
    27   133   134    1
    28    14    16   ar
    29   152   153    1
    30   152   151    1
    31    35    36    1
    32    24    25    1
    33    26    27    1
    34   134   135   ar
    35   134   136   ar
    36   135   137   ar
    37    47    45   ar
    38    47    48   ar
    39    45    42   ar
    40   151   148    1
    41    36    39    1
    42    36    37    1
    43   150   149    2
    44   149   148    1
    45    39    40    1
    46    27    28    1
    47    27    30    1
    48   136   139   ar
    49   136   138   ar
    50   148   147    1
    51    28    29    2
    52    81    79   ar
    53    48    46   ar
    54    33    32   ar
    55    38    37    2
    56   137   138   ar
    57    42    40   ar
    58    42    44   ar
    59    37    49   am
    60   139   141   ar
    61    40    41   ar
    62   138   140   ar
    63    30    31    1
    64    49    50    1
    65    32    31    1
    66    32    34   ar
    67    79    78    1
    68    79    80   ar
    69    46    44   ar
    70    44    43   ar
    71   141   142   ar
    72    78    77    1
    73    41    43   ar
    74   140   142   ar
    75    50    51    1
    76    50    53    1
    77    52    51    2
    78    77    74    1
    79    66    67    1
    80    66    63    1
    81    73    74    1
    82    67    68    1
    83    74    75    1
    84    98    96   ar
    85    65    64    2
    86    89    87   am
    87    64    63    1
    88    68    69    1
    89   128   126   ar
    90   128   127   ar
    91    63    62    1
    92    96    95    1
    93    96    97   ar
    94   146   145    2
    95    95    94    1
    96    87    86    1
    97    87    88    2
    98    69    70    2
    99   145   144    1
   100   126   124   ar
   101   127   125   ar
   102    62    56   am
   103    75    76    2
   104    86    83    1
   105    70    71    1
   106    70    72    1
   107    54    55    1
   108    61    59   ar
   109   117   116    1
   110   144   143    1
   111   115   116   ar
   112   115   113   ar
   113    83    82    1
   114    83    84    1
   115    94    91    1
   116   186   185    1
   117   116   114   ar
   118    56    55    1
   119    56    57    2
   120   124   123   ar
   121   125   123   ar
   122   187   185    1
   123   113   111   ar
   124   185   184    2
   125    55    58    1
   126    59    60   ar
   127    59    58    1
   128   123   122    1
   129   114   112   ar
   130   111   112   ar
   131   111   110    1
   132    90    91    1
   133    91    92    1
   134   162   161    1
   135    84    85    2
   136   184   183    1
   137   110   107    1
   138   183   182    1
   139   122   119    1
   140    92    93    2
   141    92    99   am
   142   161   160    1
   143   107   106    1
   144   107   108    1
   145   105    99    1
   146   105   104    1
   147   118   119    1
   148   118   108   am
   149   169   171   ar
   150   169   168   ar
   151   182   181    1
   152   171   172   ar
   153   119   120    1
   154    99   100    1
   155   106   101   am
   156   108   109    2
   157   168   167    1
   158   168   170   ar
   159   167   164    1
   160   172   170   ar
   161   172   174   ar
   162   159   160    1
   163   159   156    1
   164   170   173   ar
   165   104   103    1
   166   174   176   ar
   167   181   178    1
   168   158   157    2
   169   101   100    1
   170   101   102    2
   171   100   103    1
   172   120   121    2
   173   155   156    1
   174   173   175   ar
   175   176   175   ar
   176   156   157    1
   177   165   166    2
   178   165   164    1
   179   164   163    1
   180   178   179    1
   181   178   177    1
   182   180   179    2
