@<TRIPOS>MOLECULE
tmp/4eghA00.pdb
 124 114 0 0 0
SMALL
GASTEIGER

@<TRIPOS>ATOM
      1  N          1.5710   11.7790  -15.8010 N.3    33  LEU33      -0.1245
      2  CA         2.1640   12.2530  -17.0390 C.3    33  LEU33       0.1561
      3  C          3.4490   11.4870  -17.3760 C.2    33  LEU33       0.2260
      4  O          3.6530   11.1440  -18.5400 O.2    33  LEU33      -0.2867
      5  CB         2.4100   13.7480  -17.0190 C.3    33  LEU33       0.0270
      6  CG         1.0850   14.5000  -16.9820 C.3    33  LEU33       0.0019
      7  CD1        1.3830   16.0370  -16.7880 C.3    33  LEU33       0.0001
      8  CD2        0.1340   14.3070  -18.2120 C.3    33  LEU33       0.0001
      9  N          2.5250    8.1390  -18.7080 N.3    36  ASN36      -0.1225
     10  CA         2.0900    8.1760  -20.1080 C.3    36  ASN36       0.1785
     11  C          3.2800    8.2730  -21.0120 C.2    36  ASN36       0.2597
     12  O          3.3420    7.6190  -22.0350 O.2    36  ASN36      -0.2718
     13  CB         1.2070    9.3710  -20.4330 C.3    36  ASN36       0.1169
     14  CG        -0.0990    9.3420  -19.7050 C.2    36  ASN36       0.2627
     15  OD1       -0.5670    8.2810  -19.1990 O.2    36  ASN36      -0.2716
     16  ND2       -0.7560   10.4960  -19.7120 N.am   36  ASN36      -0.0877
     17  N          4.2540    9.0800  -20.5940 N.am   37  SER37      -0.1952
     18  CA         5.4670    9.2310  -21.3830 C.3    37  SER37       0.1924
     19  C          6.2240    7.8890  -21.4820 C.2    37  SER37       0.2314
     20  O          6.6820    7.4700  -22.5710 O.2    37  SER37      -0.2863
     21  CB         6.3750   10.2670  -20.7510 C.3    37  SER37       0.2116
     22  OG         5.9060   11.6110  -21.0060 O.3    37  SER37      -0.2180
     23  N          4.9570    4.8820  -21.2560 N.3    39  ASP39      -0.1225
     24  CA         4.2450    4.0020  -22.1230 C.3    39  ASP39       0.1805
     25  C          4.5010    4.3480  -23.6230 C.2    39  ASP39       0.2597
     26  O          4.6550    3.4420  -24.4460 O.2    39  ASP39      -0.2718
     27  CB         2.7470    4.1320  -21.8230 C.3    39  ASP39       0.1424
     28  CG         2.3730    3.4910  -20.5060 C.2    39  ASP39       0.3668
     29  OD1        3.2340    2.7960  -19.8330 O.co2  39  ASP39      -0.2456
     30  OD2        1.1840    3.6920  -20.1470 O.co2  39  ASP39      -0.2456
     31  N          4.5590    5.6600  -23.9400 N.am   40  ALA40      -0.1979
     32  CA         4.8450    6.1610  -25.2920 C.3    40  ALA40       0.1597
     33  C          6.2400    5.7460  -25.7580 C.2    40  ALA40       0.2287
     34  O          6.4560    5.4340  -26.9100 O.2    40  ALA40      -0.2864
     35  CB         4.6800    7.6840  -25.3720 C.3    40  ALA40       0.0319
     36  N          6.3920    2.0940  -26.6060 N.3    43  LYS43      -0.1245
     37  CA         5.8320    1.8660  -27.9150 C.3    43  LYS43       0.1561
     38  C          6.8280    2.0250  -29.0350 C.2    43  LYS43       0.2260
     39  O          6.9330    1.1580  -29.9460 O.2    43  LYS43      -0.2867
     40  CB         4.5190    2.6660  -28.1090 C.3    43  LYS43       0.0271
     41  CG         3.3930    2.1140  -27.2920 C.3    43  LYS43       0.0035
     42  CD         2.1580    3.0190  -27.4470 C.3    43  LYS43       0.0206
     43  CE         0.9810    2.4930  -26.5960 C.3    43  LYS43       0.1093
     44  NZ        -0.2130    3.2870  -27.0000 N.3    43  LYS43      -0.1314
     45  N          8.7770   14.0390  -23.7590 N.3    78  ASP78      -0.1239
     46  CA         9.3010   12.7180  -24.0020 C.3    78  ASP78       0.1674
     47  C          9.6280   12.5360  -25.4960 C.2    78  ASP78       0.2266
     48  O          9.1270   13.2790  -26.3680 O.2    78  ASP78      -0.2867
     49  CB         8.3040   11.6570  -23.4950 C.3    78  ASP78       0.1410
     50  CG         7.0920   11.5740  -24.3320 C.2    78  ASP78       0.3668
     51  OD1        7.1710   11.1680  -25.5290 O.co2  78  ASP78      -0.2456
     52  OD2        6.0240   11.8670  -23.7430 O.co2  78  ASP78      -0.2456
     53  N          6.7020    7.5550  -28.9640 N.3    81  ILE81      -0.1231
     54  CA         6.1410    7.3350  -30.3030 C.3    81  ILE81       0.1692
     55  C          5.3980    8.5810  -30.8340 C.2    81  ILE81       0.2593
     56  O          5.2670    8.7600  -32.0230 O.2    81  ILE81      -0.2718
     57  CB         5.2760    6.0140  -30.3460 C.3    81  ILE81       0.0266
     58  CG1        5.0390    5.5040  -31.7800 C.3    81  ILE81       0.0019
     59  CG2        3.9760    6.2330  -29.6260 C.3    81  ILE81       0.0020
     60  CD1        4.5490    4.0620  -31.8350 C.3    81  ILE81       0.0001
     61  N          4.8870    9.4240  -29.9730 N.am   82  GLY82      -0.1942
     62  CA         4.0980   10.5680  -30.4170 C.3    82  GLY82       0.2014
     63  C          2.6870   10.1730  -30.7970 C.2    82  GLY82       0.2638
     64  O          2.3140    9.0080  -30.6990 O.2    82  GLY82      -0.2714
     65  N          1.9390   11.1570  -31.2310 N.am   83  MET83      -0.1976
     66  CA         0.5430   10.9590  -31.6330 C.3    83  MET83       0.1605
     67  C          0.2540   11.5340  -32.9910 C.2    83  MET83       0.2287
     68  O          0.6930   12.6400  -33.2660 O.2    83  MET83      -0.2864
     69  CB        -0.3930   11.6130  -30.5860 C.3    83  MET83       0.0413
     70  CG        -0.4020   10.8650  -29.2690 C.3    83  MET83       0.0598
     71  SD        -1.4080   11.6230  -28.0150 S.3    83  MET83      -0.1393
     72  CE        -0.3770   12.9940  -27.5510 C.3    83  MET83       0.0692
     73  N         -5.0080   10.6000  -33.3760 N.3    87  ASP87      -0.1239
     74  CA        -4.9640   10.0910  -32.0260 C.3    87  ASP87       0.1674
     75  C         -5.0980   11.2500  -31.0240 C.2    87  ASP87       0.2266
     76  O         -5.7140   11.0860  -29.9430 O.2    87  ASP87      -0.2867
     77  CB        -3.7620    9.1440  -31.8290 C.3    87  ASP87       0.1410
     78  CG        -4.0560    7.6840  -32.2490 C.2    87  ASP87       0.3668
     79  OD1       -5.0370    7.3360  -33.0380 O.co2  87  ASP87      -0.2456
     80  OD2       -3.2590    6.8540  -31.7400 O.co2  87  ASP87      -0.2456
     81  N         -6.2620   11.8750  -27.0010 N.3    92  LEU92      -0.1231
     82  CA        -4.8180   11.6980  -26.7550 C.3    92  LEU92       0.1693
     83  C         -4.4720   10.2060  -26.5830 C.2    92  LEU92       0.2593
     84  O         -3.7040    9.7830  -25.6970 O.2    92  LEU92      -0.2718
     85  CB        -4.3760   12.5400  -25.5700 C.3    92  LEU92       0.0284
     86  CG        -4.6050   14.0640  -25.8080 C.3    92  LEU92       0.0019
     87  CD1       -5.8540   14.5130  -25.0770 C.3    92  LEU92       0.0001
     88  CD2       -3.4290   14.8200  -25.3680 C.3    92  LEU92       0.0001
     89  N         -4.9730    9.4140  -27.5130 N.am   93  GLY93      -0.1942
     90  CA        -4.5930    8.0260  -27.5970 C.3    93  GLY93       0.2014
     91  C         -5.2580    7.1000  -26.5790 C.2    93  GLY93       0.2639
     92  O         -4.8670    5.9280  -26.4250 O.2    93  GLY93      -0.2714
     93  N         -6.2940    7.5710  -25.8810 N.am   94  THR94      -0.1950
     94  CA        -6.8850    6.8210  -24.7890 C.3    94  THR94       0.1897
     95  C         -8.2570    6.3140  -25.1830 C.2    94  THR94       0.2313
     96  O         -8.8840    6.7970  -26.1620 O.2    94  THR94      -0.2863
     97  CB        -7.0880    7.7020  -23.5120 C.3    94  THR94       0.1794
     98  OG1       -8.1210    8.6920  -23.7630 O.3    94  THR94      -0.2208
     99  CG2       -5.8040    8.2940  -23.0470 C.3    94  THR94       0.0378
    100  N         -3.9060   11.3190  -18.2010 N.3   123  PHE123     -0.1241
    101  CA        -3.5630   12.5940  -18.8490 C.3   123  PHE123      0.1605
    102  C         -4.3730   13.7430  -18.2020 C.2   123  PHE123      0.2264
    103  O         -3.8440   14.8560  -17.9050 O.2   123  PHE123     -0.2867
    104  CB        -3.8110   12.5980  -20.3520 C.3   123  PHE123      0.0534
    105  CG        -3.7500   13.9680  -20.9500 C.ar  123  PHE123     -0.0203
    106  CD1       -2.5550   14.5990  -21.1160 C.ar  123  PHE123     -0.0042
    107  CD2       -4.9190   14.6840  -21.2240 C.ar  123  PHE123     -0.0042
    108  CE1       -2.5260   15.9110  -21.6560 C.ar  123  PHE123     -0.0003
    109  CE2       -4.8350   15.9940  -21.7280 C.ar  123  PHE123     -0.0003
    110  CZ        -3.6430   16.5620  -21.9050 C.ar  123  PHE123     -0.0000
    111  N          6.2430   13.6120  -27.5430 N.3   169  THR169     -0.1218
    112  CA         5.1250   14.4320  -27.0270 C.3   169  THR169      0.1862
    113  C          5.6270   15.3790  -25.9480 C.2   169  THR169      0.2287
    114  O          6.4590   15.0240  -25.0900 O.2   169  THR169     -0.2866
    115  CB         4.0210   13.5190  -26.4700 C.3   169  THR169      0.1770
    116  OG1        3.4590   12.7650  -27.5530 O.3   169  THR169     -0.2211
    117  CG2        2.9360   14.3080  -25.6520 C.3   169  THR169      0.0375
    118  N          4.1020   18.0680  -23.1040 N.3   171  VAL171     -0.1245
    119  CA         2.9220   18.5140  -22.3930 C.3   171  VAL171      0.1561
    120  C          3.3260   19.7570  -21.5910 C.2   171  VAL171      0.2260
    121  O          4.1550   19.6940  -20.7180 O.2   171  VAL171     -0.2867
    122  CB         2.3350   17.4180  -21.4540 C.3   171  VAL171      0.0252
    123  CG1        1.1390   18.0150  -20.6480 C.3   171  VAL171      0.0019
    124  CG2        1.8960   16.1630  -22.1800 C.3   171  VAL171      0.0019
@<TRIPOS>BOND
     1    73    74    1
     2    68    67    2
     3    79    78   ar
     4    67    66    1
     5    78    77    1
     6    78    80   ar
     7    74    77    1
     8    74    75    1
     9    56    55    2
    10    60    58    1
    11    58    57    1
    12    66    65    1
    13    66    69    1
    14    65    63   am
    15    75    76    2
    16    55    54    1
    17    55    61   am
    18    63    64    2
    19    63    62    1
    20    69    70    1
    21    62    61    1
    22    57    54    1
    23    57    59    1
    24    54    53    1
    25    39    38    2
    26    70    71    1
    27    38    37    1
    28    40    37    1
    29    40    41    1
    30    71    72    1
    31    37    36    1
    32    90    89    1
    33    90    91    1
    34   116   115    1
    35   111   112    1
    36    89    83   am
    37    42    41    1
    38    42    43    1
    39   112   115    1
    40   112   113    1
    41    81    82    1
    42    44    43    1
    43    34    33    2
    44    82    83    1
    45    82    85    1
    46    83    84    2
    47    91    92    2
    48    91    93   am
    49   115   117    1
    50    48    47    2
    51    96    95    2
    52   113   114    2
    53    93    94    1
    54    86    85    1
    55    86    88    1
    56    86    87    1
    57    33    32    1
    58    51    50   ar
    59    47    46    1
    60    35    32    1
    61    32    31    1
    62    95    94    1
    63    94    97    1
    64    26    25    2
    65    50    52   ar
    66    50    49    1
    67    46    45    1
    68    46    49    1
    69    31    25   am
    70    98    97    1
    71    25    24    1
    72    97    99    1
    73   118   119    1
    74    20    19    2
    75   119   120    1
    76   119   122    1
    77   124   122    1
    78    24    27    1
    79    24    23    1
    80    12    11    2
    81   110   109   ar
    82   110   108   ar
    83    27    28    1
    84   109   107   ar
    85   108   106   ar
    86   120   121    2
    87    19    18    1
    88   122   123    1
    89    18    21    1
    90    18    17    1
    91   107   105   ar
    92   106   105   ar
    93    11    17   am
    94    11    10    1
    95    22    21    1
    96   105   104    1
    97    28    30   ar
    98    28    29   ar
    99    13    10    1
   100    13    14    1
   101   104   101    1
   102    10     9    1
   103    16    14   am
   104    14    15    2
   105   101   102    1
   106   101   100    1
   107     4     3    2
   108     8     6    1
   109   102   103    2
   110     3     2    1
   111     2     5    1
   112     2     1    1
   113     5     6    1
   114     6     7    1
