@<TRIPOS>MOLECULE
tmp/4egkA00.pdb
 145 132 0 0 0
SMALL
GASTEIGER

@<TRIPOS>ATOM
      1  N          2.8480   -7.1190   18.3380 N.3    38  LEU38      -0.1245
      2  CA         3.2100   -6.5670   17.0410 C.3    38  LEU38       0.1561
      3  C          3.3450   -5.0610   17.1950 C.2    38  LEU38       0.2260
      4  O          4.2840   -4.5220   16.6570 O.2    38  LEU38      -0.2867
      5  CB         2.2000   -6.9770   15.9540 C.3    38  LEU38       0.0270
      6  CG         2.1350   -8.4800   15.7550 C.3    38  LEU38       0.0019
      7  CD1        1.0130   -8.8560   14.7570 C.3    38  LEU38       0.0001
      8  CD2        3.4720   -8.9950   15.3230 C.3    38  LEU38       0.0001
      9  N          6.6960   -4.3940   18.7280 N.3    41  ASN41      -0.1225
     10  CA         7.7830   -4.5190   17.7640 C.3    41  ASN41       0.1785
     11  C          7.8450   -3.2660   16.8620 C.2    41  ASN41       0.2597
     12  O          8.9190   -2.7660   16.5600 O.2    41  ASN41      -0.2718
     13  CB         7.6100   -5.7800   16.9140 C.3    41  ASN41       0.1169
     14  CG         7.8410   -7.0670   17.6800 C.2    41  ASN41       0.2627
     15  OD1        8.3180   -7.0220   18.8280 O.2    41  ASN41      -0.2716
     16  ND2        7.5790   -8.2290   17.0320 N.am   41  ASN41      -0.0877
     17  N          6.6830   -2.7740   16.4210 N.am   42  SER42      -0.1952
     18  CA         6.6350   -1.5330   15.5930 C.3    42  SER42       0.1924
     19  C          7.2030   -0.3270   16.3800 C.2    42  SER42       0.2314
     20  O          7.9160    0.4990   15.8190 O.2    42  SER42      -0.2863
     21  CB         5.1850   -1.1870   15.2160 C.3    42  SER42       0.2116
     22  OG         4.7200   -2.1370   14.2660 O.3    42  SER42      -0.2180
     23  N          9.2820   -0.3510   18.7910 N.3    44  ASP44      -0.1225
     24  CA        10.7530   -0.4770   18.8810 C.3    44  ASP44       0.1805
     25  C         11.4560   -0.0820   17.5610 C.2    44  ASP44       0.2597
     26  O         12.5420    0.4840   17.5700 O.2    44  ASP44      -0.2718
     27  CB        11.2120   -1.8810   19.2570 C.3    44  ASP44       0.1424
     28  CG        10.8390   -2.2720   20.6950 C.2    44  ASP44       0.3668
     29  OD1       10.5040   -1.3450   21.4750 O.co2  44  ASP44      -0.2456
     30  OD2       10.9450   -3.5110   20.9880 O.co2  44  ASP44      -0.2456
     31  N         10.8650   -0.4730   16.4230 N.am   45  ALA45      -0.1979
     32  CA        11.4080   -0.2050   15.1070 C.3    45  ALA45       0.1597
     33  C         11.3410    1.2710   14.8110 C.2    45  ALA45       0.2287
     34  O         12.2070    1.8030   14.1460 O.2    45  ALA45      -0.2864
     35  CB        10.5740   -0.9510   14.0670 C.3    45  ALA45       0.0319
     36  N         14.1170    2.9210   16.6490 N.3    48  LYS48      -0.1245
     37  CA        15.4680    2.7680   16.0570 C.3    48  LYS48       0.1561
     38  C         15.6780    3.7940   14.9520 C.2    48  LYS48       0.2260
     39  O         16.6960    4.3700   14.8960 O.2    48  LYS48      -0.2867
     40  CB        15.7650    1.3510   15.5330 C.3    48  LYS48       0.0271
     41  CG        15.8170    0.2580   16.5520 C.3    48  LYS48       0.0035
     42  CD        16.0520   -1.1080   15.9270 C.3    48  LYS48       0.0206
     43  CE        16.5040   -2.1430   16.9760 C.3    48  LYS48       0.1093
     44  NZ        15.5120   -2.2970   18.1040 N.3    48  LYS48      -0.1314
     45  N         -0.9280   -4.4950   10.0630 N.3    81  ILE81      -0.1245
     46  CA        -0.2950   -3.5030   10.9580 C.3    81  ILE81       0.1561
     47  C          0.9000   -2.9420   10.2000 C.2    81  ILE81       0.2260
     48  O          1.8430   -3.7180    9.8570 O.2    81  ILE81      -0.2867
     49  CB         0.1260   -4.1820   12.2620 C.3    81  ILE81       0.0252
     50  CG1       -1.0800   -4.8240   12.9620 C.3    81  ILE81       0.0019
     51  CG2        0.9020   -3.1970   13.1920 C.3    81  ILE81       0.0019
     52  CD1       -1.4010   -6.3070   12.6200 C.3    81  ILE81       0.0001
     53  N          3.9500   -0.0850    9.9840 N.3    83  ASP83      -0.1239
     54  CA         4.7740    0.9330   10.6720 C.3    83  ASP83       0.1674
     55  C          5.7320    1.5530    9.7410 C.2    83  ASP83       0.2266
     56  O          5.9890    1.0260    8.6960 O.2    83  ASP83      -0.2867
     57  CB         5.4320    0.3810   11.9780 C.3    83  ASP83       0.1410
     58  CG         6.5770   -0.5600   11.7390 C.2    83  ASP83       0.3668
     59  OD1        7.5620   -0.1770   11.0590 O.co2  83  ASP83      -0.2456
     60  OD2        6.5110   -1.7270   12.2100 O.co2  83  ASP83      -0.2456
     61  N         12.3870    1.3700   11.1870 N.3    86  ILE86      -0.1231
     62  CA        13.6500    1.2450   10.4560 C.3    86  ILE86       0.1692
     63  C         13.5740    0.1990    9.3040 C.2    86  ILE86       0.2593
     64  O         14.3670    0.1560    8.3570 O.2    86  ILE86      -0.2718
     65  CB        14.7540    0.9120   11.4940 C.3    86  ILE86       0.0266
     66  CG1       16.1220    0.9110   10.8240 C.3    86  ILE86       0.0019
     67  CG2       14.4570   -0.4460   12.1040 C.3    86  ILE86       0.0020
     68  CD1       17.2040    1.2960   11.7910 C.3    86  ILE86       0.0001
     69  N         12.6510   -0.7310    9.4020 N.am   87  GLY87      -0.1942
     70  CA        12.5910   -1.7720    8.4150 C.3    87  GLY87       0.2014
     71  C         13.6430   -2.7930    8.5850 C.2    87  GLY87       0.2638
     72  O         14.4870   -2.7640    9.5150 O.2    87  GLY87      -0.2714
     73  N         13.6490   -3.7240    7.6360 N.am   88  MET88      -0.1976
     74  CA        14.6760   -4.7970    7.6520 C.3    88  MET88       0.1605
     75  C         15.3110   -4.9720    6.2770 C.2    88  MET88       0.2287
     76  O         14.6210   -5.0760    5.2420 O.2    88  MET88      -0.2864
     77  CB        14.0180   -6.1230    8.0000 C.3    88  MET88       0.0413
     78  CG        13.6330   -6.1650    9.4900 C.3    88  MET88       0.0598
     79  SD        12.7390   -7.6640   10.0070 S.3    88  MET88      -0.1393
     80  CE        11.1130   -7.3260    9.3070 C.3    88  MET88       0.0692
     81  N         18.5170   -8.9020    7.6570 N.3    92  ASP92      -0.1239
     82  CA        17.8020   -8.6270    8.9310 C.3    92  ASP92       0.1674
     83  C         16.5520   -9.4920    8.9850 C.2    92  ASP92       0.2266
     84  O         16.1920  -10.0640   10.0160 O.2    92  ASP92      -0.2867
     85  CB        17.3680   -7.1550    9.0860 C.3    92  ASP92       0.1410
     86  CG        18.5300   -6.1720    9.2650 C.2    92  ASP92       0.3668
     87  OD1       19.6560   -6.5940    9.5840 O.co2  92  ASP92      -0.2456
     88  OD2       18.2890   -4.9770    9.0160 O.co2  92  ASP92      -0.2456
     89  N         15.8090  -12.1480   11.8600 N.3    96  ASN96      -0.1225
     90  CA        14.8340  -11.9070   12.8510 C.3    96  ASN96       0.1785
     91  C         13.6120  -12.8370   12.7870 C.2    96  ASN96       0.2597
     92  O         13.0030  -13.0720   13.7730 O.2    96  ASN96      -0.2718
     93  CB        14.3040  -10.4660   12.7690 C.3    96  ASN96       0.1169
     94  CG        15.1950   -9.4600   13.4940 C.2    96  ASN96       0.2627
     95  OD1       15.0080   -9.2340   14.6940 O.2    96  ASN96      -0.2716
     96  ND2       16.1050   -8.8060   12.7700 N.am   96  ASN96      -0.0877
     97  N         13.2680  -13.3460   11.5950 N.am   97  LEU97      -0.1980
     98  CA        12.0560  -14.1390   11.3730 C.3    97  LEU97       0.1596
     99  C         12.3360  -15.5520   10.8760 C.2    97  LEU97       0.2287
    100  O         11.6080  -16.0910   10.1050 O.2    97  LEU97      -0.2864
    101  CB        11.0420  -13.3830   10.4570 C.3    97  LEU97       0.0297
    102  CG        10.4770  -12.1180   11.0890 C.3    97  LEU97       0.0022
    103  CD1        9.5790  -11.4330   10.0570 C.3    97  LEU97       0.0001
    104  CD2        9.6500  -12.4600   12.3450 C.3    97  LEU97       0.0001
    105  N         16.5930  -18.0720   18.6580 N.3   102  LYS102     -0.1245
    106  CA        16.2740  -16.9080   19.4650 C.3   102  LYS102      0.1561
    107  C         16.5330  -17.3470   20.8980 C.2   102  LYS102      0.2260
    108  O         16.2280  -18.5150   21.2740 O.2   102  LYS102     -0.2867
    109  CB        14.8100  -16.4970   19.2790 C.3   102  LYS102      0.0271
    110  CG        14.5270  -15.7560   17.9750 C.3   102  LYS102      0.0035
    111  CD        15.1220  -14.3610   18.0040 C.3   102  LYS102      0.0206
    112  CE        14.3730  -13.4490   18.9620 C.3   102  LYS102      0.1093
    113  NZ        13.0140  -13.1200   18.4490 N.3   102  LYS102     -0.1314
    114  N          6.5820  -11.9470   18.1390 N.3   128  PHE128     -0.1241
    115  CA         6.0540  -12.0670   16.7660 C.3   128  PHE128      0.1605
    116  C          5.2110  -13.3190   16.5700 C.2   128  PHE128      0.2264
    117  O          4.1810  -13.2890   15.9420 O.2   128  PHE128     -0.2867
    118  CB         7.1840  -12.0630   15.7470 C.3   128  PHE128      0.0534
    119  CG         6.7280  -12.5270   14.3660 C.ar  128  PHE128     -0.0203
    120  CD1        6.0090  -11.6470   13.5450 C.ar  128  PHE128     -0.0042
    121  CD2        6.9460  -13.8120   13.9290 C.ar  128  PHE128     -0.0042
    122  CE1        5.5130  -12.0660   12.3100 C.ar  128  PHE128     -0.0003
    123  CE2        6.5150  -14.1970   12.6490 C.ar  128  PHE128     -0.0003
    124  CZ         5.7520  -13.3550   11.8870 C.ar  128  PHE128     -0.0000
    125  N          4.9030  -10.7210    5.8120 N.3   140  VAL140     -0.1245
    126  CA         5.5930   -9.5660    6.3770 C.3   140  VAL140      0.1561
    127  C          6.3430   -8.8670    5.2510 C.2   140  VAL140      0.2260
    128  O          7.2600   -9.4590    4.5920 O.2   140  VAL140     -0.2867
    129  CB         6.5940   -9.9400    7.4890 C.3   140  VAL140      0.0252
    130  CG1        7.4250   -8.6960    7.9620 C.3   140  VAL140      0.0019
    131  CG2        5.9560  -10.6700    8.6620 C.3   140  VAL140      0.0019
    132  N          7.8390   -1.6640    8.0740 N.3   174  THR174     -0.1218
    133  CA         7.4050   -3.0310    8.0290 C.3   174  THR174      0.1862
    134  C          5.9210   -3.1170    8.1300 C.2   174  THR174      0.2287
    135  O          5.2730   -2.4000    8.9170 O.2   174  THR174     -0.2866
    136  CB         8.0430   -3.8390    9.2170 C.3   174  THR174      0.1770
    137  OG1        9.4720   -3.8810    9.0210 O.3   174  THR174     -0.2211
    138  CG2        7.4680   -5.2490    9.2870 C.3   174  THR174      0.0375
    139  N          2.8540   -6.0170    8.6380 N.3   176  VAL176     -0.1245
    140  CA         2.5430   -7.3990    8.9870 C.3   176  VAL176      0.1561
    141  C          1.0630   -7.6410    8.6060 C.2   176  VAL176      0.2260
    142  O          0.1960   -6.9340    9.1060 O.2   176  VAL176     -0.2867
    143  CB         2.7240   -7.6730   10.4850 C.3   176  VAL176      0.0252
    144  CG1        2.3750   -9.1180   10.8260 C.3   176  VAL176      0.0019
    145  CG2        4.1740   -7.3110   10.8700 C.3   176  VAL176      0.0019
@<TRIPOS>BOND
     1   128   127    2
     2    76    75    2
     3   127   126    1
     4   125   126    1
     5    75    74    1
     6   126   129    1
     7   129   130    1
     8   129   131    1
     9    73    74    1
    10    73    71   am
    11    74    77    1
    12    81    82    1
    13    77    78    1
    14   133   132    1
    15   133   134    1
    16   133   136    1
    17   134   135    2
    18    64    63    2
    19    70    71    1
    20    70    69    1
    21    71    72    2
    22   141   140    1
    23   141   142    2
    24   139   140    1
    25    56    55    2
    26    82    83    1
    27    82    85    1
    28    83    84    2
    29   140   143    1
    30    88    86   ar
    31   137   136    1
    32    85    86    1
    33   136   138    1
    34    86    87   ar
    35    63    69   am
    36    63    62    1
    37    80    79    1
    38    78    79    1
    39    55    54    1
    40    48    47    2
    41    53    54    1
    42   103   102    1
    43    45    46    1
    44   100    99    2
    45    47    46    1
    46    62    61    1
    47    62    65    1
    48   101   102    1
    49   101    98    1
    50   143   144    1
    51   143   145    1
    52    54    57    1
    53    66    65    1
    54    66    68    1
    55    99    98    1
    56    46    49    1
    57    59    58   ar
    58   102   104    1
    59    98    97    1
    60    65    67    1
    61    97    91   am
    62    58    57    1
    63    58    60   ar
    64    89    90    1
    65   124   122   ar
    66   124   123   ar
    67    49    50    1
    68    49    51    1
    69   122   120   ar
    70    52    50    1
    71   123   121   ar
    72    93    90    1
    73    93    94    1
    74    96    94   am
    75    91    90    1
    76    91    92    2
    77    94    95    2
    78   120   119   ar
    79   121   119   ar
    80    35    32    1
    81    34    33    2
    82    22    21    1
    83   119   118    1
    84     7     6    1
    85    33    32    1
    86    39    38    2
    87    38    37    1
    88    32    31    1
    89    21    18    1
    90     8     6    1
    91    40    37    1
    92    40    41    1
    93    18    19    1
    94    18    17    1
    95   118   115    1
    96     6     5    1
    97    20    19    2
    98    42    41    1
    99    42    43    1
   100   117   116    2
   101     5     2    1
   102    37    36    1
   103    17    11   am
   104    31    25   am
   105    12    11    2
   106   116   115    1
   107     4     3    2
   108   115   114    1
   109    11    10    1
   110    13    14    1
   111    13    10    1
   112    43    44    1
   113    16    14   am
   114     2     3    1
   115     2     1    1
   116    25    26    2
   117    25    24    1
   118    14    15    2
   119    10     9    1
   120   110   111    1
   121   110   109    1
   122   111   112    1
   123   113   112    1
   124   105   106    1
   125    23    24    1
   126    24    27    1
   127    27    28    1
   128   109   106    1
   129   106   107    1
   130    28    30   ar
   131    28    29   ar
   132   107   108    2
