@<TRIPOS>MOLECULE
tmp/4egnC01.pdb
 121 113 0 0 0
SMALL
GASTEIGER

@<TRIPOS>ATOM
      1  N         50.6110    6.6780  -27.9430 N.3    76  ARG76      -0.1245
      2  CA        49.8200    5.4580  -28.0930 C.3    76  ARG76       0.1563
      3  C         50.4660    4.6530  -29.2810 C.2    76  ARG76       0.2260
      4  O         51.2390    5.2210  -30.0680 O.2    76  ARG76      -0.2867
      5  CB        48.3150    5.7770  -28.3420 C.3    76  ARG76       0.0307
      6  CG        48.0330    6.3690  -29.7340 C.3    76  ARG76       0.0489
      7  CD        46.5340    6.4780  -30.0400 C.3    76  ARG76       0.2205
      8  NE        46.3980    7.0850  -31.3530 N.pl3  76  ARG76      -0.0865
      9  CZ        45.2800    7.1100  -32.0950 C.cat  76  ARG76       0.5346
     10  NH1       44.1630    6.5700  -31.6310 N.pl3  76  ARG76       0.1354
     11  NH2       45.2930    7.6360  -33.3310 N.pl3  76  ARG76       0.1354
     12  N         49.0080    4.5860  -35.4310 N.3    79  SER79      -0.1217
     13  CA        48.0070    4.2310  -36.4140 C.3    79  SER79       0.1889
     14  C         48.6730    3.4640  -37.5340 C.2    79  SER79       0.2288
     15  O         49.7420    3.8800  -38.0090 O.2    79  SER79      -0.2866
     16  CB        47.3800    5.4890  -36.9610 C.3    79  SER79       0.2089
     17  OG        46.4660    5.2790  -38.0120 O.3    79  SER79      -0.2183
     18  N         47.5970    3.4640  -40.4050 N.3    81  ILE81      -0.1231
     19  CA        47.3570    4.1410  -41.6380 C.3    81  ILE81       0.1692
     20  C         47.8450    5.5840  -41.5950 C.2    81  ILE81       0.2591
     21  O         48.6760    5.9660  -42.4180 O.2    81  ILE81      -0.2718
     22  CB        45.8900    3.9830  -42.1430 C.3    81  ILE81       0.0266
     23  CG1       45.6910    4.6310  -43.5080 C.3    81  ILE81       0.0019
     24  CG2       44.8460    4.5640  -41.2880 C.3    81  ILE81       0.0020
     25  CD1       44.2250    4.5380  -43.9070 C.3    81  ILE81       0.0001
     26  N         47.4240    6.3310  -40.5790 N.am   82  LEU82      -0.1980
     27  CA        47.7000    7.8000  -40.5340 C.3    82  LEU82       0.1596
     28  C         49.2000    7.9900  -40.3620 C.2    82  LEU82       0.2287
     29  O         49.8200    8.9100  -40.9330 O.2    82  LEU82      -0.2864
     30  CB        46.9240    8.4990  -39.3670 C.3    82  LEU82       0.0297
     31  CG        47.2570    9.9950  -39.2340 C.3    82  LEU82       0.0022
     32  CD1       46.6680   10.7600  -40.4380 C.3    82  LEU82       0.0001
     33  CD2       46.6600   10.4820  -37.9570 C.3    82  LEU82       0.0001
     34  N         42.8240   12.4340  -28.8520 N.3   165  VAL165     -0.1231
     35  CA        43.7630   12.0660  -29.8800 C.3   165  VAL165      0.1692
     36  C         44.1360   13.2670  -30.7800 C.2   165  VAL165      0.2592
     37  O         45.3210   13.4050  -31.1680 O.2   165  VAL165     -0.2718
     38  CB        43.2220   10.9870  -30.8150 C.3   165  VAL165      0.0266
     39  CG1       44.3500   10.6830  -31.8960 C.3   165  VAL165      0.0020
     40  CG2       42.8580    9.7130  -30.0620 C.3   165  VAL165      0.0020
     41  N         43.1630   14.1040  -31.1230 N.am  166  PHE166     -0.1976
     42  CA        43.4930   15.4050  -31.7650 C.3   166  PHE166      0.1639
     43  C         44.3610   16.3460  -30.9440 C.2   166  PHE166      0.2290
     44  O         45.2230   17.0190  -31.4940 O.2   166  PHE166     -0.2864
     45  CB        42.2410   16.1060  -32.2260 C.3   166  PHE166      0.0560
     46  CG        41.6500   15.4750  -33.5000 C.ar  166  PHE166     -0.0200
     47  CD1       40.4500   14.7390  -33.4700 C.ar  166  PHE166     -0.0042
     48  CD2       42.3530   15.5890  -34.7250 C.ar  166  PHE166     -0.0042
     49  CE1       39.9720   14.1090  -34.6290 C.ar  166  PHE166     -0.0003
     50  CE2       41.8610   15.0030  -35.9280 C.ar  166  PHE166     -0.0003
     51  CZ        40.6880   14.2830  -35.8960 C.ar  166  PHE166     -0.0000
     52  N         48.2330   15.3280  -31.0820 N.3   169  PHE169     -0.1241
     53  CA        49.1590   15.7700  -32.1580 C.3   169  PHE169      0.1605
     54  C         49.9070   17.0650  -31.7810 C.2   169  PHE169      0.2264
     55  O         50.9490   17.3660  -32.3860 O.2   169  PHE169     -0.2867
     56  CB        48.3880   16.0890  -33.4440 C.3   169  PHE169      0.0534
     57  CG        47.6860   14.8790  -34.0290 C.ar  169  PHE169     -0.0203
     58  CD1       46.2970   14.8800  -34.1960 C.ar  169  PHE169     -0.0042
     59  CD2       48.4260   13.7310  -34.3850 C.ar  169  PHE169     -0.0042
     60  CE1       45.6380   13.7440  -34.7410 C.ar  169  PHE169     -0.0003
     61  CE2       47.7970   12.5850  -34.9170 C.ar  169  PHE169     -0.0003
     62  CZ        46.3930   12.6150  -35.1330 C.ar  169  PHE169     -0.0000
     63  N         40.1950    1.0940  -34.6490 N.3   227  ARG227     -0.1231
     64  CA        40.6600    2.1990  -33.7780 C.3   227  ARG227      0.1694
     65  C         40.8070    3.5120  -34.5730 C.2   227  ARG227      0.2592
     66  O         40.3600    4.5670  -34.1240 O.2   227  ARG227     -0.2718
     67  CB        41.9740    1.8620  -33.0800 C.3   227  ARG227      0.0321
     68  CG        42.2880    2.8250  -31.8420 C.3   227  ARG227      0.0489
     69  CD        43.7550    2.6800  -31.3850 C.3   227  ARG227      0.2205
     70  NE        44.6020    3.3210  -32.4010 N.pl3 227  ARG227     -0.0865
     71  CZ        45.9300    3.4010  -32.2970 C.cat 227  ARG227      0.5346
     72  NH1       46.6600    4.0380  -33.2150 N.pl3 227  ARG227      0.1354
     73  NH2       46.5460    2.8590  -31.2570 N.pl3 227  ARG227      0.1354
     74  N         41.3270    3.4010  -35.8160 N.am  228  SER228     -0.1952
     75  CA        41.4090    4.5350  -36.7340 C.3   228  SER228      0.1924
     76  C         40.0470    5.1770  -36.9530 C.2   228  SER228      0.2314
     77  O         39.9260    6.4450  -36.8810 O.2   228  SER228     -0.2863
     78  CB        42.0660    4.1120  -38.0500 C.3   228  SER228      0.2116
     79  OG        43.4570    4.0880  -37.8480 O.3   228  SER228     -0.2180
     80  N         38.9460    6.8820  -33.8810 N.3   231  SER231     -0.1202
     81  CA        39.6860    8.0770  -33.6150 C.3   231  SER231      0.2020
     82  C         39.1670    9.2280  -34.4440 C.2   231  SER231      0.2618
     83  O         39.0460   10.3350  -33.9110 O.2   231  SER231     -0.2717
     84  CB        41.1750    7.8930  -33.8550 C.3   231  SER231      0.2103
     85  OG        41.6890    6.8830  -33.0270 O.3   231  SER231     -0.2182
     86  N         38.9820    9.0060  -35.7650 N.am  232  ALA232     -0.1979
     87  CA        38.8420   10.0890  -36.6670 C.3   232  ALA232      0.1597
     88  C         37.4090   10.2970  -37.1200 C.2   232  ALA232      0.2287
     89  O         37.1510   11.2850  -37.8130 O.2   232  ALA232     -0.2864
     90  CB        39.6520    9.8200  -37.9440 C.3   232  ALA232      0.0319
     91  N         35.4430   14.8510  -36.1520 N.3   236  THR236     -0.1218
     92  CA        35.6160   15.5800  -37.4380 C.3   236  THR236      0.1862
     93  C         34.2710   16.0140  -38.0400 C.2   236  THR236      0.2287
     94  O         34.0670   17.2080  -38.3520 O.2   236  THR236     -0.2866
     95  CB        36.3280   14.6950  -38.4840 C.3   236  THR236      0.1770
     96  OG1       35.6440   13.4460  -38.5370 O.3   236  THR236     -0.2211
     97  CG2       37.7630   14.4750  -38.0780 C.3   236  THR236      0.0375
     98  N         39.7420   20.4190  -39.4520 N.3   279  VAL279     -0.1245
     99  CA        41.0680   19.8970  -39.1250 C.3   279  VAL279      0.1561
    100  C         42.0560   20.9250  -39.6130 C.2   279  VAL279      0.2260
    101  O         42.1800   21.1520  -40.8320 O.2   279  VAL279     -0.2867
    102  CB        41.2540   18.5210  -39.8560 C.3   279  VAL279      0.0252
    103  CG1       42.6240   17.9480  -39.6290 C.3   279  VAL279      0.0019
    104  CG2       40.1940   17.5370  -39.3480 C.3   279  VAL279      0.0019
    105  N         48.3960   19.5140  -39.9140 N.3   282  PHE282     -0.1241
    106  CA        49.1450   18.2660  -39.6730 C.3   282  PHE282      0.1605
    107  C         50.5800   18.5270  -39.9640 C.2   282  PHE282      0.2264
    108  O         50.8820   19.5060  -40.6570 O.2   282  PHE282     -0.2867
    109  CB        48.6110   17.1030  -40.5830 C.3   282  PHE282      0.0534
    110  CG        47.5110   16.2920  -39.9360 C.ar  282  PHE282     -0.0203
    111  CD1       46.2140   16.2240  -40.5170 C.ar  282  PHE282     -0.0042
    112  CD2       47.7620   15.5960  -38.7320 C.ar  282  PHE282     -0.0042
    113  CE1       45.1660   15.4390  -39.9070 C.ar  282  PHE282     -0.0003
    114  CE2       46.7380   14.8650  -38.1100 C.ar  282  PHE282     -0.0003
    115  CZ        45.4480   14.7620  -38.7240 C.ar  282  PHE282     -0.0000
    116  N         41.7170   12.0980  -46.7470 N.3   342  CYS342     -0.1235
    117  CA        40.6850   11.4610  -45.8910 C.3   342  CYS342      0.1677
    118  C         40.0200   10.1840  -46.4530 C.2   342  CYS342      0.2270
    119  O         39.2440   10.2350  -47.4140 O.2   342  CYS342     -0.2867
    120  CB        39.6040   12.4610  -45.5730 C.3   342  CYS342      0.0956
    121  SG        38.4380   11.8330  -44.3230 S.3   342  CYS342     -0.0801
@<TRIPOS>BOND
     1   119   118    2
     2   116   117    1
     3   118   117    1
     4   117   120    1
     5   120   121    1
     6    25    23    1
     7    23    22    1
     8    21    20    2
     9    22    19    1
    10    22    24    1
    11    19    20    1
    12    19    18    1
    13    20    26   am
    14    29    28    2
    15   101   100    2
    16   108   107    2
    17   109   110    1
    18   109   106    1
    19    26    27    1
    20    27    28    1
    21    27    30    1
    22   111   110   ar
    23   111   113   ar
    24    32    31    1
    25   107   106    1
    26   110   112   ar
    27   105   106    1
    28   113   115   ar
    29   102   103    1
    30   102   104    1
    31   102    99    1
    32   100    99    1
    33    98    99    1
    34    30    31    1
    35    31    33    1
    36   112   114   ar
    37   115   114   ar
    38    96    95    1
    39    95    97    1
    40    95    92    1
    41    94    93    2
    42    78    79    1
    43    78    75    1
    44    93    92    1
    45    17    16    1
    46    15    14    2
    47    90    87    1
    48    89    88    2
    49    14    13    1
    50    92    91    1
    51    88    87    1
    52    16    13    1
    53    76    77    2
    54    76    75    1
    55    75    74    1
    56    87    86    1
    57    13    12    1
    58    50    51   ar
    59    50    48   ar
    60    51    49   ar
    61    74    65   am
    62    86    82   am
    63    62    61   ar
    64    62    60   ar
    65    61    59   ar
    66    60    58   ar
    67    48    46   ar
    68    63    64    1
    69    49    47   ar
    70    65    66    2
    71    65    64    1
    72    82    83    2
    73    82    81    1
    74    59    57   ar
    75    58    57   ar
    76    57    56    1
    77    80    81    1
    78    84    81    1
    79    84    85    1
    80    64    67    1
    81    46    47   ar
    82    46    45    1
    83    56    53    1
    84    11     9    1
    85    72    71    1
    86    67    68    1
    87    70    71    2
    88    70    69    1
    89    55    54    2
    90    71    73    1
    91    45    42    1
    92    53    54    1
    93    53    52    1
    94     9    10    1
    95     9     8    2
    96    39    38    1
    97    68    69    1
    98    42    41    1
    99    42    43    1
   100    44    43    2
   101     8     7    1
   102    37    36    2
   103    41    36   am
   104    38    40    1
   105    38    35    1
   106    36    35    1
   107     4     3    2
   108     7     6    1
   109    35    34    1
   110     6     5    1
   111     3     2    1
   112     5     2    1
   113     2     1    1
