@<TRIPOS>MOLECULE
tmp/4egoD02.pdb
 121 113 0 0 0
SMALL
GASTEIGER

@<TRIPOS>ATOM
      1  N          2.6950  -66.1500   26.9540 N.3    76  ARG76      -0.1245
      2  CA         3.3570  -67.4320   27.0160 C.3    76  ARG76       0.1563
      3  C          2.6690  -68.2770   28.0790 C.2    76  ARG76       0.2260
      4  O          1.8910  -67.7400   28.8270 O.2    76  ARG76      -0.2867
      5  CB         4.8050  -67.2180   27.4520 C.3    76  ARG76       0.0307
      6  CG         4.9590  -66.5370   28.9040 C.3    76  ARG76       0.0489
      7  CD         6.4120  -66.5940   29.3740 C.3    76  ARG76       0.2205
      8  NE         6.4770  -66.0320   30.7320 N.pl3  76  ARG76      -0.0865
      9  CZ         7.5530  -66.0250   31.5200 C.cat  76  ARG76       0.5346
     10  NH1        8.6300  -66.5730   31.0810 N.pl3  76  ARG76       0.1354
     11  NH2        7.5010  -65.5580   32.8100 N.pl3  76  ARG76       0.1354
     12  N          3.4860  -68.5530   34.4690 N.3    79  SER79      -0.1217
     13  CA         4.4550  -68.9690   35.4610 C.3    79  SER79       0.1889
     14  C          3.6360  -69.7410   36.5220 C.2    79  SER79       0.2288
     15  O          2.5630  -69.3290   36.8640 O.2    79  SER79      -0.2866
     16  CB         5.0920  -67.7460   36.1410 C.3    79  SER79       0.2089
     17  OG         5.7970  -68.1050   37.2850 O.3    79  SER79      -0.2183
     18  N          4.4200  -69.9510   39.5180 N.3    81  ILE81      -0.1231
     19  CA         4.5700  -69.3520   40.7900 C.3    81  ILE81       0.1692
     20  C          4.1430  -67.8910   40.7850 C.2    81  ILE81       0.2591
     21  O          3.2320  -67.4740   41.5590 O.2    81  ILE81      -0.2718
     22  CB         6.0370  -69.5760   41.3660 C.3    81  ILE81       0.0266
     23  CG1        6.1600  -68.9630   42.7500 C.3    81  ILE81       0.0019
     24  CG2        7.0840  -69.0870   40.4710 C.3    81  ILE81       0.0020
     25  CD1        7.6360  -69.0140   43.3160 C.3    81  ILE81       0.0001
     26  N          4.6860  -67.0950   39.8390 N.am   82  LEU82      -0.1980
     27  CA         4.2740  -65.6590   39.8330 C.3    82  LEU82       0.1596
     28  C          2.8200  -65.4910   39.5050 C.2    82  LEU82       0.2287
     29  O          2.1810  -64.5530   40.0040 O.2    82  LEU82      -0.2864
     30  CB         5.0610  -64.9200   38.6860 C.3    82  LEU82       0.0297
     31  CG         4.8930  -63.3680   38.7140 C.3    82  LEU82       0.0022
     32  CD1        5.5460  -62.6970   39.8830 C.3    82  LEU82       0.0001
     33  CD2        5.5320  -62.8310   37.3370 C.3    82  LEU82       0.0001
     34  N         10.4670  -60.5800   28.8870 N.3   165  VAL165     -0.1231
     35  CA         9.5220  -60.9460   29.9690 C.3   165  VAL165      0.1692
     36  C          8.9440  -59.6660   30.6880 C.2   165  VAL165      0.2592
     37  O          7.6880  -59.5060   30.7840 O.2   165  VAL165     -0.2718
     38  CB        10.2120  -61.8890   30.9760 C.3   165  VAL165      0.0266
     39  CG1        9.3390  -62.1430   32.1870 C.3   165  VAL165      0.0020
     40  CG2       10.4910  -63.2220   30.2240 C.3   165  VAL165      0.0020
     41  N          9.8470  -58.8180   31.1150 N.am  166  PHE166     -0.1976
     42  CA         9.5480  -57.5430   31.7980 C.3   166  PHE166      0.1639
     43  C          8.8050  -56.5580   30.9460 C.2   166  PHE166      0.2290
     44  O          7.8370  -55.9360   31.4000 O.2   166  PHE166     -0.2864
     45  CB        10.7740  -56.9320   32.4900 C.3   166  PHE166      0.0560
     46  CG        11.1630  -57.6770   33.7320 C.ar  166  PHE166     -0.0200
     47  CD1       12.1380  -58.7200   33.6810 C.ar  166  PHE166     -0.0042
     48  CD2       10.5660  -57.3750   34.9550 C.ar  166  PHE166     -0.0042
     49  CE1       12.4870  -59.4710   34.8590 C.ar  166  PHE166     -0.0003
     50  CE2       10.9190  -58.0740   36.1320 C.ar  166  PHE166     -0.0003
     51  CZ        11.9170  -59.0970   36.1040 C.ar  166  PHE166     -0.0000
     52  N          4.9460  -57.6200   30.6570 N.3   169  PHE169     -0.1241
     53  CA         3.9140  -57.2300   31.7310 C.3   169  PHE169      0.1605
     54  C          3.2190  -55.9330   31.3870 C.2   169  PHE169      0.2264
     55  O          2.1710  -55.6060   31.9340 O.2   169  PHE169     -0.2867
     56  CB         4.5150  -57.0270   33.1040 C.3   169  PHE169      0.0534
     57  CG         5.1410  -58.2630   33.6650 C.ar  169  PHE169     -0.0203
     58  CD1        6.4530  -58.2500   33.9660 C.ar  169  PHE169     -0.0042
     59  CD2        4.3550  -59.4020   33.9530 C.ar  169  PHE169     -0.0042
     60  CE1        7.1630  -59.3920   34.5310 C.ar  169  PHE169     -0.0003
     61  CE2        5.0170  -60.5540   34.5020 C.ar  169  PHE169     -0.0003
     62  CZ         6.3810  -60.5290   34.8060 C.ar  169  PHE169     -0.0000
     63  N         12.4760  -72.1600   34.2960 N.3   227  ARG227     -0.1231
     64  CA        12.1590  -71.0380   33.3840 C.3   227  ARG227      0.1694
     65  C         11.9380  -69.7510   34.2610 C.2   227  ARG227      0.2592
     66  O         12.2920  -68.6320   33.8360 O.2   227  ARG227     -0.2718
     67  CB        10.9040  -71.3550   32.6670 C.3   227  ARG227      0.0321
     68  CG        10.6190  -70.3470   31.4080 C.3   227  ARG227      0.0489
     69  CD         9.2110  -70.4580   30.8960 C.3   227  ARG227      0.2205
     70  NE         8.1890  -69.8510   31.7680 N.pl3 227  ARG227     -0.0865
     71  CZ         6.8880  -69.7560   31.4470 C.cat 227  ARG227      0.5346
     72  NH1        6.0450  -69.1800   32.3240 N.pl3 227  ARG227      0.1354
     73  NH2        6.3950  -70.2580   30.2980 N.pl3 227  ARG227      0.1354
     74  N         11.3260  -69.9350   35.4430 N.am  228  SER228     -0.1952
     75  CA        11.1300  -68.7930   36.4070 C.3   228  SER228      0.1924
     76  C         12.4550  -68.1750   36.7700 C.2   228  SER228      0.2314
     77  O         12.6040  -66.9380   36.7770 O.2   228  SER228     -0.2863
     78  CB        10.4050  -69.2760   37.6840 C.3   228  SER228      0.2116
     79  OG         8.9820  -69.3050   37.4040 O.3   228  SER228     -0.2180
     80  N         13.8860  -66.2640   33.8760 N.3   231  SER231     -0.1202
     81  CA        13.1820  -65.0140   33.6090 C.3   231  SER231      0.2020
     82  C         13.5570  -63.9350   34.6110 C.2   231  SER231      0.2618
     83  O         13.7970  -62.7920   34.2560 O.2   231  SER231     -0.2717
     84  CB        11.6760  -65.2190   33.6860 C.3   231  SER231      0.2103
     85  OG        11.3070  -66.2470   32.8060 O.3   231  SER231     -0.2182
     86  N         13.5610  -64.2820   35.8860 N.am  232  ALA232     -0.1979
     87  CA        13.5250  -63.2670   36.9370 C.3   232  ALA232      0.1597
     88  C         14.8570  -63.0490   37.5950 C.2   232  ALA232      0.2287
     89  O         15.0180  -62.1220   38.4330 O.2   232  ALA232     -0.2864
     90  CB        12.5460  -63.7970   38.0470 C.3   232  ALA232      0.0319
     91  N         17.2160  -58.4530   36.9020 N.3   236  THR236     -0.1218
     92  CA        16.9010  -57.7270   38.1390 C.3   236  THR236      0.1862
     93  C         18.1360  -57.4300   38.9270 C.2   236  THR236      0.2287
     94  O         18.3600  -56.3410   39.4210 O.2   236  THR236     -0.2866
     95  CB        16.0670  -58.6740   39.0220 C.3   236  THR236      0.1770
     96  OG1       16.7400  -59.9730   39.0070 O.3   236  THR236     -0.2211
     97  CG2       14.7450  -58.8530   38.4070 C.3   236  THR236      0.0375
     98  N         12.4800  -53.2550   40.0150 N.3   279  VAL279     -0.1245
     99  CA        11.1310  -53.6540   39.4870 C.3   279  VAL279      0.1561
    100  C         10.1310  -52.5690   39.9180 C.2   279  VAL279      0.2260
    101  O          9.8470  -52.4180   41.1220 O.2   279  VAL279     -0.2867
    102  CB        10.6750  -55.0820   40.0500 C.3   279  VAL279      0.0252
    103  CG1        9.2380  -55.3370   39.4510 C.3   279  VAL279      0.0019
    104  CG2       11.7030  -56.1330   39.5630 C.3   279  VAL279      0.0019
    105  N          3.8130  -53.7560   39.4850 N.3   282  PHE282     -0.1241
    106  CA         3.1320  -55.0250   39.1240 C.3   282  PHE282      0.1605
    107  C          1.6130  -54.7820   39.2680 C.2   282  PHE282      0.2264
    108  O          1.1730  -53.8720   39.9990 O.2   282  PHE282     -0.2867
    109  CB         3.5900  -56.1420   40.1390 C.3   282  PHE282      0.0534
    110  CG         4.6760  -56.9960   39.6340 C.ar  282  PHE282     -0.0203
    111  CD1        5.8480  -57.1170   40.3430 C.ar  282  PHE282     -0.0042
    112  CD2        4.5150  -57.6750   38.4360 C.ar  282  PHE282     -0.0042
    113  CE1        6.9300  -57.8860   39.8070 C.ar  282  PHE282     -0.0003
    114  CE2        5.5180  -58.4980   37.9180 C.ar  282  PHE282     -0.0003
    115  CZ         6.7780  -58.5880   38.6470 C.ar  282  PHE282     -0.0000
    116  N          9.7780  -61.6900   46.6980 N.3   342  CYS342     -0.1235
    117  CA        10.9180  -62.3400   45.9100 C.3   342  CYS342      0.1677
    118  C         11.5350  -63.6050   46.4960 C.2   342  CYS342      0.2270
    119  O         12.2000  -63.5650   47.5260 O.2   342  CYS342     -0.2867
    120  CB        12.0140  -61.3120   45.6970 C.3   342  CYS342      0.0956
    121  SG        13.2980  -62.0030   44.6300 S.3   342  CYS342     -0.0801
@<TRIPOS>BOND
     1     1     2    1
     2     2     5    1
     3     2     3    1
     4     5     6    1
     5     3     4    2
     6    34    35    1
     7     6     7    1
     8     7     8    1
     9    35    36    1
    10    35    38    1
    11    40    38    1
    12    73    71    1
    13    52    53    1
    14    36    37    2
    15    36    41   am
    16     8     9    2
    17    69    68    1
    18    69    70    1
    19    43    44    2
    20    43    42    1
    21    38    39    1
    22    10     9    1
    23    41    42    1
    24    54    53    1
    25    54    55    2
    26    68    67    1
    27    71    70    2
    28    71    72    1
    29     9    11    1
    30    53    56    1
    31    42    45    1
    32    45    46    1
    33    67    64    1
    34    85    84    1
    35    56    57    1
    36    64    65    1
    37    64    63    1
    38    81    84    1
    39    81    80    1
    40    81    82    1
    41    57    59   ar
    42    57    58   ar
    43    47    46   ar
    44    47    49   ar
    45    46    48   ar
    46    66    65    2
    47    59    61   ar
    48    58    60   ar
    49    83    82    2
    50    65    74   am
    51    12    13    1
    52    61    62   ar
    53    60    62   ar
    54    82    86   am
    55    49    51   ar
    56    48    50   ar
    57    74    75    1
    58    13    16    1
    59    13    14    1
    60    86    87    1
    61    51    50   ar
    62    16    17    1
    63    75    76    1
    64    75    78    1
    65    14    15    2
    66    76    77    2
    67    91    92    1
    68    87    88    1
    69    87    90    1
    70    33    31    1
    71    79    78    1
    72    88    89    2
    73   114   112   ar
    74   114   115   ar
    75    92    93    1
    76    92    95    1
    77    97    95    1
    78   112   110   ar
    79   115   113   ar
    80    30    31    1
    81    30    27    1
    82    31    32    1
    83    93    94    2
    84    96    95    1
    85   106   107    1
    86   106   105    1
    87   106   109    1
    88   107   108    2
    89   103   102    1
    90    99   100    1
    91    99    98    1
    92    99   102    1
    93    28    27    1
    94    28    29    2
    95    18    19    1
    96   104   102    1
    97   110   109    1
    98   110   111   ar
    99   113   111   ar
   100    27    26    1
   101    26    20   am
   102   100   101    2
   103    24    22    1
   104    20    19    1
   105    20    21    2
   106    19    22    1
   107    22    23    1
   108    23    25    1
   109   121   120    1
   110   120   117    1
   111   117   118    1
   112   117   116    1
   113   118   119    2
