@<TRIPOS>MOLECULE
tmp/4egoB02.pdb
 103 96 0 0 0
SMALL
GASTEIGER

@<TRIPOS>ATOM
      1  N         10.6780  -11.6930   -3.5310 N.3   137  GLU137     -0.1245
      2  CA         9.3250  -11.2100   -3.8350 C.3   137  GLU137      0.1567
      3  C          9.1210   -9.7670   -3.3800 C.2   137  GLU137      0.2260
      4  O          8.6260   -8.9830   -4.1440 O.2   137  GLU137     -0.2867
      5  CB         8.2540  -12.0480   -3.0520 C.3   137  GLU137      0.0388
      6  CG         8.1220  -13.4740   -3.5690 C.3   137  GLU137      0.1160
      7  CD         7.1130  -14.3790   -2.7650 C.2   137  GLU137      0.3649
      8  OE1        6.6670  -13.9970   -1.6640 O.co2 137  GLU137     -0.2457
      9  OE2        6.8570  -15.5180   -3.2210 O.co2 137  GLU137     -0.2457
     10  N          1.2990  -12.4360   -8.0510 N.3   159  LEU159     -0.1231
     11  CA         2.0920  -13.6440   -7.9790 C.3   159  LEU159      0.1678
     12  C          1.3240  -14.8920   -8.4340 C.2   159  LEU159      0.2434
     13  O          1.8160  -15.6190   -9.3280 O.2   159  LEU159     -0.2733
     14  CB         2.8680  -13.7430   -6.6150 C.3   159  LEU159      0.0284
     15  CG         4.0410  -12.7560   -6.3240 C.3   159  LEU159      0.0019
     16  CD1        4.4500  -12.9480   -4.7880 C.3   159  LEU159      0.0001
     17  CD2        5.2020  -12.9810   -7.2510 C.3   159  LEU159      0.0001
     18  N          0.1390  -15.1840   -7.8500 N.am  160  PRO160     -0.2729
     19  CA        -0.6410  -16.3660   -8.2360 C.3   160  PRO160      0.1401
     20  C         -1.1790  -16.2430   -9.6810 C.2   160  PRO160      0.2269
     21  O         -1.3190  -17.2750  -10.3650 O.2   160  PRO160     -0.2865
     22  CB        -1.8300  -16.3420   -7.2550 C.3   160  PRO160      0.0296
     23  CG        -1.6070  -15.2660   -6.3940 C.3   160  PRO160      0.0237
     24  CD        -0.5380  -14.4170   -6.7890 C.3   160  PRO160      0.0939
     25  N          1.6570  -17.4140  -11.6650 N.3   163  GLY163     -0.1210
     26  CA         1.8420  -18.8840  -11.4720 C.3   163  GLY163      0.1956
     27  C          0.8390  -19.6370  -12.3230 C.2   163  GLY163      0.2611
     28  O          1.1900  -20.6120  -13.0030 O.2   163  GLY163     -0.2717
     29  N         -0.3790  -19.1130  -12.4320 N.am  164  LEU164     -0.1979
     30  CA        -1.3920  -19.7110  -13.2850 C.3   164  LEU164      0.1596
     31  C         -0.9460  -19.6710  -14.7830 C.2   164  LEU164      0.2287
     32  O         -1.0470  -20.6910  -15.5010 O.2   164  LEU164     -0.2864
     33  CB        -2.7450  -18.9330  -13.1500 C.3   164  LEU164      0.0297
     34  CG        -3.7110  -19.0450  -14.3710 C.3   164  LEU164      0.0022
     35  CD1       -4.5760  -20.3910  -14.4770 C.3   164  LEU164      0.0001
     36  CD2       -4.6600  -17.8560  -14.0980 C.3   164  LEU164      0.0001
     37  N          1.8220  -22.1090  -15.3080 N.3   167  ASN167     -0.1240
     38  CA         1.2820  -23.5190  -15.2000 C.3   167  ASN167      0.1653
     39  C          0.5470  -23.9310  -16.4460 C.2   167  ASN167      0.2266
     40  O          0.5470  -25.0810  -16.8250 O.2   167  ASN167     -0.2867
     41  CB         0.3340  -23.7950  -13.9720 C.3   167  ASN167      0.1155
     42  CG         1.1680  -24.1730  -12.7080 C.2   167  ASN167      0.2627
     43  OD1        2.2090  -24.8800  -12.8610 O.2   167  ASN167     -0.2716
     44  ND2        0.8010  -23.6770  -11.5550 N.am  167  ASN167     -0.0877
     45  N         -4.7350  -25.0680  -11.3480 N.3   179  ALA179     -0.1245
     46  CA        -4.4940  -23.6430  -11.5990 C.3   179  ALA179      0.1562
     47  C         -5.7080  -23.0540  -12.3550 C.2   179  ALA179      0.2260
     48  O         -6.2590  -22.0130  -11.9450 O.2   179  ALA179     -0.2867
     49  CB        -3.2000  -23.4250  -12.3810 C.3   179  ALA179      0.0290
     50  N          6.8640  -12.5970  -11.8210 N.3   235  ASP235     -0.1239
     51  CA         7.3790  -13.7980  -11.1470 C.3   235  ASP235      0.1674
     52  C          8.6720  -14.3050  -11.6930 C.2   235  ASP235      0.2266
     53  O          9.4330  -14.9730  -10.9630 O.2   235  ASP235     -0.2867
     54  CB         6.4040  -15.0040  -11.3420 C.3   235  ASP235      0.1410
     55  CG         5.1960  -14.9620  -10.5270 C.2   235  ASP235      0.3668
     56  OD1        4.7960  -13.8070  -10.2110 O.co2 235  ASP235     -0.2456
     57  OD2        4.5360  -16.0880  -10.2960 O.co2 235  ASP235     -0.2456
     58  N         11.9150  -14.9710   -9.4310 N.3   239  ASN239     -0.1240
     59  CA        12.7420  -16.1830   -9.3880 C.3   239  ASN239      0.1653
     60  C         14.2270  -15.9570   -9.7740 C.2   239  ASN239      0.2266
     61  O         15.1460  -16.6830   -9.2840 O.2   239  ASN239     -0.2867
     62  CB        12.0280  -17.2630  -10.3100 C.3   239  ASN239      0.1155
     63  CG        10.7540  -17.8720   -9.6680 C.2   239  ASN239      0.2627
     64  OD1       10.0160  -18.6050  -10.3170 O.2   239  ASN239     -0.2716
     65  ND2       10.4410  -17.4560   -8.5380 N.am  239  ASN239     -0.0877
     66  N          8.8780  -24.1820   -4.8850 N.3   375  ARG375     -0.1231
     67  CA         7.5550  -23.9950   -5.4000 C.3   375  ARG375      0.1694
     68  C          7.4980  -24.7750   -6.7110 C.2   375  ARG375      0.2592
     69  O          8.2980  -24.5300   -7.5920 O.2   375  ARG375     -0.2718
     70  CB         7.2690  -22.5300   -5.7840 C.3   375  ARG375      0.0321
     71  CG         5.7140  -22.4530   -6.1070 C.3   375  ARG375      0.0489
     72  CD         5.1260  -21.0940   -6.1970 C.3   375  ARG375      0.2205
     73  NE         4.3980  -20.7610   -4.9430 N.pl3 375  ARG375     -0.0865
     74  CZ         4.9800  -19.9790   -4.0870 C.cat 375  ARG375      0.5346
     75  NH1        6.2010  -19.5760   -4.4510 N.pl3 375  ARG375      0.1354
     76  NH2        4.4070  -19.6040   -2.9460 N.pl3 375  ARG375      0.1354
     77  N          6.4560  -25.5870   -6.8960 N.am  376  PHE376     -0.1962
     78  CA         6.4350  -26.3760   -8.1110 C.3   376  PHE376      0.1771
     79  C          5.5010  -25.6950   -9.1220 C.2   376  PHE376      0.2616
     80  O          4.4870  -25.1870   -8.7360 O.2   376  PHE376     -0.2715
     81  CB         5.8780  -27.7610   -7.7890 C.3   376  PHE376      0.0574
     82  CG         6.7550  -28.5670   -6.8760 C.ar  376  PHE376     -0.0200
     83  CD1        6.1940  -29.1120   -5.7220 C.ar  376  PHE376     -0.0042
     84  CD2        8.1260  -28.6720   -7.0990 C.ar  376  PHE376     -0.0042
     85  CE1        6.9940  -29.8620   -4.8540 C.ar  376  PHE376     -0.0003
     86  CE2        8.9540  -29.3820   -6.2620 C.ar  376  PHE376     -0.0003
     87  CZ         8.3860  -29.9670   -5.1020 C.ar  376  PHE376     -0.0000
     88  N          5.9790  -25.6090  -10.3730 N.am  377  ASN377     -0.2025
     89  CA         5.2250  -24.9560  -11.4840 C.3   377  ASN377      0.1374
     90  C          5.6570  -25.6460  -12.7470 C.3   377  ASN377      0.2041
     91  O          6.8940  -26.0380  -12.8920 O.3   377  ASN377     -0.2185
     92  CB         5.5720  -23.4410  -11.4920 C.3   377  ASN377      0.1128
     93  CG         4.7460  -22.6440  -12.5220 C.2   377  ASN377      0.2626
     94  OD1        5.0480  -22.6440  -13.7280 O.2   377  ASN377     -0.2716
     95  ND2        3.6600  -21.9780  -12.0330 N.am  377  ASN377     -0.0877
     96  N          7.8810  -22.4030  -14.4600 N.3   380  LEU380     -0.1245
     97  CA         8.7860  -21.5340  -13.6620 C.3   380  LEU380      0.1561
     98  C          9.5790  -22.3830  -12.6750 C.2   380  LEU380      0.2260
     99  O          9.0070  -23.2700  -12.0410 O.2   380  LEU380     -0.2867
    100  CB         7.9440  -20.5560  -12.7720 C.3   380  LEU380      0.0270
    101  CG         7.3550  -19.4310  -13.6190 C.3   380  LEU380      0.0019
    102  CD1        6.3550  -18.7330  -12.7030 C.3   380  LEU380      0.0001
    103  CD2        8.5320  -18.3740  -13.9920 C.3   380  LEU380      0.0001
@<TRIPOS>BOND
     1    40    39    2
     2    39    38    1
     3    32    31    2
     4    37    38    1
     5    38    41    1
     6    31    30    1
     7    35    34    1
     8    96    97    1
     9    34    36    1
    10    34    33    1
    11   103   101    1
    12    41    42    1
    13    94    93    2
    14    97   100    1
    15    97    98    1
    16   101   100    1
    17   101   102    1
    18    30    33    1
    19    30    29    1
    20    28    27    2
    21    91    90    1
    22    43    42    2
    23    90    89    1
    24    42    44   am
    25    98    99    2
    26    93    95   am
    27    93    92    1
    28    29    27   am
    29    49    46    1
    30    47    48    2
    31    47    46    1
    32    27    26    1
    33    50    51    1
    34    52    51    1
    35    52    53    2
    36    25    26    1
    37    46    45    1
    38    92    89    1
    39    89    88    1
    40    54    51    1
    41    54    55    1
    42    55    57   ar
    43    55    56   ar
    44    88    79   am
    45    21    20    2
    46    64    63    2
    47    62    63    1
    48    62    59    1
    49    60    59    1
    50    60    61    2
    51    20    19    1
    52    63    65   am
    53    58    59    1
    54    13    12    2
    55    79    80    2
    56    79    78    1
    57    12    11    1
    58    12    18   am
    59    19    18    1
    60    19    22    1
    61    78    81    1
    62    78    77    1
    63    10    11    1
    64    11    14    1
    65    18    24    1
    66    81    82    1
    67    69    68    2
    68    22    23    1
    69    17    15    1
    70    84    82   ar
    71    84    86   ar
    72    77    68   am
    73    82    83   ar
    74    24    23    1
    75    68    67    1
    76    14    15    1
    77    15    16    1
    78    86    87   ar
    79    72    71    1
    80    72    73    1
    81    71    70    1
    82    70    67    1
    83    83    85   ar
    84    67    66    1
    85    87    85   ar
    86    73    74    2
    87    75    74    1
    88     4     3    2
    89    74    76    1
    90     2     1    1
    91     2     3    1
    92     2     5    1
    93     6     5    1
    94     6     7    1
    95     9     7   ar
    96     7     8   ar
