@<TRIPOS>MOLECULE
tmp/4egpA02.pdb
 120 110 0 0 0
SMALL
GASTEIGER

@<TRIPOS>ATOM
      1  N        -46.4940    3.9910   -9.7450 N.3   137  GLU137     -0.1245
      2  CA       -46.1220    4.1680   -8.3430 C.3   137  GLU137      0.1567
      3  C        -44.6200    3.9020   -8.1480 C.2   137  GLU137      0.2260
      4  O        -43.8890    4.7540   -7.6500 O.2   137  GLU137     -0.2867
      5  CB       -46.9490    3.2490   -7.4220 C.3   137  GLU137      0.0388
      6  CG       -48.0640    3.9340   -6.6490 C.3   137  GLU137      0.1160
      7  CD       -49.1190    2.9660   -6.1180 C.2   137  GLU137      0.3649
      8  OE1      -48.7260    1.9350   -5.5420 O.co2 137  GLU137     -0.2457
      9  OE2      -50.3400    3.2310   -6.2690 O.co2 137  GLU137     -0.2457
     10  N        -47.9660    8.6110   -0.4980 N.3   159  LEU159     -0.1231
     11  CA       -49.1250    8.7070   -1.3380 C.3   159  LEU159      0.1678
     12  C        -50.3920    8.9830   -0.5420 C.2   159  LEU159      0.2434
     13  O        -51.1590    9.8660   -0.9060 O.2   159  LEU159     -0.2733
     14  CB       -49.2390    7.4920   -2.2360 C.3   159  LEU159      0.0284
     15  CG       -48.3930    7.6910   -3.4970 C.3   159  LEU159      0.0019
     16  CD1      -46.9060    7.7410   -3.1180 C.3   159  LEU159      0.0001
     17  CD2      -48.6880    6.6370   -4.5390 C.3   159  LEU159      0.0001
     18  N        -50.5940    8.2780    0.5760 N.am  160  PRO160     -0.2729
     19  CA       -51.7940    8.5610    1.4000 C.3   160  PRO160      0.1401
     20  C        -51.8230    9.9860    1.9620 C.2   160  PRO160      0.2269
     21  O        -52.8970   10.5650    2.1480 O.2   160  PRO160     -0.2865
     22  CB       -51.6950    7.5640    2.5530 C.3   160  PRO160      0.0296
     23  CG       -50.5750    6.6250    2.2050 C.3   160  PRO160      0.0237
     24  CD       -49.7200    7.2640    1.1820 C.3   160  PRO160      0.0939
     25  N        -52.7830   12.2080   -1.0830 N.3   163  GLY163     -0.1210
     26  CA       -54.1880   11.9190   -1.3590 C.3   163  GLY163      0.1956
     27  C        -55.1230   12.6780   -0.4400 C.2   163  GLY163      0.2611
     28  O        -56.1640   13.1600   -0.8800 O.2   163  GLY163     -0.2717
     29  N        -54.7380   12.7650    0.8390 N.am  164  LEU164     -0.1979
     30  CA       -55.4380   13.5150    1.8940 C.3   164  LEU164      0.1596
     31  C        -55.5670   14.9660    1.4950 C.2   164  LEU164      0.2287
     32  O        -56.6760   15.4950    1.3590 O.2   164  LEU164     -0.2864
     33  CB       -54.5840   13.4660    3.1480 C.3   164  LEU164      0.0297
     34  CG       -54.8370   14.1420    4.4980 C.3   164  LEU164      0.0022
     35  CD1      -56.1320   13.5380    5.0500 C.3   164  LEU164      0.0001
     36  CD2      -53.7210   14.0890    5.5410 C.3   164  LEU164      0.0001
     37  N        -57.6720   15.4520   -1.3560 N.3   167  ASN167     -0.1240
     38  CA       -59.0630   15.2530   -1.0250 C.3   167  ASN167      0.1653
     39  C        -59.6530   16.4340   -0.2980 C.2   167  ASN167      0.2266
     40  O        -60.8390   16.7050   -0.4380 O.2   167  ASN167     -0.2867
     41  CB       -59.2220   14.0160   -0.1780 C.3   167  ASN167      0.1155
     42  CG       -59.5660   12.8120   -0.9900 C.2   167  ASN167      0.2627
     43  OD1      -60.3510   12.8930   -1.9280 O.2   167  ASN167     -0.2716
     44  ND2      -58.9870   11.6810   -0.6430 N.am  167  ASN167     -0.0877
     45  N        -65.3680   11.0510    0.9920 N.3   175  LEU175     -0.1245
     46  CA       -63.9490   11.0180    0.6800 C.3   175  LEU175      0.1561
     47  C        -63.1960   11.9530    1.5840 C.2   175  LEU175      0.2260
     48  O        -62.2250   11.5430    2.2280 O.2   175  LEU175     -0.2867
     49  CB       -63.6960   11.4350   -0.7520 C.3   175  LEU175      0.0270
     50  CG       -63.9690   10.3930   -1.8220 C.3   175  LEU175      0.0019
     51  CD1      -64.4940   11.1050   -3.0510 C.3   175  LEU175      0.0001
     52  CD2      -62.7280    9.5130   -2.1200 C.3   175  LEU175      0.0001
     53  N        -63.4700   11.2720    5.7310 N.3   178  THR178     -0.1203
     54  CA       -62.7150   10.0830    6.0740 C.3   178  THR178      0.1994
     55  C        -61.2370   10.3820    6.0660 C.2   178  THR178      0.2617
     56  O        -60.5650   10.2220    7.0810 O.2   178  THR178     -0.2717
     57  CB       -63.0210    8.9500    5.0970 C.3   178  THR178      0.1784
     58  OG1      -64.3350    8.4610    5.3630 O.3   178  THR178     -0.2211
     59  CG2      -62.0440    7.8000    5.2600 C.3   178  THR178      0.0376
     60  N        -60.7480   10.8270    4.9090 N.am  179  ALA179     -0.1979
     61  CA       -59.3470   11.2350    4.7060 C.3   179  ALA179      0.1597
     62  C        -58.7970   12.0780    5.8610 C.2   179  ALA179      0.2287
     63  O        -57.6720   11.8350    6.3280 O.2   179  ALA179     -0.2864
     64  CB       -59.1870   11.9690    3.3590 C.3   179  ALA179      0.0319
     65  N        -58.4840    9.9580    9.2550 N.3   182  ARG182     -0.1245
     66  CA       -57.3900    8.9970    9.2140 C.3   182  ARG182      0.1563
     67  C        -56.0300    9.6730    9.1020 C.2   182  ARG182      0.2260
     68  O        -55.0240    8.9870    8.8940 O.2   182  ARG182     -0.2867
     69  CB       -57.5730    8.0060    8.0550 C.3   182  ARG182      0.0307
     70  CG       -58.8070    7.0950    8.2120 C.3   182  ARG182      0.0489
     71  CD       -58.5430    5.6530    7.7460 C.3   182  ARG182      0.2205
     72  NE       -59.8070    4.9650    7.4840 N.pl3 182  ARG182     -0.0865
     73  CZ       -60.3710    4.8440    6.2770 C.cat 182  ARG182      0.5346
     74  NH1      -59.7650    5.3610    5.2000 N.pl3 182  ARG182      0.1354
     75  NH2      -61.5450    4.2010    6.1490 N.pl3 182  ARG182      0.1354
     76  N        -50.1010   10.2850    9.1860 N.3   186  HIS186     -0.1241
     77  CA       -49.5190   10.7770    7.9030 C.3   186  HIS186      0.1621
     78  C        -48.8310   12.1370    8.0850 C.2   186  HIS186      0.2264
     79  O        -47.6310   12.3100    7.7940 O.2   186  HIS186     -0.2867
     80  CB       -50.5850   10.9000    6.8110 C.3   186  HIS186      0.0745
     81  CG       -51.2200    9.6020    6.4170 C.ar  186  HIS186      0.0817
     82  ND1      -50.4880    8.4630    6.1540 N.ar  186  HIS186     -0.2268
     83  CD2      -52.5180    9.2740    6.2070 C.ar  186  HIS186      0.1154
     84  CE1      -51.3120    7.4830    5.8170 C.ar  186  HIS186      0.1986
     85  NE2      -52.5470    7.9530    5.8340 N.ar  186  HIS186     -0.2212
     86  N        -47.9150   12.1030   -5.9730 N.3   235  ASP235     -0.1239
     87  CA       -49.1880   11.5860   -6.4570 C.3   235  ASP235      0.1674
     88  C        -49.4720   12.0290   -7.8530 C.2   235  ASP235      0.2266
     89  O        -49.7290   11.2070   -8.7210 O.2   235  ASP235     -0.2867
     90  CB       -50.2960   12.0550   -5.5440 C.3   235  ASP235      0.1410
     91  CG       -50.4390   11.1660   -4.3410 C.2   235  ASP235      0.3668
     92  OD1      -51.5720   10.9900   -3.8460 O.co2 235  ASP235     -0.2456
     93  OD2      -49.4100   10.6130   -3.8940 O.co2 235  ASP235     -0.2456
     94  N        -58.7470    4.7850   -8.7040 N.3   375  ARG375     -0.1245
     95  CA       -58.5960    5.4540   -7.3990 C.3   375  ARG375      0.1563
     96  C        -59.3990    6.7330   -7.4450 C.2   375  ARG375      0.2260
     97  O        -59.0610    7.6460   -8.2040 O.2   375  ARG375     -0.2867
     98  CB       -57.1420    5.8330   -7.1440 C.3   375  ARG375      0.0307
     99  CG       -56.6900    5.6510   -5.7250 C.3   375  ARG375      0.0489
    100  CD       -55.2160    6.0150   -5.5980 C.3   375  ARG375      0.2205
    101  NE       -54.2370    5.1200   -6.2520 N.pl3 375  ARG375     -0.0865
    102  CZ       -53.0580    5.5200   -6.7640 C.cat 375  ARG375      0.5346
    103  NH1      -52.6840    6.8060   -6.7390 N.pl3 375  ARG375      0.1354
    104  NH2      -52.2370    4.6370   -7.3230 N.pl3 375  ARG375      0.1354
    105  N        -60.8270   10.3320   -5.9590 N.3   377  ASN377     -0.1240
    106  CA       -60.2980   11.4260   -5.1260 C.3   377  ASN377      0.1653
    107  C        -60.8230   12.7880   -5.5600 C.2   377  ASN377      0.2266
    108  O        -60.7090   13.1660   -6.7320 O.2   377  ASN377     -0.2867
    109  CB       -58.7700   11.4280   -5.1890 C.3   377  ASN377      0.1155
    110  CG       -58.1350   12.4810   -4.3040 C.2   377  ASN377      0.2627
    111  OD1      -58.1710   13.6820   -4.5900 O.2   377  ASN377     -0.2716
    112  ND2      -57.5040   12.0240   -3.2420 N.am  377  ASN377     -0.0877
    113  N        -57.7810   14.5550   -7.5830 N.3   380  LEU380     -0.1245
    114  CA       -56.9070   13.7840   -8.4840 C.3   380  LEU380      0.1561
    115  C        -57.6580   12.7680   -9.2800 C.2   380  LEU380      0.2260
    116  O        -58.5510   12.1120   -8.7610 O.2   380  LEU380     -0.2867
    117  CB       -55.8060   13.0600   -7.7300 C.3   380  LEU380      0.0270
    118  CG       -54.7300   13.8410   -6.9840 C.3   380  LEU380      0.0019
    119  CD1      -53.6170   12.8690   -6.7430 C.3   380  LEU380      0.0001
    120  CD2      -54.1940   15.0830   -7.7180 C.3   380  LEU380      0.0001
@<TRIPOS>BOND
     1     1     2    1
     2   115   116    2
     3   115   114    1
     4    89    88    2
     5    94    95    1
     6   114   117    1
     7   114   113    1
     8     2     3    1
     9     2     5    1
    10    97    96    2
    11     3     4    2
    12    88    87    1
    13   117   118    1
    14   120   118    1
    15    96    95    1
    16     5     6    1
    17    95    98    1
    18   104   102    1
    19    98    99    1
    20   118   119    1
    21   102   103    1
    22   102   101    2
    23   108   107    2
    24     6     7    1
    25    87    86    1
    26    87    90    1
    27     9     7   ar
    28   101   100    1
    29     7     8   ar
    30   105   106    1
    31    99   100    1
    32   107   106    1
    33    90    91    1
    34   109   106    1
    35   109   110    1
    36   111   110    2
    37    17    15    1
    38    91    93   ar
    39    91    92   ar
    40   110   112   am
    41    15    16    1
    42    15    14    1
    43    51    50    1
    44    14    11    1
    45    52    50    1
    46    43    42    2
    47    50    49    1
    48    26    25    1
    49    26    27    1
    50    37    38    1
    51    11    12    1
    52    11    10    1
    53    38    39    1
    54    38    41    1
    55    42    44   am
    56    42    41    1
    57    13    12    2
    58    28    27    2
    59    49    46    1
    60    12    18   am
    61    27    29   am
    62    40    39    2
    63    18    24    1
    64    18    19    1
    65    46    45    1
    66    46    47    1
    67    29    30    1
    68    24    23    1
    69    32    31    2
    70    19    20    1
    71    19    22    1
    72    31    30    1
    73    47    48    2
    74    30    33    1
    75    20    21    2
    76    23    22    1
    77    33    34    1
    78    64    61    1
    79    34    35    1
    80    34    36    1
    81    61    60    1
    82    61    62    1
    83    60    55   am
    84    57    59    1
    85    57    58    1
    86    57    54    1
    87    74    73    1
    88    53    54    1
    89    84    85   ar
    90    84    82   ar
    91    85    83   ar
    92    62    63    2
    93    55    54    1
    94    55    56    2
    95    75    73    1
    96    82    81   ar
    97    83    81   ar
    98    73    72    2
    99    81    80    1
   100    80    77    1
   101    72    71    1
   102    71    70    1
   103    79    78    2
   104    77    78    1
   105    77    76    1
   106    69    70    1
   107    69    66    1
   108    68    67    2
   109    67    66    1
   110    66    65    1
