@<TRIPOS>MOLECULE
tmp/4egpA01.pdb
 131 124 0 0 0
SMALL
GASTEIGER

@<TRIPOS>ATOM
      1  N        -55.6420   22.7590    7.9320 N.3    76  ARG76      -0.1245
      2  CA       -54.2450   22.9790    8.3330 C.3    76  ARG76       0.1563
      3  C        -53.8420   24.4050    7.9260 C.2    76  ARG76       0.2260
      4  O        -54.4770   24.9960    7.0400 O.2    76  ARG76      -0.2867
      5  CB       -53.3050   21.9640    7.6860 C.3    76  ARG76       0.0307
      6  CG       -53.3950   21.9890    6.2100 C.3    76  ARG76       0.0489
      7  CD       -52.3400   21.1910    5.5250 C.3    76  ARG76       0.2205
      8  NE       -52.3380   21.6090    4.1290 N.pl3  76  ARG76      -0.0865
      9  CZ       -51.4650   21.2100    3.2110 C.cat  76  ARG76       0.5346
     10  NH1      -50.4930   20.3450    3.5150 N.pl3  76  ARG76       0.1354
     11  NH2      -51.5780   21.6830    1.9730 N.pl3  76  ARG76       0.1354
     12  N        -50.8230   26.6660    2.4890 N.3    79  SER79      -0.1202
     13  CA       -49.5570   26.8370    1.7630 C.3    79  SER79       0.2020
     14  C        -49.0090   28.2620    1.8140 C.2    79  SER79       0.2619
     15  O        -49.7670   29.2270    1.8440 O.2    79  SER79      -0.2717
     16  CB       -49.7510   26.5300    0.2930 C.3    79  SER79       0.2103
     17  OG       -49.6150   25.1600    0.0320 O.3    79  SER79      -0.2182
     18  N        -47.6930   28.3930    1.8030 N.am   80  LEU80      -0.1965
     19  CA       -47.0740   29.6800    1.6300 C.3    80  LEU80       0.1728
     20  C        -46.9880   29.9560    0.1490 C.2    80  LEU80       0.2616
     21  O        -46.9350   31.1020   -0.2790 O.2    80  LEU80      -0.2715
     22  CB       -45.6710   29.6570    2.2080 C.3    80  LEU80       0.0311
     23  CG       -45.4640   30.0280    3.6730 C.3    80  LEU80       0.0022
     24  CD1      -46.4970   29.3990    4.5750 C.3    80  LEU80       0.0001
     25  CD2      -44.0820   29.6100    4.0700 C.3    80  LEU80       0.0001
     26  N        -46.9700   28.9060   -0.6490 N.am   81  ILE81      -0.1963
     27  CA       -46.8470   29.1160   -2.0680 C.3    81  ILE81       0.1727
     28  C        -48.1870   29.0640   -2.8170 C.2    81  ILE81       0.2616
     29  O        -48.4630   29.9180   -3.6530 O.2    81  ILE81      -0.2715
     30  CB       -45.7570   28.2280   -2.7120 C.3    81  ILE81       0.0290
     31  CG1      -45.5520   28.6520   -4.1630 C.3    81  ILE81       0.0022
     32  CG2      -46.1160   26.7810   -2.6340 C.3    81  ILE81       0.0023
     33  CD1      -44.1760   28.3640   -4.7230 C.3    81  ILE81       0.0001
     34  N        -49.0100   28.0660   -2.5140 N.am   82  LEU82      -0.1977
     35  CA       -50.2210   27.8460   -3.2820 C.3    82  LEU82       0.1596
     36  C        -51.3770   28.7450   -2.8020 C.2    82  LEU82       0.2287
     37  O        -52.1660   29.2760   -3.5900 O.2    82  LEU82      -0.2864
     38  CB       -50.6050   26.3560   -3.2600 C.3    82  LEU82       0.0297
     39  CG       -51.8690   25.8980   -3.9980 C.3    82  LEU82       0.0022
     40  CD1      -51.7760   26.2370   -5.4350 C.3    82  LEU82       0.0001
     41  CD2      -52.0910   24.4350   -3.8490 C.3    82  LEU82       0.0001
     42  N        -54.4010   15.5940    1.3310 N.3   165  VAL165     -0.1231
     43  CA       -54.2790   16.9510    0.8250 C.3   165  VAL165      0.1692
     44  C        -55.1890   17.1920   -0.3760 C.2   165  VAL165      0.2592
     45  O        -56.0190   18.0930   -0.3420 O.2   165  VAL165     -0.2718
     46  CB       -52.8510   17.2450    0.3950 C.3   165  VAL165      0.0266
     47  CG1      -52.7720   18.6180   -0.1500 C.3   165  VAL165      0.0020
     48  CG2      -51.9140   17.0880    1.5650 C.3   165  VAL165      0.0020
     49  N        -55.0390   16.3800   -1.4200 N.am  166  PHE166     -0.1976
     50  CA       -55.8730   16.4920   -2.6050 C.3   166  PHE166      0.1639
     51  C        -57.3450   16.2440   -2.3650 C.2   166  PHE166      0.2290
     52  O        -58.1860   16.7820   -3.0800 O.2   166  PHE166     -0.2864
     53  CB       -55.3390   15.6400   -3.7490 C.3   166  PHE166      0.0560
     54  CG       -54.1940   16.2940   -4.4640 C.ar  166  PHE166     -0.0200
     55  CD1      -52.9020   15.7910   -4.3580 C.ar  166  PHE166     -0.0042
     56  CD2      -54.3980   17.4630   -5.2060 C.ar  166  PHE166     -0.0042
     57  CE1      -51.8360   16.4300   -5.0080 C.ar  166  PHE166     -0.0003
     58  CE2      -53.3350   18.1040   -5.8620 C.ar  166  PHE166     -0.0003
     59  CZ       -52.0590   17.5910   -5.7620 C.ar  166  PHE166     -0.0000
     60  N        -59.2040   19.6040   -0.6250 N.3   169  PHE169     -0.1241
     61  CA       -59.6610   20.6830   -1.4750 C.3   169  PHE169      0.1605
     62  C        -61.1390   20.5630   -1.8040 C.2   169  PHE169      0.2264
     63  O        -61.8320   21.5650   -1.8580 O.2   169  PHE169     -0.2867
     64  CB       -58.8800   20.7200   -2.7550 C.3   169  PHE169      0.0534
     65  CG       -57.4480   21.1050   -2.5860 C.ar  169  PHE169     -0.0203
     66  CD1      -56.4420   20.3170   -3.1150 C.ar  169  PHE169     -0.0042
     67  CD2      -57.0930   22.2720   -1.9380 C.ar  169  PHE169     -0.0042
     68  CE1      -55.1220   20.6930   -2.9960 C.ar  169  PHE169     -0.0003
     69  CE2      -55.7530   22.6320   -1.7990 C.ar  169  PHE169     -0.0003
     70  CZ       -54.7850   21.8500   -2.3330 C.ar  169  PHE169     -0.0000
     71  N        -42.1580   24.3270    6.1550 N.3   224  LEU224     -0.1245
     72  CA       -43.4310   24.5230    5.4290 C.3   224  LEU224      0.1561
     73  C        -43.2640   24.4280    3.9160 C.2   224  LEU224      0.2260
     74  O        -44.1770   24.0220    3.2020 O.2   224  LEU224     -0.2867
     75  CB       -44.1030   25.8480    5.8010 C.3   224  LEU224      0.0270
     76  CG       -44.5370   25.8820    7.2620 C.3   224  LEU224      0.0019
     77  CD1      -43.3610   25.5080    8.1640 C.3   224  LEU224      0.0001
     78  CD2      -45.0590   27.2370    7.6410 C.3   224  LEU224      0.0001
     79  N        -42.7850   20.5320    3.1220 N.3   227  ARG227     -0.1231
     80  CA       -44.1120   19.9570    3.1430 C.3   227  ARG227      0.1694
     81  C        -44.7080   20.1450    1.7650 C.2   227  ARG227      0.2592
     82  O        -45.1830   19.1930    1.1430 O.2   227  ARG227     -0.2718
     83  CB       -44.9460   20.6850    4.1740 C.3   227  ARG227      0.0321
     84  CG       -46.1290   19.9380    4.6960 C.3   227  ARG227      0.0489
     85  CD       -46.9580   20.8700    5.5540 C.3   227  ARG227      0.2205
     86  NE       -47.4820   21.9370    4.7010 N.pl3 227  ARG227     -0.0865
     87  CZ       -48.6160   22.6040    4.9200 C.cat 227  ARG227      0.5346
     88  NH1      -49.0230   23.5560    4.0660 N.pl3 227  ARG227      0.1354
     89  NH2      -49.3450   22.3160    5.9950 N.pl3 227  ARG227      0.1354
     90  N        -44.6260   21.3840    1.2810 N.am  228  SER228     -0.1952
     91  CA       -45.1070   21.7800   -0.0450 C.3   228  SER228      0.1924
     92  C        -44.7750   20.8180   -1.1930 C.2   228  SER228      0.2314
     93  O        -45.6500   20.4400   -1.9510 O.2   228  SER228     -0.2863
     94  CB       -44.6090   23.1800   -0.3700 C.3   228  SER228      0.2116
     95  OG       -45.5230   23.8120   -1.2320 O.3   228  SER228     -0.2180
     96  N        -46.4160   17.3720   -0.5670 N.3   231  SER231     -0.1202
     97  CA       -47.8060   17.3430   -0.9450 C.3   231  SER231      0.2020
     98  C        -47.9290   17.2460   -2.4850 C.2   231  SER231      0.2618
     99  O        -48.3720   16.2210   -3.0080 O.2   231  SER231     -0.2717
    100  CB       -48.5390   18.5240   -0.3320 C.3   231  SER231      0.2103
    101  OG       -48.3570   18.5820    1.0840 O.3   231  SER231     -0.2182
    102  N        -47.4630   18.2630   -3.2050 N.am  232  ALA232     -0.1979
    103  CA       -47.6550   18.3450   -4.6650 C.3   232  ALA232      0.1597
    104  C        -46.7660   17.4400   -5.5180 C.2   232  ALA232      0.2287
    105  O        -47.0310   17.2550   -6.7230 O.2   232  ALA232     -0.2864
    106  CB       -47.4760   19.7500   -5.1230 C.3   232  ALA232      0.0319
    107  N        -49.4240   13.3470   -8.0410 N.3   236  THR236     -0.1218
    108  CA       -49.5020   14.0150   -9.3280 C.3   236  THR236      0.1862
    109  C        -48.7570   13.2260  -10.3970 C.2   236  THR236      0.2287
    110  O        -49.3430   12.7840  -11.3890 O.2   236  THR236     -0.2866
    111  CB       -48.8780   15.4340   -9.2470 C.3   236  THR236      0.1770
    112  OG1      -47.5510   15.3630   -8.7080 O.3   236  THR236     -0.2211
    113  CG2      -49.6950   16.3510   -8.3670 C.3   236  THR236      0.0375
    114  N        -54.5350   16.7080  -12.0960 N.3   279  VAL279     -0.1245
    115  CA       -55.2100   17.7150  -11.2630 C.3   279  VAL279      0.1561
    116  C        -56.4000   18.2810  -12.0630 C.2   279  VAL279      0.2260
    117  O        -56.2180   19.1220  -12.9350 O.2   279  VAL279     -0.2867
    118  CB       -54.2380   18.8300  -10.7850 C.3   279  VAL279      0.0252
    119  CG1      -54.9030   19.7120   -9.7560 C.3   279  VAL279      0.0019
    120  CG2      -52.9460   18.2380  -10.2140 C.3   279  VAL279      0.0019
    121  N        -59.8570   23.0680   -9.4700 N.3   282  PHE282     -0.1241
    122  CA       -59.1810   23.9800   -8.5320 C.3   282  PHE282      0.1605
    123  C        -59.9790   25.2590   -8.4620 C.2   282  PHE282      0.2264
    124  O        -60.4040   25.7990   -9.4970 O.2   282  PHE282     -0.2867
    125  CB       -57.7810   24.3530   -8.9860 C.3   282  PHE282      0.0534
    126  CG       -56.6890   23.7600   -8.1670 C.ar  282  PHE282     -0.0203
    127  CD1      -55.4930   23.3600   -8.7740 C.ar  282  PHE282     -0.0042
    128  CD2      -56.8270   23.5970   -6.7780 C.ar  282  PHE282     -0.0042
    129  CE1      -54.4370   22.8040   -8.0180 C.ar  282  PHE282     -0.0003
    130  CE2      -55.7690   23.0240   -5.9940 C.ar  282  PHE282     -0.0003
    131  CZ       -54.5840   22.6370   -6.6200 C.ar  282  PHE282     -0.0000
@<TRIPOS>BOND
     1   117   116    2
     2   114   115    1
     3   116   115    1
     4   110   109    2
     5   115   118    1
     6   118   120    1
     7   118   119    1
     8   109   108    1
     9   124   123    2
    10   121   122    1
    11   108   111    1
    12   108   107    1
    13   111   112    1
    14   111   113    1
    15   125   122    1
    16   125   126    1
    17   127   126   ar
    18   127   129   ar
    19   122   123    1
    20   126   128   ar
    21   129   131   ar
    22   128   130   ar
    23   105   104    2
    24   131   130   ar
    25    58    59   ar
    26    58    56   ar
    27    59    57   ar
    28   104   103    1
    29    40    39    1
    30    56    54   ar
    31   106   103    1
    32    57    55   ar
    33    33    31    1
    34   103   102    1
    35    54    55   ar
    36    54    53    1
    37    31    30    1
    38    39    41    1
    39    39    38    1
    40    53    50    1
    41    29    28    2
    42    37    36    2
    43    35    38    1
    44    35    36    1
    45    35    34    1
    46   102    98   am
    47    66    68   ar
    48    66    65   ar
    49    52    51    2
    50    99    98    2
    51    68    70   ar
    52    28    34   am
    53    28    27    1
    54    64    65    1
    55    64    61    1
    56    30    32    1
    57    30    27    1
    58    50    51    1
    59    50    49    1
    60    65    67   ar
    61    98    97    1
    62    70    69   ar
    63    27    26    1
    64    93    92    2
    65    67    69   ar
    66    63    62    2
    67    62    61    1
    68    61    60    1
    69    49    44   am
    70    95    94    1
    71    92    91    1
    72    97    96    1
    73    97   100    1
    74    26    20   am
    75    44    45    2
    76    44    43    1
    77    94    91    1
    78   100   101    1
    79    21    20    2
    80    47    46    1
    81    91    90    1
    82    17    16    1
    83    20    19    1
    84    16    13    1
    85    46    43    1
    86    46    48    1
    87    43    42    1
    88    82    81    2
    89    90    81   am
    90    19    18    1
    91    19    22    1
    92    13    14    1
    93    13    12    1
    94    81    80    1
    95    18    14   am
    96    14    15    2
    97    11     9    1
    98    22    23    1
    99    79    80    1
   100    80    83    1
   101    74    73    2
   102     9    10    1
   103     9     8    2
   104    23    25    1
   105    23    24    1
   106    73    72    1
   107    88    87    1
   108     8     7    1
   109    83    84    1
   110    84    85    1
   111    86    87    2
   112    86    85    1
   113    87    89    1
   114    72    75    1
   115    72    71    1
   116     7     6    1
   117    75    76    1
   118     6     5    1
   119     4     3    2
   120    76    78    1
   121    76    77    1
   122     5     2    1
   123     3     2    1
   124     1     2    1
