@<TRIPOS>MOLECULE
tmp/4egrB00.pdb
 131 122 0 0 0
SMALL
GASTEIGER

@<TRIPOS>ATOM
      1  N        -13.9540   -6.1530  -33.9940 N.3    23  LYS23      -0.1245
      2  CA       -14.1180   -4.9060  -33.2690 C.3    23  LYS23       0.1561
      3  C        -13.0190   -4.6840  -32.2580 C.2    23  LYS23       0.2260
      4  O        -12.4900   -3.6050  -32.1630 O.2    23  LYS23      -0.2867
      5  CB       -15.4900   -4.8990  -32.5760 C.3    23  LYS23       0.0271
      6  CG       -15.8490   -3.5860  -31.9330 C.3    23  LYS23       0.0035
      7  CD       -17.3630   -3.4440  -31.7490 C.3    23  LYS23       0.0206
      8  CE       -17.9610   -4.4510  -30.8000 C.3    23  LYS23       0.1093
      9  NZ       -17.4230   -4.2810  -29.4270 N.3    23  LYS23      -0.1314
     10  N        -18.9100    2.0850  -33.3310 N.3    50  ASP50      -0.1239
     11  CA       -17.9920    2.0310  -32.1690 C.3    50  ASP50       0.1674
     12  C        -16.5310    2.2760  -32.5800 C.2    50  ASP50       0.2266
     13  O        -15.8550    3.1240  -32.0100 O.2    50  ASP50      -0.2867
     14  CB       -18.0860    0.6850  -31.3880 C.3    50  ASP50       0.1410
     15  CG       -19.2980    0.6070  -30.4300 C.2    50  ASP50       0.3668
     16  OD1      -20.1560    1.5210  -30.4510 O.co2  50  ASP50      -0.2456
     17  OD2      -19.3670   -0.3700  -29.6390 O.co2  50  ASP50      -0.2456
     18  N        -21.4320    4.7960  -28.1280 N.3    95  ASN95      -0.1225
     19  CA       -21.9690    3.6550  -27.3710 C.3    95  ASN95       0.1785
     20  C        -20.8750    2.6800  -26.9450 C.2    95  ASN95       0.2598
     21  O        -21.1780    1.6150  -26.4140 O.2    95  ASN95      -0.2718
     22  CB       -22.9600    2.9250  -28.3000 C.3    95  ASN95       0.1169
     23  CG       -23.7530    1.8420  -27.6130 C.2    95  ASN95       0.2627
     24  OD1      -23.7380    0.6920  -28.0470 O.2    95  ASN95      -0.2716
     25  ND2      -24.4370    2.1920  -26.5380 N.am   95  ASN95      -0.0877
     26  N        -19.6050    3.0670  -27.1140 N.am   96  SER96      -0.1938
     27  CA       -18.5020    2.1210  -26.9290 C.3    96  SER96       0.2055
     28  C        -17.7730    2.0550  -25.6040 C.2    96  SER96       0.2644
     29  O        -16.9440    2.9020  -25.2890 O.2    96  SER96      -0.2714
     30  CB       -17.4820    2.3040  -28.0390 C.3    96  SER96       0.2130
     31  OG       -16.3910    1.4530  -27.8380 O.3    96  SER96      -0.2179
     32  N        -18.0320    0.9730  -24.8720 N.am   97  GLY97      -0.1939
     33  CA       -17.3700    0.7060  -23.6040 C.3    97  GLY97       0.2014
     34  C        -15.8680    0.4830  -23.7580 C.2    97  GLY97       0.2639
     35  O        -15.0850    1.0420  -23.0000 O.2    97  GLY97      -0.2714
     36  N        -15.4650   -0.3240  -24.7440 N.am   98  THR98      -0.1950
     37  CA       -14.0520   -0.5810  -25.0090 C.3    98  THR98       0.1897
     38  C        -13.3220    0.7330  -25.2530 C.2    98  THR98       0.2313
     39  O        -12.2800    0.9760  -24.7000 O.2    98  THR98      -0.2863
     40  CB       -13.8740   -1.4490  -26.2550 C.3    98  THR98       0.1794
     41  OG1      -14.6500   -2.6210  -26.1280 O.3    98  THR98      -0.2208
     42  CG2      -12.4400   -1.8540  -26.4200 C.3    98  THR98       0.0378
     43  N        -22.6060    2.6320  -17.6400 N.3   125  ARG125     -0.1245
     44  CA       -21.6770    1.5190  -17.5060 C.3   125  ARG125      0.1563
     45  C        -20.6200    1.7600  -16.4590 C.2   125  ARG125      0.2260
     46  O        -20.1020    2.8690  -16.3510 O.2   125  ARG125     -0.2867
     47  CB       -21.1200    1.1200  -18.8850 C.3   125  ARG125      0.0307
     48  CG       -22.3010    0.6740  -19.7470 C.3   125  ARG125      0.0489
     49  CD       -21.9420    0.0970  -21.0790 C.3   125  ARG125      0.2205
     50  NE       -21.1660   -1.1150  -20.9160 N.pl3 125  ARG125     -0.0865
     51  CZ       -20.5790   -1.7330  -21.9220 C.cat 125  ARG125      0.5346
     52  NH1      -20.7150   -1.2440  -23.1440 N.pl3 125  ARG125      0.1354
     53  NH2      -19.8550   -2.8180  -21.7090 N.pl3 125  ARG125      0.1354
     54  N        -10.7240   -5.6240  -21.1090 N.3   171  GLN171     -0.1245
     55  CA       -10.7240   -4.1820  -21.0900 C.3   171  GLN171      0.1566
     56  C         -9.8530   -3.6460  -19.9840 C.2   171  GLN171      0.2260
     57  O         -9.0890   -2.7230  -20.2270 O.2   171  GLN171     -0.2867
     58  CB       -12.1400   -3.6120  -21.0230 C.3   171  GLN171      0.0367
     59  CG       -12.9140   -3.7740  -22.3350 C.3   171  GLN171      0.0905
     60  CD       -14.2410   -3.0480  -22.3100 C.2   171  GLN171      0.2608
     61  OE1      -14.4080   -2.1190  -21.5400 O.2   171  GLN171     -0.2717
     62  NE2      -15.1720   -3.4320  -23.1850 N.am  171  GLN171     -0.0878
     63  N         -9.4350  -12.2700  -23.5060 N.3   196  ARG196     -0.1245
     64  CA        -8.8530  -12.0670  -24.8550 C.3   196  ARG196      0.1563
     65  C         -7.4900  -11.2800  -24.8560 C.2   196  ARG196      0.2260
     66  O         -7.3040  -10.2870  -24.1400 O.2   196  ARG196     -0.2867
     67  CB        -9.8990  -11.5100  -25.8170 C.3   196  ARG196      0.0307
     68  CG       -10.5520  -10.2410  -25.3310 C.3   196  ARG196      0.0489
     69  CD       -11.6810   -9.8110  -26.2390 C.3   196  ARG196      0.2205
     70  NE       -12.8590  -10.6510  -26.0880 N.pl3 196  ARG196     -0.0865
     71  CZ       -14.0250  -10.4320  -26.6950 C.cat 196  ARG196      0.5346
     72  NH1      -14.2010   -9.3920  -27.5130 N.pl3 196  ARG196      0.1354
     73  NH2      -15.0230  -11.2540  -26.4660 N.pl3 196  ARG196      0.1354
     74  N        -19.9380  -12.1820  -24.9680 N.3   313  ASP313     -0.1239
     75  CA       -20.6630  -11.4570  -25.9890 C.3   313  ASP313      0.1674
     76  C        -21.5110  -12.3980  -26.8750 C.2   313  ASP313      0.2266
     77  O        -22.4040  -11.9480  -27.5810 O.2   313  ASP313     -0.2867
     78  CB       -19.6910  -10.6750  -26.8670 C.3   313  ASP313      0.1410
     79  CG       -18.9400   -9.5900  -26.0980 C.2   313  ASP313      0.3668
     80  OD1      -19.5000   -9.0330  -25.1130 O.co2 313  ASP313     -0.2456
     81  OD2      -17.7880   -9.2910  -26.5020 O.co2 313  ASP313     -0.2456
     82  N        -23.9170   -4.4720  -19.6280 N.3   340  LYS340     -0.1231
     83  CA       -23.4230   -4.2050  -20.9910 C.3   340  LYS340      0.1693
     84  C        -24.1820   -3.0040  -21.6140 C.2   340  LYS340      0.2591
     85  O        -24.6350   -2.1450  -20.8690 O.2   340  LYS340     -0.2718
     86  CB       -23.5220   -5.4880  -21.8450 C.3   340  LYS340      0.0285
     87  CG       -22.6320   -6.6420  -21.3880 C.3   340  LYS340      0.0035
     88  CD       -21.1390   -6.3850  -21.7070 C.3   340  LYS340      0.0206
     89  CE       -20.1930   -7.4520  -21.1360 C.3   340  LYS340      0.1093
     90  NZ       -18.7410   -7.3350  -21.5100 N.3   340  LYS340     -0.1314
     91  N        -24.2590   -2.9030  -22.9520 N.am  341  GLU341     -0.1979
     92  CA       -25.0160   -1.8230  -23.6150 C.3   341  GLU341      0.1602
     93  C        -26.3560   -1.7080  -22.8700 C.2   341  GLU341      0.2287
     94  O        -26.8690   -0.6140  -22.5650 O.2   341  GLU341     -0.2864
     95  CB       -25.3150   -2.1480  -25.1070 C.3   341  GLU341      0.0415
     96  CG       -24.2550   -1.8780  -26.1760 C.3   341  GLU341      0.1163
     97  CD       -23.1080   -2.9050  -26.2390 C.2   341  GLU341      0.3649
     98  OE1      -22.6890   -3.4670  -25.1810 O.co2 341  GLU341     -0.2457
     99  OE2      -22.5860   -3.1140  -27.3720 O.co2 341  GLU341     -0.2457
    100  N        -28.3720   -7.5880  -20.8500 N.3   344  ARG344     -0.1245
    101  CA       -28.6110   -8.6380  -21.8130 C.3   344  ARG344      0.1563
    102  C        -29.3910   -9.8480  -21.2910 C.2   344  ARG344      0.2260
    103  O        -30.0130  -10.5370  -22.0690 O.2   344  ARG344     -0.2867
    104  CB       -27.2970   -9.0390  -22.4610 C.3   344  ARG344      0.0307
    105  CG       -26.7640   -7.9070  -23.3230 C.3   344  ARG344      0.0489
    106  CD       -25.4360   -8.1840  -23.9890 C.3   344  ARG344      0.2205
    107  NE       -25.1760   -7.1970  -25.0340 N.pl3 344  ARG344     -0.0865
    108  CZ       -23.9980   -7.0140  -25.6420 C.cat 344  ARG344      0.5346
    109  NH1      -22.9290   -7.7150  -25.2880 N.pl3 344  ARG344      0.1354
    110  NH2      -23.8830   -6.0950  -26.5890 N.pl3 344  ARG344      0.1354
    111  N        -27.1270   -3.9770  -30.1130 N.3   384  HIS384     -0.1226
    112  CA       -26.8400   -4.6020  -31.3900 C.3   384  HIS384      0.1752
    113  C        -26.8810   -6.0850  -31.3810 C.2   384  HIS384      0.2595
    114  O        -27.3370   -6.6960  -32.3430 O.2   384  HIS384     -0.2718
    115  CB       -25.5160   -4.0810  -31.9690 C.3   384  HIS384      0.0759
    116  CG       -24.3010   -4.3880  -31.1240 C.ar  384  HIS384      0.0818
    117  ND1      -23.2970   -5.1270  -31.5790 N.ar  384  HIS384     -0.2268
    118  CD2      -23.9550   -4.0140  -29.8110 C.ar  384  HIS384      0.1154
    119  CE1      -22.3480   -5.2590  -30.6170 C.ar  384  HIS384      0.1986
    120  NE2      -22.7550   -4.5920  -29.5310 N.ar  384  HIS384     -0.2212
    121  N        -26.4020   -6.7010  -30.3180 N.am  385  ARG385     -0.1980
    122  CA       -26.4100   -8.1650  -30.2770 C.3   385  ARG385      0.1597
    123  C        -27.8210   -8.7240  -29.9990 C.2   385  ARG385      0.2287
    124  O        -28.1940   -9.7450  -30.5590 O.2   385  ARG385     -0.2864
    125  CB       -25.3580   -8.6990  -29.3140 C.3   385  ARG385      0.0334
    126  CG       -23.9350   -8.2270  -29.6480 C.3   385  ARG385      0.0492
    127  CD       -22.8190   -9.0450  -28.9860 C.3   385  ARG385      0.2205
    128  NE       -21.5340   -8.4050  -29.2420 N.pl3 385  ARG385     -0.0865
    129  CZ       -20.8670   -8.4910  -30.3840 C.cat 385  ARG385      0.5346
    130  NH1      -21.3110   -9.2550  -31.3780 N.pl3 385  ARG385      0.1354
    131  NH2      -19.7350   -7.8210  -30.5370 N.pl3 385  ARG385      0.1354
@<TRIPOS>BOND
     1     1     2    1
     2    10    11    1
     3     2     5    1
     4     2     3    1
     5    12    11    1
     6    12    13    2
     7     5     6    1
     8   114   113    2
     9     3     4    2
    10    11    14    1
    11   115   112    1
    12   115   116    1
    13     6     7    1
    14     7     8    1
    15   117   116   ar
    16   117   119   ar
    17   112   113    1
    18   112   111    1
    19    14    15    1
    20   113   121   am
    21   130   129    1
    22   116   118   ar
    23     8     9    1
    24   119   120   ar
    25   124   123    2
    26   131   129    1
    27    16    15   ar
    28    15    17   ar
    29   129   128    2
    30   121   122    1
    31   122   123    1
    32   122   125    1
    33   118   120   ar
    34   126   125    1
    35   126   127    1
    36   128   127    1
    37    22    23    1
    38    22    19    1
    39    18    19    1
    40    24    23    2
    41    30    31    1
    42    30    27    1
    43    23    25   am
    44    77    76    2
    45    72    71    1
    46    99    97   ar
    47    19    20    1
    48    26    20   am
    49    26    27    1
    50    20    21    2
    51    27    28    1
    52    76    75    1
    53    78    79    1
    54    78    75    1
    55    71    73    1
    56    71    70    2
    57   110   108    1
    58    81    79   ar
    59    42    40    1
    60    40    41    1
    61    40    37    1
    62    97    96    1
    63    97    98   ar
    64    69    70    1
    65    69    68    1
    66    96    95    1
    67    79    80   ar
    68    75    74    1
    69    67    68    1
    70    67    64    1
    71   108   109    1
    72   108   107    2
    73    28    29    2
    74    28    32   am
    75    38    37    1
    76    38    39    2
    77    95    92    1
    78   107   106    1
    79    37    36    1
    80    32    33    1
    81    65    64    1
    82    65    66    2
    83    64    63    1
    84    36    34   am
    85   106   105    1
    86    34    33    1
    87    34    35    2
    88    92    91    1
    89    92    93    1
    90   105   104    1
    91    62    60   am
    92    52    51    1
    93    91    84   am
    94    93    94    2
    95   104   101    1
    96    59    60    1
    97    59    58    1
    98    60    61    2
    99   103   102    2
   100    51    53    1
   101    51    50    2
   102    86    87    1
   103    86    83    1
   104   101   102    1
   105   101   100    1
   106    88    87    1
   107    88    89    1
   108    84    83    1
   109    84    85    2
   110    90    89    1
   111    54    55    1
   112    55    58    1
   113    55    56    1
   114    49    50    1
   115    49    48    1
   116    83    82    1
   117    57    56    2
   118    48    47    1
   119    47    44    1
   120    43    44    1
   121    44    45    1
   122    45    46    2
