@<TRIPOS>MOLECULE
tmp/4eguA00.pdb
 164 159 0 0 0
SMALL
GASTEIGER

@<TRIPOS>ATOM
      1  N         -2.7440    0.0450   -1.7130 N.3     6  ILE6       -0.1231
      2  CA        -1.7660    1.0390   -1.3390 C.3     6  ILE6        0.1692
      3  C         -0.8160    0.4540   -0.2840 C.2     6  ILE6        0.2592
      4  O          0.3810    0.7090   -0.3200 O.2     6  ILE6       -0.2718
      5  CB        -2.4490    2.3310   -0.7990 C.3     6  ILE6        0.0266
      6  CG1       -3.2880    3.0150   -1.8810 C.3     6  ILE6        0.0019
      7  CG2       -1.4120    3.3000   -0.2320 C.3     6  ILE6        0.0020
      8  CD1       -4.2170    4.0840   -1.3280 C.3     6  ILE6        0.0001
      9  N         -1.3370   -0.3050    0.6800 N.am    7  PHE7       -0.1976
     10  CA        -0.4810   -0.7850    1.7710 C.3     7  PHE7        0.1639
     11  C          0.4460   -1.9170    1.3250 C.2     7  PHE7        0.2290
     12  O          1.5460   -2.0220    1.8650 O.2     7  PHE7       -0.2864
     13  CB        -1.2780   -1.1500    3.0150 C.3     7  PHE7        0.0560
     14  CG        -1.8930    0.0310    3.7480 C.ar    7  PHE7       -0.0200
     15  CD1       -1.7270    1.3510    3.3350 C.ar    7  PHE7       -0.0042
     16  CD2       -2.6560   -0.1950    4.8770 C.ar    7  PHE7       -0.0042
     17  CE1       -2.3190    2.4090    4.0360 C.ar    7  PHE7       -0.0003
     18  CE2       -3.2400    0.8510    5.5730 C.ar    7  PHE7       -0.0003
     19  CZ        -3.0720    2.1600    5.1550 C.ar    7  PHE7       -0.0000
     20  N          3.2130    0.1480   -0.0870 N.3    10  ILE10      -0.1245
     21  CA         3.9830    0.7640    0.9860 C.3    10  ILE10       0.1561
     22  C          4.8470   -0.3310    1.6840 C.2    10  ILE10       0.2260
     23  O          6.0170   -0.1000    1.9540 O.2    10  ILE10      -0.2867
     24  CB         3.0760    1.5510    1.9930 C.3    10  ILE10       0.0252
     25  CG1        2.5060    2.8140    1.3300 C.3    10  ILE10       0.0019
     26  CG2        3.8640    1.8890    3.2550 C.3    10  ILE10       0.0019
     27  CD1        1.5650    3.6230    2.1860 C.3    10  ILE10       0.0001
     28  N          6.1540    2.2400   -2.8390 N.3    15  ILE15      -0.1231
     29  CA         5.6440    3.5910   -2.5890 C.3    15  ILE15       0.1678
     30  C          6.3260    4.1780   -1.3560 C.2    15  ILE15       0.2434
     31  O          6.4890    3.4720   -0.3680 O.2    15  ILE15      -0.2733
     32  CB         4.1270    3.5420   -2.2870 C.3    15  ILE15       0.0265
     33  CG1        3.3380    3.2450   -3.5590 C.3    15  ILE15       0.0019
     34  CG2        3.6560    4.8410   -1.6480 C.3    15  ILE15       0.0020
     35  CD1        4.0300    3.7040   -4.7990 C.3    15  ILE15       0.0001
     36  N          6.7100    5.4790   -1.3920 N.am   16  PRO16      -0.2718
     37  CA         7.3390    6.0560   -0.1860 C.3    16  PRO16       0.1535
     38  C          6.4090    6.1870    1.0180 C.2    16  PRO16       0.2599
     39  O          5.2010    6.4060    0.8910 O.2    16  PRO16      -0.2715
     40  CB         7.7750    7.4580   -0.6390 C.3    16  PRO16       0.0310
     41  CG         7.8660    7.3850   -2.1220 C.3    16  PRO16       0.0237
     42  CD         6.8040    6.3930   -2.5450 C.3    16  PRO16       0.0939
     43  N          7.0070    6.0610    2.1980 N.am   17  SER17      -0.1936
     44  CA         6.3450    6.3290    3.4560 C.3    17  SER17       0.2055
     45  C          7.3970    6.7450    4.4770 C.2    17  SER17       0.2643
     46  O          8.6090    6.5990    4.2520 O.2    17  SER17      -0.2714
     47  CB         5.6080    5.0870    3.9520 C.3    17  SER17       0.2130
     48  OG         6.5090    4.0500    4.2860 O.3    17  SER17      -0.2179
     49  N          6.9250    7.2430    5.6140 N.am   18  THR18      -0.1950
     50  CA         7.7910    7.5800    6.7260 C.3    18  THR18       0.1897
     51  C          7.7300    6.4370    7.7320 C.2    18  THR18       0.2313
     52  O          6.7500    6.2720    8.4550 O.2    18  THR18      -0.2863
     53  CB         7.3810    8.9100    7.3730 C.3    18  THR18       0.1794
     54  OG1        7.4790    9.9590    6.4050 O.3    18  THR18      -0.2208
     55  CG2        8.2730    9.2330    8.5610 C.3    18  THR18       0.0378
     56  N          4.2890    2.8980    9.8490 N.3    29  PHE29      -0.1227
     57  CA         4.5990    4.1220    9.1590 C.3    29  PHE29       0.1736
     58  C          3.5920    5.1920    9.5620 C.2    29  PHE29       0.2595
     59  O          2.4960    4.8940   10.0180 O.2    29  PHE29      -0.2718
     60  CB         4.6500    3.8970    7.6140 C.3    29  PHE29       0.0547
     61  CG         3.3910    3.2680    7.0240 C.ar   29  PHE29      -0.0202
     62  CD1        3.1680    1.8930    7.0460 C.ar   29  PHE29      -0.0042
     63  CD2        2.4030    4.0710    6.4750 C.ar   29  PHE29      -0.0042
     64  CE1        1.9970    1.3440    6.5240 C.ar   29  PHE29      -0.0003
     65  CE2        1.2440    3.5250    5.9400 C.ar   29  PHE29      -0.0003
     66  CZ         1.0390    2.1630    5.9760 C.ar   29  PHE29      -0.0000
     67  N          3.9500    6.4510    9.3980 N.am   30  ASN30      -0.1960
     68  CA         3.0200    7.5030    9.7830 C.3    30  ASN30       0.1819
     69  C          1.8350    7.5860    8.8460 C.2    30  ASN30       0.2621
     70  O          1.9770    7.4400    7.6310 O.2    30  ASN30      -0.2715
     71  CB         3.7380    8.8320    9.8120 C.3    30  ASN30       0.1195
     72  CG         4.7270    8.9280   10.9470 C.2    30  ASN30       0.2630
     73  OD1        4.5440    8.3450   12.0270 O.2    30  ASN30      -0.2716
     74  ND2        5.7600    9.7050   10.7280 N.am   30  ASN30      -0.0877
     75  N          0.6790    7.8750    9.4120 N.am   31  ASP31      -0.1957
     76  CA        -0.5000    8.0830    8.6030 C.3    31  ASP31       0.1840
     77  C         -0.3080    9.3650    7.7960 C.2    31  ASP31       0.2622
     78  O          0.1680   10.3400    8.3420 O.2    31  ASP31      -0.2715
     79  CB        -1.7120    8.2060    9.5080 C.3    31  ASP31       0.1450
     80  CG        -3.0130    8.0780    8.7550 C.2    31  ASP31       0.3671
     81  OD1       -3.3550    9.0250    8.0280 O.co2  31  ASP31      -0.2456
     82  OD2       -3.6810    7.0440    8.8970 O.co2  31  ASP31      -0.2456
     83  N         -0.7140    9.3530    6.5250 N.am   32  LEU32      -0.1963
     84  CA        -0.6130   10.5310    5.6610 C.3    32  LEU32       0.1728
     85  C         -1.4660   11.7000    6.1640 C.2    32  LEU32       0.2616
     86  O         -1.1380   12.8590    5.9130 O.2    32  LEU32      -0.2715
     87  CB        -1.0430   10.1570    4.2420 C.3    32  LEU32       0.0311
     88  CG        -0.9820   11.2570    3.1810 C.3    32  LEU32       0.0022
     89  CD1        0.4060   11.8680    3.0940 C.3    32  LEU32       0.0001
     90  CD2       -1.3950   10.6790    1.8610 C.3    32  LEU32       0.0001
     91  N         -2.5620   11.3840    6.8530 N.am   33  ASN33      -0.1972
     92  CA        -3.5550   12.3580    7.2970 C.3    33  ASN33       0.1688
     93  C         -3.7510   12.2240    8.8080 C.2    33  ASN33       0.2292
     94  O         -4.8070   11.7870    9.2660 O.2    33  ASN33      -0.2864
     95  CB        -4.8860   12.1380    6.5480 C.3    33  ASN33       0.1181
     96  CG        -4.7190   12.1360    5.0270 C.2    33  ASN33       0.2629
     97  OD1       -4.8410   11.0840    4.3710 O.2    33  ASN33      -0.2716
     98  ND2       -4.4170   13.2870    4.4670 N.am   33  ASN33      -0.0877
     99  N          0.2970    9.3970   14.9460 N.3    39  HIS39      -0.1241
    100  CA        -0.7580    8.6640   14.2630 C.3    39  HIS39       0.1621
    101  C         -0.0320    7.7000   13.3360 C.2    39  HIS39       0.2264
    102  O          0.4690    8.0820   12.2710 O.2    39  HIS39      -0.2867
    103  CB        -1.7120    9.5630   13.5070 C.3    39  HIS39       0.0745
    104  CG        -2.8610    8.8040   12.9270 C.ar   39  HIS39       0.0817
    105  ND1       -3.9440    9.4240   12.3580 N.ar   39  HIS39      -0.2268
    106  CD2       -3.0990    7.4730   12.8460 C.ar   39  HIS39       0.1154
    107  CE1       -4.7920    8.5050   11.9380 C.ar   39  HIS39       0.1986
    108  NE2       -4.3030    7.3130   12.2210 N.ar   39  HIS39      -0.2212
    109  N          0.3830    3.8000   11.5520 N.3    41  LEU41      -0.1245
    110  CA        -0.2730    2.6110   11.0150 C.3    41  LEU41       0.1561
    111  C          0.6910    1.4390   11.1520 C.2    41  LEU41       0.2260
    112  O          1.8420    1.5310   10.7410 O.2    41  LEU41      -0.2867
    113  CB        -0.6110    2.8100    9.5440 C.3    41  LEU41       0.0270
    114  CG        -1.6880    3.8410    9.2950 C.3    41  LEU41       0.0019
    115  CD1       -1.6860    4.3380    7.8630 C.3    41  LEU41       0.0001
    116  CD2       -3.0440    3.2070    9.5840 C.3    41  LEU41       0.0001
    117  N        -10.3500   -0.9090   12.1820 N.3    88  ASN88      -0.1240
    118  CA       -11.5990   -0.7050   11.4700 C.3    88  ASN88       0.1653
    119  C        -11.8090   -1.8700   10.5070 C.2    88  ASN88       0.2266
    120  O        -10.9820   -2.1150    9.6350 O.2    88  ASN88      -0.2867
    121  CB       -11.5100    0.5960   10.6680 C.3    88  ASN88       0.1155
    122  CG       -11.3670    1.8210   11.5340 C.2    88  ASN88       0.2627
    123  OD1      -11.8460    1.8730   12.6640 O.2    88  ASN88      -0.2716
    124  ND2      -10.6820    2.8210   11.0140 N.am   88  ASN88      -0.0877
    125  N        -15.7670    1.6670    9.1840 N.3    94  GLY94      -0.1225
    126  CA       -15.0210    2.7740    8.6250 C.3    94  GLY94       0.1811
    127  C        -13.7280    2.3790    7.9450 C.2    94  GLY94       0.2280
    128  O        -12.8970    3.2240    7.6870 O.2    94  GLY94      -0.2866
    129  N        -11.3530    1.7560    5.0970 N.3    96  GLU96      -0.1231
    130  CA       -11.2260    2.2740    3.7290 C.3    96  GLU96       0.1699
    131  C        -10.1630    1.4640    2.9420 C.2    96  GLU96       0.2592
    132  O        -10.4330    0.9300    1.8660 O.2    96  GLU96      -0.2718
    133  CB       -10.8760    3.7740    3.7590 C.3    96  GLU96       0.0402
    134  CG       -11.8680    4.6300    4.5550 C.3    96  GLU96       0.1161
    135  CD       -11.3270    6.0120    4.8800 C.2    96  GLU96       0.3649
    136  OE1      -10.4030    6.1310    5.7210 O.co2  96  GLU96      -0.2457
    137  OE2      -11.8220    6.9720    4.2850 O.co2  96  GLU96      -0.2457
    138  N         -8.9690    1.3920    3.5060 N.am   97  VAL97      -0.1980
    139  CA        -7.8850    0.6070    2.8980 C.3    97  VAL97       0.1595
    140  C         -8.0160   -0.8260    3.3620 C.2    97  VAL97       0.2287
    141  O         -7.9050   -1.1220    4.5570 O.2    97  VAL97      -0.2864
    142  CB        -6.5050    1.1420    3.2480 C.3    97  VAL97       0.0276
    143  CG1       -5.4270    0.2750    2.6270 C.3    97  VAL97       0.0022
    144  CG2       -6.3560    2.5990    2.7840 C.3    97  VAL97       0.0022
    145  N         -4.6770   -3.3530    9.1410 N.3   101  HIS101     -0.1241
    146  CA        -3.8580   -2.3210    9.7560 C.3   101  HIS101      0.1621
    147  C         -4.4400   -1.9220   11.0840 C.2   101  HIS101      0.2264
    148  O         -5.6550   -1.9230   11.2660 O.2   101  HIS101     -0.2867
    149  CB        -3.7830   -1.0560    8.8230 C.3   101  HIS101      0.0745
    150  CG        -5.1140   -0.4340    8.5030 C.ar  101  HIS101      0.0817
    151  ND1       -5.8760   -0.8990    7.4660 N.ar  101  HIS101     -0.2268
    152  CD2       -5.8070    0.6020    9.0450 C.ar  101  HIS101      0.1154
    153  CE1       -6.9960   -0.1940    7.3820 C.ar  101  HIS101      0.1986
    154  NE2       -6.9730    0.7310    8.3240 N.ar  101  HIS101     -0.2212
    155  N         -4.3240    1.3530   13.7810 N.3   103  HIS103     -0.1241
    156  CA        -3.9670    2.7330   14.0760 C.3   103  HIS103      0.1621
    157  C         -3.4960    2.8380   15.5170 C.2   103  HIS103      0.2264
    158  O         -4.1650    2.3310   16.4200 O.2   103  HIS103     -0.2867
    159  CB        -5.1850    3.6460   13.9460 C.3   103  HIS103      0.0745
    160  CG        -5.8270    3.6930   12.6040 C.ar  103  HIS103      0.0817
    161  ND1       -5.6020    4.7340   11.7300 N.ar  103  HIS103     -0.2268
    162  CD2       -6.7740    2.8880   12.0420 C.ar  103  HIS103      0.1154
    163  CE1       -6.3410    4.5230   10.6530 C.ar  103  HIS103      0.1986
    164  NE2       -7.0640    3.4220   10.8180 N.ar  103  HIS103     -0.2212
@<TRIPOS>BOND
     1    35    33    1
     2    33    32    1
     3    28    29    1
     4    29    32    1
     5    29    30    1
     6    42    41    1
     7    42    36    1
     8    32    34    1
     9    41    40    1
    10     6     8    1
    11     6     5    1
    12     1     2    1
    13    36    30   am
    14    36    37    1
    15    30    31    2
    16     2     5    1
    17     2     3    1
    18     5     7    1
    19    40    37    1
    20     4     3    2
    21     3     9   am
    22    37    38    1
    23    20    21    1
    24     9    10    1
    25    39    38    2
    26    21    22    1
    27    21    24    1
    28    38    43   am
    29    11    10    1
    30    11    12    2
    31    25    24    1
    32    25    27    1
    33    22    23    2
    34    10    13    1
    35    90    88    1
    36   132   131    2
    37    24    26    1
    38    43    44    1
    39   143   142    1
    40   144   142    1
    41   139   142    1
    42   139   140    1
    43   139   138    1
    44   131   138   am
    45   131   130    1
    46    13    14    1
    47    89    88    1
    48    88    87    1
    49    15    14   ar
    50    15    17   ar
    51   140   141    2
    52    44    47    1
    53    44    45    1
    54   130   133    1
    55   130   129    1
    56    14    16   ar
    57   133   134    1
    58    47    48    1
    59    17    19   ar
    60    87    84    1
    61    46    45    2
    62   137   135   ar
    63    97    96    2
    64    98    96   am
    65    45    49   am
    66   134   135    1
    67    16    18   ar
    68   135   136   ar
    69    96    95    1
    70    19    18   ar
    71    49    50    1
    72    84    85    1
    73    84    83    1
    74    86    85    2
    75    65    66   ar
    76    65    63   ar
    77    66    64   ar
    78    85    91   am
    79    54    53    1
    80    63    61   ar
    81    64    62   ar
    82    83    77   am
    83    95    92    1
    84    50    53    1
    85    50    51    1
    86    91    92    1
    87    61    62   ar
    88    61    60    1
    89    92    93    1
    90    53    55    1
    91   153   151   ar
    92   153   154   ar
    93   151   150   ar
    94    60    57    1
    95    70    69    2
    96   128   127    2
    97    51    52    2
    98    77    78    2
    99    77    76    1
   100   115   114    1
   101   127   126    1
   102    81    80   ar
   103   154   152   ar
   104   150   149    1
   105   150   152   ar
   106    76    75    1
   107    76    79    1
   108   126   125    1
   109    80    82   ar
   110    80    79    1
   111    93    94    2
   112   149   146    1
   113    69    75   am
   114    69    68    1
   115   145   146    1
   116    57    58    1
   117    57    56    1
   118   114   113    1
   119   114   116    1
   120    67    58   am
   121    67    68    1
   122   113   110    1
   123    58    59    2
   124   120   119    2
   125   146   147    1
   126    68    71    1
   127    71    72    1
   128   119   118    1
   129   163   164   ar
   130   163   161   ar
   131   121   118    1
   132   121   122    1
   133    74    72   am
   134   112   111    2
   135   164   162   ar
   136    72    73    2
   137   124   122   am
   138   110   111    1
   139   110   109    1
   140   147   148    2
   141   118   117    1
   142   122   123    2
   143   161   160   ar
   144   107   108   ar
   145   107   105   ar
   146   162   160   ar
   147   108   106   ar
   148   102   101    2
   149   105   104   ar
   150   160   159    1
   151   106   104   ar
   152   104   103    1
   153   101   100    1
   154   103   100    1
   155   155   156    1
   156   159   156    1
   157   156   157    1
   158   100    99    1
   159   157   158    2
