@<TRIPOS>MOLECULE
tmp/4eh1B00.pdb
 180 176 0 0 0
SMALL
GASTEIGER

@<TRIPOS>ATOM
      1  N          8.5660   40.1150   28.9670 N.3    38  TYR38      -0.1241
      2  CA         9.8240   39.9990   28.2390 C.3    38  TYR38       0.1605
      3  C         10.7860   41.1890   28.4440 C.2    38  TYR38       0.2264
      4  O         10.3740   42.2810   28.8170 O.2    38  TYR38      -0.2867
      5  CB         9.5140   39.8200   26.7320 C.3    38  TYR38       0.0534
      6  CG         8.6100   40.9090   26.1510 C.ar   38  TYR38      -0.0201
      7  CD1        9.1450   42.1280   25.7140 C.ar   38  TYR38      -0.0009
      8  CD2        7.2150   40.7130   26.0230 C.ar   38  TYR38      -0.0009
      9  CE1        8.3110   43.1340   25.1890 C.ar   38  TYR38       0.0417
     10  CE2        6.3820   41.6990   25.5080 C.ar   38  TYR38       0.0417
     11  CZ         6.9380   42.9110   25.0920 C.ar   38  TYR38       0.1957
     12  OH         6.1440   43.9060   24.5680 O.3    38  TYR38      -0.2866
     13  N         16.1740   42.2650   19.9130 N.3    54  ARG54      -0.1231
     14  CA        15.1320   41.2480   19.9510 C.3    54  ARG54       0.1694
     15  C         14.5790   41.0980   21.3710 C.2    54  ARG54       0.2592
     16  O         15.2800   41.3010   22.3620 O.2    54  ARG54      -0.2718
     17  CB        15.6500   39.8790   19.4970 C.3    54  ARG54       0.0321
     18  CG        16.3420   39.8510   18.1290 C.3    54  ARG54       0.0489
     19  CD        15.3680   40.2320   16.9960 C.3    54  ARG54       0.2205
     20  NE        16.0160   40.0590   15.7190 N.pl3  54  ARG54      -0.0865
     21  CZ        16.5370   41.0410   14.9900 C.cat  54  ARG54       0.5346
     22  NH1       16.4810   42.2950   15.4110 N.pl3  54  ARG54       0.1354
     23  NH2       17.1280   40.7630   13.8310 N.pl3  54  ARG54       0.1354
     24  N         13.3210   40.7010   21.4450 N.am   55  GLN55      -0.1966
     25  CA        12.6500   40.4860   22.6990 C.3    55  GLN55       0.1733
     26  C         12.8010   39.0060   23.1250 C.2    55  GLN55       0.2616
     27  O         12.7530   38.0930   22.3090 O.2    55  GLN55      -0.2715
     28  CB        11.1620   40.9060   22.5910 C.3    55  GLN55       0.0408
     29  CG        10.9430   42.4250   22.7120 C.3    55  GLN55       0.0908
     30  CD        11.3320   43.1840   21.4580 C.2    55  GLN55       0.2608
     31  OE1       11.1950   42.6670   20.3480 O.2    55  GLN55      -0.2717
     32  NE2       11.8190   44.4130   21.6270 N.am   55  GLN55      -0.0878
     33  N         12.9660   38.7680   24.4130 N.am   56  TYR56      -0.1960
     34  CA        13.0210   37.3860   24.9110 C.3    56  TYR56       0.1771
     35  C         12.2530   37.3100   26.2370 C.2    56  TYR56       0.2620
     36  O         12.4660   38.1420   27.1120 O.2    56  TYR56      -0.2715
     37  CB        14.4770   36.9010   25.0640 C.3    56  TYR56       0.0574
     38  CG        15.1760   36.7620   23.7280 C.ar   56  TYR56      -0.0198
     39  CD1       14.8670   35.6770   22.8540 C.ar   56  TYR56      -0.0009
     40  CD2       16.0800   37.7210   23.2970 C.ar   56  TYR56      -0.0009
     41  CE1       15.4680   35.5670   21.5940 C.ar   56  TYR56       0.0417
     42  CE2       16.6910   37.6140   22.0150 C.ar   56  TYR56       0.0417
     43  CZ        16.3700   36.5370   21.1830 C.ar   56  TYR56       0.1957
     44  OH        16.9570   36.4270   19.9550 O.3    56  TYR56      -0.2866
     45  N         11.3390   36.3480   26.3550 N.am   57  SER57      -0.1950
     46  CA        10.5600   36.1880   27.5720 C.3    57  SER57       0.1924
     47  C         11.5120   35.8440   28.7360 C.2    57  SER57       0.2314
     48  O         12.4720   35.0890   28.5600 O.2    57  SER57      -0.2863
     49  CB         9.5530   35.0440   27.3840 C.3    57  SER57       0.2116
     50  OG         8.7630   35.2330   26.2130 O.3    57  SER57      -0.2180
     51  N         15.7030   32.2950   27.4840 N.3    70  SER70      -0.1202
     52  CA        16.0520   31.0380   26.8400 C.3    70  SER70       0.2020
     53  C         15.7790   31.1750   25.3300 C.2    70  SER70       0.2619
     54  O         14.6430   31.3970   24.9100 O.2    70  SER70      -0.2717
     55  CB        15.2480   29.8820   27.4610 C.3    70  SER70       0.2103
     56  OG        15.3350   29.9220   28.8720 O.3    70  SER70      -0.2182
     57  N         16.8420   31.0360   24.5490 N.am   71  VAL71      -0.1965
     58  CA        16.8830   31.4280   23.1380 C.3    71  VAL71       0.1727
     59  C         17.0030   30.2120   22.2390 C.2    71  VAL71       0.2616
     60  O         17.9500   29.4190   22.3720 O.2    71  VAL71      -0.2715
     61  CB        18.1080   32.3030   22.8890 C.3    71  VAL71       0.0290
     62  CG1       18.1200   32.8160   21.4590 C.3    71  VAL71       0.0023
     63  CG2       18.1210   33.4840   23.9080 C.3    71  VAL71       0.0023
     64  N         16.0180   30.0450   21.3710 N.am   72  LYS72      -0.1977
     65  CA        16.0670   29.0630   20.2820 C.3    72  LYS72       0.1596
     66  C         16.9700   29.5480   19.1400 C.2    72  LYS72       0.2287
     67  O         16.8480   30.6850   18.7040 O.2    72  LYS72      -0.2864
     68  CB        14.6620   28.8290   19.7070 C.3    72  LYS72       0.0298
     69  CG        14.5880   27.7500   18.6420 C.3    72  LYS72       0.0038
     70  CD        13.2010   27.7090   18.0220 C.3    72  LYS72       0.0206
     71  CE        13.1660   26.8260   16.7820 C.3    72  LYS72       0.1093
     72  NZ        12.8660   25.4110   17.1400 N.3    72  LYS72      -0.1314
     73  N         17.3490   30.0700   15.7290 N.3    74  GLU74      -0.1231
     74  CA        16.3170   30.1640   14.6940 C.3    74  GLU74       0.1699
     75  C         16.8360   29.8930   13.2750 C.2    74  GLU74       0.2592
     76  O         17.9030   30.3250   12.9170 O.2    74  GLU74      -0.2718
     77  CB        15.6340   31.5300   14.7390 C.3    74  GLU74       0.0402
     78  CG        14.4370   31.6290   13.8070 C.3    74  GLU74       0.1161
     79  CD        13.2760   30.7500   14.2620 C.2    74  GLU74       0.3649
     80  OE1       12.7590   29.9550   13.4380 O.co2  74  GLU74      -0.2457
     81  OE2       12.8800   30.8630   15.4510 O.co2  74  GLU74      -0.2457
     82  N         16.0570   29.1740   12.4800 N.am   75  GLY75      -0.1957
     83  CA        16.4150   28.9160   11.1010 C.3    75  GLY75       0.1869
     84  C         17.6770   28.0940   10.9740 C.2    75  GLY75       0.2309
     85  O         18.4640   28.3010   10.0660 O.2    75  GLY75      -0.2863
     86  N         18.2400   31.0390    5.7590 N.3    80  ASN80      -0.1226
     87  CA        18.4780   32.2490    6.5400 C.3    80  ASN80       0.1770
     88  C         18.4950   32.0290    8.0570 C.2    80  ASN80       0.2439
     89  O         17.4590   32.1510    8.7330 O.2    80  ASN80      -0.2733
     90  CB        17.4920   33.3610    6.1570 C.3    80  ASN80       0.1168
     91  CG        18.0330   34.2680    5.0490 C.2    80  ASN80       0.2627
     92  OD1       17.8070   34.0280    3.8590 O.2    80  ASN80      -0.2716
     93  ND2       18.7570   35.3120    5.4440 N.am   80  ASN80      -0.0877
     94  N         19.6840   31.7120    8.5930 N.am   81  PRO81      -0.2718
     95  CA        19.9060   31.5180   10.0290 C.3    81  PRO81       0.1535
     96  C         19.6680   32.8280   10.7740 C.2    81  PRO81       0.2599
     97  O         20.2540   33.8570   10.4230 O.2    81  PRO81      -0.2715
     98  CB        21.3780   31.1200   10.1030 C.3    81  PRO81       0.0310
     99  CG        21.9790   31.6390    8.8490 C.3    81  PRO81       0.0237
    100  CD        20.9140   31.5170    7.8140 C.3    81  PRO81       0.0939
    101  N         18.7980   32.7870   11.7690 N.am   82  GLY82      -0.1941
    102  CA        18.4540   33.9680   12.5230 C.3    82  GLY82       0.2014
    103  C         19.6490   34.7440   13.0300 C.2    82  GLY82       0.2639
    104  O         20.5990   34.1950   13.5610 O.2    82  GLY82      -0.2714
    105  N         19.5680   36.0500   12.9060 N.am   83  LEU83      -0.1963
    106  CA        20.7300   36.9010   13.0740 C.3    83  LEU83       0.1728
    107  C         21.1450   37.0330   14.5410 C.2    83  LEU83       0.2616
    108  O         22.2930   36.7840   14.8980 O.2    83  LEU83      -0.2715
    109  CB        20.4330   38.2800   12.4550 C.3    83  LEU83       0.0311
    110  CG        21.5750   39.2750   12.3050 C.3    83  LEU83       0.0022
    111  CD1       22.7180   38.6940   11.4420 C.3    83  LEU83       0.0001
    112  CD2       21.0490   40.5950   11.7090 C.3    83  LEU83       0.0001
    113  N         20.2100   37.4220   15.3940 N.am   84  VAL84      -0.1963
    114  CA        20.5420   37.5790   16.7980 C.3    84  VAL84       0.1727
    115  C         20.6590   36.2480   17.5550 C.2    84  VAL84       0.2616
    116  O         21.5880   36.0830   18.3380 O.2    84  VAL84      -0.2715
    117  CB        19.5760   38.5410   17.4950 C.3    84  VAL84       0.0290
    118  CG1       19.8820   38.5870   18.9960 C.3    84  VAL84       0.0023
    119  CG2       19.7010   39.9550   16.8470 C.3    84  VAL84       0.0023
    120  N         19.7520   35.2950   17.3000 N.am   85  SER85      -0.1950
    121  CA        19.8030   34.0170   18.0210 C.3    85  SER85       0.1924
    122  C         21.1400   33.2820   17.7620 C.2    85  SER85       0.2314
    123  O         21.7490   32.7710   18.6800 O.2    85  SER85      -0.2863
    124  CB        18.5650   33.1280   17.7470 C.3    85  SER85       0.2116
    125  OG        18.3070   32.9180   16.3660 O.3    85  SER85      -0.2180
    126  N          9.7290   26.4800   21.8030 N.3   123  VAL123     -0.1245
    127  CA        10.3580   27.4900   22.6540 C.3   123  VAL123      0.1561
    128  C          9.2890   28.3420   23.3400 C.2   123  VAL123      0.2260
    129  O          9.5900   29.1820   24.1880 O.2   123  VAL123     -0.2867
    130  CB        11.4170   28.3300   21.8710 C.3   123  VAL123      0.0252
    131  CG1       10.7390   29.2240   20.8560 C.3   123  VAL123      0.0019
    132  CG2       12.3710   29.1090   22.8400 C.3   123  VAL123      0.0019
    133  N          9.0460   29.0940   27.2660 N.3   126  THR126     -0.1218
    134  CA         9.8230   30.0630   28.0540 C.3   126  THR126      0.1862
    135  C          8.9780   30.9070   29.0280 C.2   126  THR126      0.2287
    136  O          9.2820   30.9620   30.2220 O.2   126  THR126     -0.2866
    137  CB        10.8070   30.9350   27.1860 C.3   126  THR126      0.1770
    138  OG1       10.0980   31.6860   26.1800 O.3   126  THR126     -0.2211
    139  CG2       11.8030   30.0320   26.4880 C.3   126  THR126      0.0375
    140  N          0.3770   34.3530   24.1000 N.3   232  GLU232     -0.1231
    141  CA         1.5060   35.1450   23.6530 C.3   232  GLU232      0.1699
    142  C          2.0090   34.6100   22.2990 C.2   232  GLU232      0.2592
    143  O          1.9750   33.4070   22.0410 O.2   232  GLU232     -0.2718
    144  CB         2.6300   35.0920   24.6950 C.3   232  GLU232      0.0402
    145  CG         3.9020   35.8460   24.3100 C.3   232  GLU232      0.1161
    146  CD         3.7340   37.3740   24.3120 C.2   232  GLU232      0.3649
    147  OE1        4.4270   38.0450   25.1310 O.co2 232  GLU232     -0.2457
    148  OE2        2.9100   37.8970   23.5040 O.co2 232  GLU232     -0.2457
    149  N          2.4800   35.5110   21.4500 N.am  233  VAL233     -0.1966
    150  CA         3.0220   35.1340   20.1580 C.3   233  VAL233      0.1727
    151  C          4.4100   35.7330   20.0410 C.2   233  VAL233      0.2616
    152  O          4.6290   36.8730   20.4450 O.2   233  VAL233     -0.2715
    153  CB         2.1270   35.6210   18.9710 C.3   233  VAL233      0.0290
    154  CG1        0.7090   35.1320   19.1340 C.3   233  VAL233      0.0023
    155  CG2        2.1260   37.1380   18.8460 C.3   233  VAL233      0.0023
    156  N          5.3590   34.9560   19.5230 N.am  234  PHE234     -0.1960
    157  CA         6.7270   35.4420   19.3650 C.3   234  PHE234      0.1771
    158  C          6.8320   36.1350   18.0210 C.2   234  PHE234      0.2620
    159  O          7.7780   35.9320   17.2740 O.2   234  PHE234     -0.2715
    160  CB         7.7540   34.3120   19.5060 C.3   234  PHE234      0.0574
    161  CG         7.9050   33.8050   20.9290 C.ar  234  PHE234     -0.0200
    162  CD1        7.2380   34.4330   21.9820 C.ar  234  PHE234     -0.0042
    163  CD2        8.7200   32.7200   21.2150 C.ar  234  PHE234     -0.0042
    164  CE1        7.3890   33.9810   23.3100 C.ar  234  PHE234     -0.0003
    165  CE2        8.8650   32.2620   22.5150 C.ar  234  PHE234     -0.0003
    166  CZ         8.1860   32.9130   23.5720 C.ar  234  PHE234     -0.0000
    167  N          5.8520   36.9850   17.7440 N.am  235  GLY235     -0.1954
    168  CA         5.7080   37.6070   16.4430 C.3   235  GLY235      0.1869
    169  C          4.7790   36.7470   15.6230 C.2   235  GLY235      0.2309
    170  O          4.2630   35.7550   16.1360 O.2   235  GLY235     -0.2863
    171  N          4.6990   34.1970   13.7120 N.3   237  HIS237     -0.1241
    172  CA         5.2020   32.9180   13.2280 C.3   237  HIS237      0.1621
    173  C          4.6970   31.7880   14.1180 C.2   237  HIS237      0.2264
    174  O          4.4720   30.6740   13.6480 O.2   237  HIS237     -0.2867
    175  CB         6.7270   32.9140   13.1960 C.3   237  HIS237      0.0745
    176  CG         7.3300   34.1940   12.7090 C.ar  237  HIS237      0.0817
    177  ND1        7.7030   34.3890   11.3980 N.ar  237  HIS237     -0.2268
    178  CD2        7.6330   35.3420   13.3620 C.ar  237  HIS237      0.1154
    179  CE1        8.2120   35.6000   11.2630 C.ar  237  HIS237      0.1986
    180  NE2        8.1800   36.1990   12.4400 N.ar  237  HIS237     -0.2212
@<TRIPOS>BOND
     1    92    91    2
     2    91    93   am
     3    91    90    1
     4    86    87    1
     5    90    87    1
     6    87    88    1
     7   100    94    1
     8   100    99    1
     9    88    94   am
    10    88    89    2
    11    94    95    1
    12    99    98    1
    13    95    98    1
    14    95    96    1
    15    85    84    2
    16    97    96    2
    17    96   101   am
    18    84    83    1
    19    83    82    1
    20   179   177   ar
    21   179   180   ar
    22   177   176   ar
    23   111   110    1
    24   112   110    1
    25   101   102    1
    26   110   109    1
    27   180   178   ar
    28   109   106    1
    29    82    75   am
    30   102   103    1
    31   176   175    1
    32   176   178   ar
    33   105   103   am
    34   105   106    1
    35    76    75    2
    36   103   104    2
    37   106   107    1
    38   175   172    1
    39   172   171    1
    40   172   173    1
    41    75    74    1
    42    80    79   ar
    43   174   173    2
    44    78    79    1
    45    78    77    1
    46    23    21    1
    47    79    81   ar
    48   107   108    2
    49   107   113   am
    50    74    77    1
    51    74    73    1
    52    21    22    1
    53    21    20    2
    54   113   114    1
    55   169   170    2
    56   169   168    1
    57    20    19    1
    58   125   124    1
    59   168   167    1
    60    71    72    1
    61    71    70    1
    62   114   117    1
    63   114   115    1
    64   119   117    1
    65    19    18    1
    66   159   158    2
    67   120   115   am
    68   120   121    1
    69   117   118    1
    70   115   116    2
    71   167   158   am
    72   124   121    1
    73   122   121    1
    74   122   123    2
    75   158   157    1
    76    70    69    1
    77    18    17    1
    78    69    68    1
    79    67    66    2
    80   155   153    1
    81   153   154    1
    82   153   150    1
    83    66    65    1
    84   157   160    1
    85   157   156    1
    86    17    14    1
    87   160   161    1
    88   156   151   am
    89    68    65    1
    90    13    14    1
    91    14    15    1
    92    44    43    1
    93   151   150    1
    94   151   152    2
    95   150   149    1
    96    65    64    1
    97    31    30    2
    98   131   130    1
    99   161   163   ar
   100   161   162   ar
   101    43    41   ar
   102    43    42   ar
   103   163   165   ar
   104    64    59   am
   105    15    24   am
   106    15    16    2
   107    24    25    1
   108   149   142   am
   109    30    32   am
   110    30    29    1
   111    62    61    1
   112    41    39   ar
   113   126   127    1
   114   130   127    1
   115   130   132    1
   116   162   164   ar
   117    42    40   ar
   118   143   142    2
   119    59    60    2
   120    59    58    1
   121   142   141    1
   122    27    26    2
   123   165   166   ar
   124    28    25    1
   125    28    29    1
   126   127   128    1
   127    25    26    1
   128    39    38   ar
   129    61    58    1
   130    61    63    1
   131    26    33   am
   132    58    57    1
   133    40    38   ar
   134   164   166   ar
   135   128   129    2
   136   148   146   ar
   137   141   140    1
   138   141   144    1
   139    38    37    1
   140   145   146    1
   141   145   144    1
   142   146   147   ar
   143    33    34    1
   144    57    53   am
   145    12    11    1
   146    54    53    2
   147    34    37    1
   148    34    35    1
   149    11     9   ar
   150    11    10   ar
   151     9     7   ar
   152    53    52    1
   153    10     8   ar
   154     7     6   ar
   155     8     6   ar
   156     6     5    1
   157   138   137    1
   158    50    49    1
   159    35    45   am
   160    35    36    2
   161    45    46    1
   162   139   137    1
   163     5     2    1
   164    52    55    1
   165    52    51    1
   166   137   134    1
   167   133   134    1
   168    49    46    1
   169    55    56    1
   170    46    47    1
   171   134   135    1
   172     2     3    1
   173     2     1    1
   174     3     4    2
   175    48    47    2
   176   135   136    2
