@<TRIPOS>MOLECULE
tmp/4eh2A01.pdb
 114 105 0 0 0
SMALL
GASTEIGER

@<TRIPOS>ATOM
      1  N          8.9670   -2.0660   28.3270 N.3    27  VAL27      -0.1231
      2  CA         7.5840   -1.6740   28.6430 C.3    27  VAL27       0.1692
      3  C          6.5320   -2.7960   28.5950 C.2    27  VAL27       0.2592
      4  O          5.3800   -2.5820   28.9720 O.2    27  VAL27      -0.2718
      5  CB         7.0710   -0.4730   27.7880 C.3    27  VAL27       0.0266
      6  CG1        7.6200    0.8520   28.3040 C.3    27  VAL27       0.0020
      7  CG2        7.3830   -0.6670   26.3160 C.3    27  VAL27       0.0020
      8  N          6.9240   -3.9770   28.1340 N.am   28  GLY28      -0.1957
      9  CA         5.9920   -5.1000   27.9980 C.3    28  GLY28       0.1869
     10  C          6.5020   -6.1620   27.0280 C.2    28  GLY28       0.2309
     11  O          7.6330   -6.0600   26.5150 O.2    28  GLY28      -0.2863
     12  N          9.1170   -5.0220   23.6370 N.3    33  VAL33      -0.1245
     13  CA         9.0330   -3.6030   23.3360 C.3    33  VAL33       0.1561
     14  C          9.7570   -2.7320   24.3810 C.2    33  VAL33       0.2260
     15  O          9.5380   -2.8710   25.5910 O.2    33  VAL33      -0.2867
     16  CB         7.5400   -3.1700   23.2580 C.3    33  VAL33       0.0252
     17  CG1        7.4070   -1.6800   22.9910 C.3    33  VAL33       0.0019
     18  CG2        6.7850   -3.9710   22.1910 C.3    33  VAL33       0.0019
     19  N          8.2760    3.8610   20.8000 N.3    46  ALA46      -0.1245
     20  CA         8.3450    2.4490   21.1510 C.3    46  ALA46       0.1562
     21  C          9.1660    1.7410   20.0820 C.2    46  ALA46       0.2260
     22  O          8.9500    1.9390   18.8910 O.2    46  ALA46      -0.2867
     23  CB         6.9490    1.8450   21.2390 C.3    46  ALA46       0.0290
     24  N         10.0140   -2.0570   18.9450 N.3    48  LYS48      -0.1245
     25  CA         9.6480   -3.4450   19.1180 C.3    48  LYS48       0.1561
     26  C         10.6320   -4.3060   18.3380 C.2    48  LYS48       0.2260
     27  O         10.7660   -4.1610   17.1250 O.2    48  LYS48      -0.2867
     28  CB         8.2280   -3.6980   18.6320 C.3    48  LYS48       0.0271
     29  CG         7.7490   -5.1350   18.7770 C.3    48  LYS48       0.0035
     30  CD         6.6220   -5.3660   17.8050 C.3    48  LYS48       0.0206
     31  CE         5.5620   -6.3020   18.2970 C.3    48  LYS48       0.1093
     32  NZ         4.3680   -6.0520   17.3860 N.3    48  LYS48      -0.1314
     33  N          2.9380   -7.8490    9.0540 N.3    66  GLU66      -0.1245
     34  CA         2.8990   -6.7420    9.9710 C.3    66  GLU66       0.1567
     35  C          3.6940   -5.5740    9.4210 C.2    66  GLU66       0.2260
     36  O          3.2530   -4.4530    9.5160 O.2    66  GLU66      -0.2867
     37  CB         3.4050   -7.1430   11.3490 C.3    66  GLU66       0.0388
     38  CG         3.4230   -5.9380   12.2980 C.3    66  GLU66       0.1160
     39  CD         4.0120   -6.2240   13.6470 C.2    66  GLU66       0.3649
     40  OE1        3.7590   -5.4320   14.6060 O.co2  66  GLU66      -0.2457
     41  OE2        4.7490   -7.2310   13.7600 O.co2  66  GLU66      -0.2457
     42  N          1.9290   -1.9320    8.7260 N.3    70  LEU70      -0.1245
     43  CA         2.4470   -0.7210    9.3710 C.3    70  LEU70       0.1561
     44  C          2.9570    0.3390    8.3920 C.2    70  LEU70       0.2260
     45  O          2.6780    1.5350    8.5670 O.2    70  LEU70      -0.2867
     46  CB         3.5190   -1.0800   10.3800 C.3    70  LEU70       0.0270
     47  CG         2.9380   -1.6390   11.6910 C.3    70  LEU70       0.0019
     48  CD1        4.0750   -2.1940   12.5200 C.3    70  LEU70       0.0001
     49  CD2        2.2420   -0.5230   12.4420 C.3    70  LEU70       0.0001
     50  N         -2.0300    3.5920   14.3410 N.3    79  ILE79      -0.1245
     51  CA        -0.5800    3.5520   14.5580 C.3    79  ILE79       0.1561
     52  C          0.1670    3.4620   13.2280 C.2    79  ILE79       0.2260
     53  O         -0.2150    2.7170   12.3360 O.2    79  ILE79      -0.2867
     54  CB        -0.1900    2.3730   15.4920 C.3    79  ILE79       0.0252
     55  CG1        1.1460    2.6060   16.1620 C.3    79  ILE79       0.0019
     56  CG2       -0.2130    1.0310   14.7650 C.3    79  ILE79       0.0019
     57  CD1        2.2680    2.5360   15.2060 C.3    79  ILE79       0.0001
     58  N         10.8450   -2.5430   14.9080 N.3    99  LEU99      -0.1245
     59  CA         9.8550   -1.5860   14.4150 C.3    99  LEU99       0.1561
     60  C          9.7180   -0.3970   15.3580 C.2    99  LEU99       0.2260
     61  O          9.6930   -0.5670   16.5810 O.2    99  LEU99      -0.2867
     62  CB         8.4850   -2.2450   14.2310 C.3    99  LEU99       0.0270
     63  CG         8.4740   -3.5460   13.4060 C.3    99  LEU99       0.0019
     64  CD1        7.1090   -4.2680   13.5090 C.3    99  LEU99       0.0001
     65  CD2        8.8320   -3.2600   11.9630 C.3    99  LEU99       0.0001
     66  N          7.5500    3.0640   16.5070 N.3   101  THR101     -0.1203
     67  CA         6.2820    3.8140   16.4890 C.3   101  THR101      0.1994
     68  C          6.2550    4.8550   17.6200 C.2   101  THR101      0.2618
     69  O          7.0970    4.7980   18.5190 O.2   101  THR101     -0.2717
     70  CB         5.0530    2.8760   16.6710 C.3   101  THR101      0.1784
     71  OG1        5.0260    2.3550   18.0200 O.3   101  THR101     -0.2211
     72  CG2        5.0840    1.7010   15.6710 C.3   101  THR101      0.0376
     73  N          5.2830    5.7870   17.5780 N.am  102  HIS102     -0.1961
     74  CA         5.1020    6.7310   18.6660 C.3   102  HIS102      0.1787
     75  C          4.7680    5.9370   19.9080 C.2   102  HIS102      0.2620
     76  O          4.2270    4.8290   19.8190 O.2   102  HIS102     -0.2715
     77  CB         3.9790    7.7320   18.3950 C.3   102  HIS102      0.0785
     78  CG         4.3720    8.8480   17.4720 C.ar  102  HIS102      0.0821
     79  ND1        3.7810    9.0370   16.2380 N.ar  102  HIS102     -0.2267
     80  CD2        5.2980    9.8300   17.5980 C.ar  102  HIS102      0.1154
     81  CE1        4.3250   10.0870   15.6430 C.ar  102  HIS102      0.1986
     82  NE2        5.2600   10.5760   16.4430 N.ar  102  HIS102     -0.2212
     83  N          5.1410    6.4770   21.0630 N.am  103  LEU103     -0.1963
     84  CA         4.8200    5.8530   22.3330 C.3   103  LEU103      0.1728
     85  C          3.5840    6.5640   22.8340 C.2   103  LEU103      0.2616
     86  O          3.6230    7.7730   23.0760 O.2   103  LEU103     -0.2715
     87  CB         5.9730    6.0540   23.3280 C.3   103  LEU103      0.0311
     88  CG         5.9310    5.4240   24.7180 C.3   103  LEU103      0.0022
     89  CD1        6.1360    3.9190   24.6290 C.3   103  LEU103      0.0001
     90  CD2        7.0010    6.0640   25.6070 C.3   103  LEU103      0.0001
     91  N          2.4820    5.8410   22.9890 N.am  104  MET104     -0.1977
     92  CA         1.2890    6.4680   23.5510 C.3   104  MET104      0.1605
     93  C          1.2350    6.1400   25.0290 C.2   104  MET104      0.2287
     94  O          1.7730    5.1080   25.4660 O.2   104  MET104     -0.2864
     95  CB         0.0190    6.0090   22.8330 C.3   104  MET104      0.0413
     96  CG         0.0210    6.2160   21.3090 C.3   104  MET104      0.0598
     97  SD        -0.3660    7.9140   20.8040 S.3   104  MET104     -0.1393
     98  CE        -2.1600    7.9860   21.0310 C.3   104  MET104      0.0692
     99  N         -4.1160    0.1380   17.3910 N.3   162  LEU162     -0.1231
    100  CA        -2.9620   -0.7240   17.0680 C.3   162  LEU162      0.1693
    101  C         -3.3360   -2.1830   16.7520 C.2   162  LEU162      0.2592
    102  O         -4.4240   -2.6380   17.0930 O.2   162  LEU162     -0.2718
    103  CB        -1.9120   -0.7100   18.1640 C.3   162  LEU162      0.0284
    104  CG        -2.1420   -0.3890   19.6130 C.3   162  LEU162      0.0019
    105  CD1       -0.9230   -0.8720   20.3450 C.3   162  LEU162      0.0001
    106  CD2       -2.2740    1.1010   19.7560 C.3   162  LEU162      0.0001
    107  N         -2.3960   -2.8800   16.1150 N.am  163  ASP163     -0.1974
    108  CA        -2.3860   -4.3550   15.9260 C.3   163  ASP163      0.1709
    109  C         -3.4090   -4.9220   14.9160 C.2   163  ASP163      0.2293
    110  O         -3.7340   -6.1090   14.9740 O.2   163  ASP163     -0.2864
    111  CB        -2.5070   -5.0910   17.2840 C.3   163  ASP163      0.1436
    112  CG        -1.2840   -4.8760   18.2030 C.2   163  ASP163      0.3671
    113  OD1       -0.2230   -4.4380   17.7050 O.co2 163  ASP163     -0.2456
    114  OD2       -1.3810   -5.1440   19.4320 O.co2 163  ASP163     -0.2456
@<TRIPOS>BOND
     1    44    45    2
     2    44    43    1
     3    42    43    1
     4    33    34    1
     5    43    46    1
     6    35    36    2
     7    35    34    1
     8    34    37    1
     9    46    47    1
    10    37    38    1
    11    47    49    1
    12    47    48    1
    13    65    63    1
    14    38    39    1
    15    53    52    2
    16    52    51    1
    17    63    64    1
    18    63    62    1
    19    39    41   ar
    20    39    40   ar
    21    62    59    1
    22    50    51    1
    23    59    58    1
    24    59    60    1
    25    51    54    1
    26    56    54    1
    27   109   110    2
    28   109   108    1
    29    57    55    1
    30    60    61    2
    31    54    55    1
    32    81    79   ar
    33    81    82   ar
    34    72    70    1
    35   108   107    1
    36   108   111    1
    37   107   101   am
    38    79    78   ar
    39    82    80   ar
    40    67    66    1
    41    67    70    1
    42    67    68    1
    43    70    71    1
    44   101   100    1
    45   101   102    2
    46   100    99    1
    47   100   103    1
    48    27    26    2
    49   111   112    1
    50    32    31    1
    51    78    80   ar
    52    78    77    1
    53    73    68   am
    54    73    74    1
    55    68    69    2
    56   113   112   ar
    57    30    31    1
    58    30    29    1
    59   103   104    1
    60   112   114   ar
    61    26    25    1
    62    77    74    1
    63    28    29    1
    64    28    25    1
    65    74    75    1
    66    22    21    2
    67    24    25    1
    68   104   106    1
    69   104   105    1
    70    76    75    2
    71    75    83   am
    72    21    20    1
    73    19    20    1
    74    97    98    1
    75    97    96    1
    76    83    84    1
    77    20    23    1
    78    96    95    1
    79    18    16    1
    80    84    85    1
    81    84    87    1
    82    95    92    1
    83    85    91   am
    84    85    86    2
    85    91    92    1
    86    17    16    1
    87    16    13    1
    88    87    88    1
    89    13    12    1
    90    13    14    1
    91    92    93    1
    92    14    15    2
    93    89    88    1
    94    88    90    1
    95    93    94    2
    96     7     5    1
    97    11    10    2
    98    10     9    1
    99     5     6    1
   100     5     2    1
   101     9     8    1
   102     8     3   am
   103     1     2    1
   104     3     2    1
   105     3     4    2
