@<TRIPOS>MOLECULE
tmp/4eh3A00.pdb
 162 152 0 0 0
SMALL
GASTEIGER

@<TRIPOS>ATOM
      1  N         -8.8300   -4.8250  -23.7330 N.3    33  VAL33      -0.1245
      2  CA        -8.8370   -3.3950  -23.4990 C.3    33  VAL33       0.1561
      3  C         -9.6500   -2.6020  -24.5480 C.2    33  VAL33       0.2260
      4  O         -9.5440   -2.8350  -25.7790 O.2    33  VAL33      -0.2867
      5  CB        -7.3730   -2.8560  -23.4350 C.3    33  VAL33       0.0252
      6  CG1       -7.3410   -1.3330  -23.2780 C.3    33  VAL33       0.0019
      7  CG2       -6.5880   -3.5360  -22.3090 C.3    33  VAL33       0.0019
      8  N         -8.3930    4.0730  -20.9020 N.3    46  ALA46      -0.1245
      9  CA        -8.5410    2.6560  -21.2460 C.3    46  ALA46       0.1562
     10  C         -9.3350    1.9080  -20.1650 C.2    46  ALA46       0.2260
     11  O         -9.0230    2.0050  -18.9750 O.2    46  ALA46      -0.2867
     12  CB        -7.1950    1.9980  -21.5050 C.3    46  ALA46       0.0290
     13  N        -10.2550   -1.8360  -19.0020 N.3    48  LYS48      -0.1245
     14  CA        -9.7880   -3.1950  -19.1440 C.3    48  LYS48       0.1561
     15  C        -10.7500   -4.1350  -18.4290 C.2    48  LYS48       0.2260
     16  O        -11.0350   -3.9740  -17.2410 O.2    48  LYS48      -0.2867
     17  CB        -8.3960   -3.3490  -18.5640 C.3    48  LYS48       0.0271
     18  CG        -7.8340   -4.7650  -18.7560 C.3    48  LYS48       0.0035
     19  CD        -6.6070   -5.0260  -17.8790 C.3    48  LYS48       0.0206
     20  CE        -5.7480   -6.1840  -18.4000 C.3    48  LYS48       0.1093
     21  NZ        -4.3140   -5.9070  -18.0270 N.3    48  LYS48      -0.1314
     22  N         -2.9940   -7.7790   -8.8980 N.3    66  GLU66      -0.1245
     23  CA        -3.1110   -6.7200   -9.8370 C.3    66  GLU66       0.1567
     24  C         -3.8950   -5.5330   -9.2760 C.2    66  GLU66       0.2260
     25  O         -3.4430   -4.4090   -9.3720 O.2    66  GLU66      -0.2867
     26  CB        -3.7800   -7.2660  -11.0870 C.3    66  GLU66       0.0388
     27  CG        -4.3490   -6.2000  -11.9600 C.3    66  GLU66       0.1160
     28  CD        -4.1760   -6.4920  -13.4190 C.2    66  GLU66       0.3649
     29  OE1       -3.5390   -5.6400  -14.0820 O.co2  66  GLU66      -0.2457
     30  OE2       -4.6600   -7.5600  -13.9050 O.co2  66  GLU66      -0.2457
     31  N         -2.1320   -1.7740   -8.5410 N.3    70  LEU70      -0.1245
     32  CA        -2.6330   -0.5990   -9.2200 C.3    70  LEU70       0.1561
     33  C         -3.1880    0.4450   -8.2430 C.2    70  LEU70       0.2260
     34  O         -2.9650    1.6270   -8.4450 O.2    70  LEU70      -0.2867
     35  CB        -3.6820   -0.9590  -10.2820 C.3    70  LEU70       0.0270
     36  CG        -3.2080   -1.7950  -11.4730 C.3    70  LEU70       0.0019
     37  CD1       -4.3590   -2.0510  -12.4420 C.3    70  LEU70       0.0001
     38  CD2       -2.0980   -1.1320  -12.2350 C.3    70  LEU70       0.0001
     39  N          1.8470    3.6630  -14.2220 N.3    79  ILE79      -0.1245
     40  CA         0.4320    3.5380  -14.4500 C.3    79  ILE79       0.1561
     41  C         -0.3020    3.3830  -13.1250 C.2    79  ILE79       0.2260
     42  O          0.1010    2.6130  -12.2530 O.2    79  ILE79      -0.2867
     43  CB         0.1100    2.3360  -15.3540 C.3    79  ILE79       0.0252
     44  CG1       -1.3450    2.3790  -15.7610 C.3    79  ILE79       0.0019
     45  CG2        0.4450    0.9810  -14.6420 C.3    79  ILE79       0.0019
     46  CD1       -1.6730    1.3030  -16.7740 C.3    79  ILE79       0.0001
     47  N        -11.0860   -2.3550  -14.8730 N.3    99  LEU99      -0.1245
     48  CA       -10.1110   -1.4000  -14.3960 C.3    99  LEU99       0.1561
     49  C        -10.0000   -0.2310  -15.3880 C.2    99  LEU99       0.2260
     50  O        -10.0150   -0.4340  -16.5920 O.2    99  LEU99      -0.2867
     51  CB        -8.7650   -2.0750  -14.2950 C.3    99  LEU99       0.0270
     52  CG        -8.6300   -3.4050  -13.5520 C.3    99  LEU99       0.0019
     53  CD1       -7.2040   -3.8780  -13.8470 C.3    99  LEU99       0.0001
     54  CD2       -8.8340   -3.2570  -12.0710 C.3    99  LEU99       0.0001
     55  N         -7.7080    3.0570  -16.5440 N.3   101  THR101     -0.1203
     56  CA        -6.4720    3.8150  -16.4210 C.3   101  THR101      0.1994
     57  C         -6.3910    4.8790  -17.5420 C.2   101  THR101      0.2618
     58  O         -7.2130    4.8680  -18.4930 O.2   101  THR101     -0.2717
     59  CB        -5.2560    2.8740  -16.5330 C.3   101  THR101      0.1784
     60  OG1       -5.1770    2.3990  -17.8840 O.3   101  THR101     -0.2211
     61  CG2       -5.3370    1.6630  -15.5520 C.3   101  THR101      0.0376
     62  N         -5.3940    5.7810  -17.4520 N.am  102  HIS102     -0.1961
     63  CA        -5.1100    6.7390  -18.5310 C.3   102  HIS102      0.1787
     64  C         -4.7830    5.9470  -19.7810 C.2   102  HIS102      0.2620
     65  O         -4.1320    4.9030  -19.7060 O.2   102  HIS102     -0.2715
     66  CB        -3.8680    7.5940  -18.2340 C.3   102  HIS102      0.0785
     67  CG        -4.0890    8.7060  -17.2560 C.ar  102  HIS102      0.0821
     68  ND1       -3.3330    8.8440  -16.1090 N.ar  102  HIS102     -0.2267
     69  CD2       -4.9530    9.7500  -17.2630 C.ar  102  HIS102      0.1154
     70  CE1       -3.7440    9.9060  -15.4340 C.ar  102  HIS102      0.1986
     71  NE2       -4.7310   10.4690  -16.1090 N.ar  102  HIS102     -0.2212
     72  N         -5.2520    6.4380  -20.9210 N.am  103  LEU103     -0.1963
     73  CA        -4.8730    5.9010  -22.2090 C.3   103  LEU103      0.1728
     74  C         -3.5990    6.6140  -22.7000 C.2   103  LEU103      0.2616
     75  O         -3.4750    7.8290  -22.5670 O.2   103  LEU103     -0.2715
     76  CB        -6.0190    6.1250  -23.1870 C.3   103  LEU103      0.0311
     77  CG        -5.8850    5.5690  -24.6080 C.3   103  LEU103      0.0022
     78  CD1       -5.7910    4.0420  -24.6190 C.3   103  LEU103      0.0001
     79  CD2       -7.0400    6.0330  -25.4580 C.3   103  LEU103      0.0001
     80  N         -2.6460    5.8670  -23.2580 N.am  104  MET104     -0.1963
     81  CA        -1.4370    6.4860  -23.8270 C.3   104  MET104      0.1736
     82  C         -1.3560    6.1000  -25.2810 C.2   104  MET104      0.2617
     83  O         -1.8110    5.0140  -25.6550 O.2   104  MET104     -0.2715
     84  CB        -0.1510    6.0280  -23.1240 C.3   104  MET104      0.0427
     85  CG        -0.2240    5.9080  -21.5960 C.3   104  MET104      0.0599
     86  SD         0.3110    7.4080  -20.7510 S.3   104  MET104     -0.1393
     87  CE         1.9640    7.6430  -21.4290 C.3   104  MET104      0.0692
     88  N         -0.7620    6.9820  -26.0910 N.am  105  GLY105     -0.1940
     89  CA        -0.6090    6.7610  -27.5350 C.3   105  GLY105      0.2014
     90  C          0.0130    5.4330  -27.9380 C.2   105  GLY105      0.2639
     91  O         -0.6840    4.5420  -28.4400 O.2   105  GLY105     -0.2714
     92  N          1.3130    5.2890  -27.7200 N.am  106  ALA106     -0.1963
     93  CA         2.0420    4.1330  -28.2240 C.3   106  ALA106      0.1728
     94  C          2.9220    3.5030  -27.1430 C.2   106  ALA106      0.2616
     95  O          3.0830    4.0470  -26.0600 O.2   106  ALA106     -0.2715
     96  CB         2.8920    4.5380  -29.4520 C.3   106  ALA106      0.0334
     97  N          3.4980    2.3520  -27.4240 N.am  107  ASP107     -0.1971
     98  CA         4.5090    1.8640  -26.5180 C.3   107  ASP107      0.1709
     99  C          5.8930    2.0850  -27.0920 C.2   107  ASP107      0.2293
    100  O          6.0330    2.5400  -28.2310 O.2   107  ASP107     -0.2864
    101  CB         4.2360    0.4240  -26.0540 C.3   107  ASP107      0.1436
    102  CG         4.1990   -0.5930  -27.1900 C.2   107  ASP107      0.3671
    103  OD1        3.3250   -1.4860  -27.1420 O.co2 107  ASP107     -0.2456
    104  OD2        5.0600   -0.5330  -28.0950 O.co2 107  ASP107     -0.2456
    105  N          6.8870    0.7930  -30.4020 N.3   110  ASN110     -0.1240
    106  CA         6.4090    1.5610  -31.5520 C.3   110  ASN110      0.1653
    107  C          7.2640    2.7480  -31.9640 C.2   110  ASN110      0.2266
    108  O          7.0560    3.3030  -33.0480 O.2   110  ASN110     -0.2867
    109  CB         4.9760    2.0330  -31.3150 C.3   110  ASN110      0.1155
    110  CG         4.0200    0.8870  -31.1280 C.2   110  ASN110      0.2627
    111  OD1        4.1950   -0.1870  -31.7180 O.2   110  ASN110     -0.2716
    112  ND2        3.0050    1.0960  -30.3000 N.am  110  ASN110     -0.0877
    113  N          7.4030   -3.0630  -24.8550 N.3   149  SER149     -0.1217
    114  CA         5.9320   -3.0850  -24.8870 C.3   149  SER149      0.1889
    115  C          5.2980   -2.8560  -23.5480 C.2   149  SER149      0.2288
    116  O          4.0960   -2.6880  -23.4830 O.2   149  SER149     -0.2866
    117  CB         5.4070   -4.3910  -25.4690 C.3   149  SER149      0.2089
    118  OG         6.0860   -5.4780  -24.8630 O.3   149  SER149     -0.2183
    119  N          4.7700    2.7580  -21.8180 N.3   152  ALA152     -0.1245
    120  CA         3.8640    3.5580  -22.6350 C.3   152  ALA152      0.1562
    121  C          4.3730    4.9960  -22.7290 C.2   152  ALA152      0.2260
    122  O          4.8130    5.5870  -21.7520 O.2   152  ALA152     -0.2867
    123  CB         2.4800    3.5320  -22.0610 C.3   152  ALA152      0.0290
    124  N          3.9730    0.2620  -17.4400 N.3   162  LEU162     -0.1231
    125  CA         2.7480   -0.5490  -17.3460 C.3   162  LEU162      0.1693
    126  C          3.0400   -1.8580  -16.6080 C.2   162  LEU162      0.2592
    127  O          4.1750   -2.3750  -16.6410 O.2   162  LEU162     -0.2718
    128  CB         2.2150   -0.9100  -18.7160 C.3   162  LEU162      0.0284
    129  CG         2.1890    0.1030  -19.8410 C.3   162  LEU162      0.0019
    130  CD1        1.9180   -0.7500  -21.0730 C.3   162  LEU162      0.0001
    131  CD2        1.0810    1.0890  -19.6180 C.3   162  LEU162      0.0001
    132  N          2.0080   -2.3990  -15.9700 N.am  163  ASP163     -0.1960
    133  CA         2.1220   -3.7170  -15.2990 C.3   163  ASP163      0.1840
    134  C          2.0680   -4.9310  -16.2630 C.2   163  ASP163      0.2622
    135  O          2.7840   -5.9150  -16.0450 O.2   163  ASP163     -0.2715
    136  CB         1.1690   -3.8430  -14.0770 C.3   163  ASP163      0.1450
    137  CG        -0.3170   -4.0510  -14.4540 C.2   163  ASP163      0.3671
    138  OD1       -0.8280   -3.4670  -15.4610 O.co2 163  ASP163     -0.2456
    139  OD2       -0.9870   -4.7930  -13.6700 O.co2 163  ASP163     -0.2456
    140  N          1.2400   -4.8320  -17.3140 N.am  164  PHE164     -0.1960
    141  CA         1.1600   -5.8340  -18.4050 C.3   164  PHE164      0.1771
    142  C          0.7290   -5.1880  -19.7490 C.2   164  PHE164      0.2620
    143  O         -0.4040   -4.6970  -19.8950 O.2   164  PHE164     -0.2715
    144  CB         0.2320   -7.0100  -18.0290 C.3   164  PHE164      0.0574
    145  CG         0.0850   -8.0260  -19.1270 C.ar  164  PHE164     -0.0200
    146  CD1        1.1300   -8.8130  -19.5280 C.ar  164  PHE164     -0.0042
    147  CD2       -1.0800   -8.1050  -19.8070 C.ar  164  PHE164     -0.0042
    148  CE1        0.9370   -9.7170  -20.6280 C.ar  164  PHE164     -0.0003
    149  CE2       -1.2750   -9.0330  -20.8670 C.ar  164  PHE164     -0.0003
    150  CZ        -0.2590   -9.8370  -21.2360 C.ar  164  PHE164     -0.0000
    151  N          1.6410   -5.1880  -20.7200 N.am  165  GLY165     -0.1940
    152  CA         1.4210   -4.5280  -22.0130 C.3   165  GLY165      0.2014
    153  C          0.5030   -5.2600  -22.9780 C.2   165  GLY165      0.2638
    154  O         -0.2020   -6.2070  -22.5950 O.2   165  GLY165     -0.2714
    155  N          0.5200   -4.8250  -24.2380 N.am  166  LEU166     -0.1977
    156  CA        -0.4230   -5.3350  -25.2440 C.3   166  LEU166      0.1596
    157  C          0.2240   -6.3560  -26.1900 C.2   166  LEU166      0.2287
    158  O          1.3630   -6.1700  -26.6370 O.2   166  LEU166     -0.2864
    159  CB        -1.0720   -4.1820  -26.0210 C.3   166  LEU166      0.0297
    160  CG        -2.5580   -4.3990  -26.3360 C.3   166  LEU166      0.0022
    161  CD1       -3.4190   -3.1690  -25.9660 C.3   166  LEU166      0.0001
    162  CD2       -2.7530   -4.8390  -27.8050 C.3   166  LEU166      0.0001
@<TRIPOS>BOND
     1   108   107    2
     2   107   106    1
     3   111   110    2
     4   106   109    1
     5   106   105    1
     6   109   110    1
     7   110   112   am
     8    96    93    1
     9    91    90    2
    10   100    99    2
    11    93    92    1
    12    93    94    1
    13   104   102   ar
    14    90    92   am
    15    90    89    1
    16   162   160    1
    17    89    88    1
    18    97    94   am
    19    97    98    1
    20   102   103   ar
    21   102   101    1
    22    94    95    2
    23    99    98    1
    24   158   157    2
    25    98   101    1
    26   160   159    1
    27   160   161    1
    28   157   156    1
    29    88    82   am
    30   159   156    1
    31     4     3    2
    32    83    82    2
    33   117   114    1
    34   117   118    1
    35    79    77    1
    36    82    81    1
    37   156   155    1
    38   114   113    1
    39   114   115    1
    40    78    77    1
    41    77    76    1
    42     3     2    1
    43   155   153   am
    44    81    80    1
    45    81    84    1
    46     1     2    1
    47   115   116    2
    48     2     5    1
    49     5     6    1
    50     5     7    1
    51    80    74   am
    52    76    73    1
    53    84    85    1
    54   153   154    2
    55   153   152    1
    56   121   120    1
    57   121   122    2
    58    74    75    2
    59    74    73    1
    60   120   123    1
    61   120   119    1
    62    73    72    1
    63   152   151    1
    64    85    86    1
    65    12     9    1
    66    87    86    1
    67     9     8    1
    68     9    10    1
    69   150   149   ar
    70   150   148   ar
    71   130   129    1
    72    72    64   am
    73   149   147   ar
    74   151   142   am
    75   148   146   ar
    76    10    11    2
    77   143   142    2
    78   129   131    1
    79   129   128    1
    80   147   145   ar
    81    64    65    2
    82    64    63    1
    83   142   141    1
    84   146   145   ar
    85    14    13    1
    86    14    17    1
    87    14    15    1
    88   145   144    1
    89    18    17    1
    90    18    19    1
    91   128   125    1
    92    63    66    1
    93    63    62    1
    94    58    57    2
    95    15    16    2
    96   141   144    1
    97   141   140    1
    98    20    21    1
    99    20    19    1
   100    66    67    1
   101    60    59    1
   102    57    62   am
   103    57    56    1
   104   124   125    1
   105   125   126    1
   106   140   134   am
   107    69    67   ar
   108    69    71   ar
   109    67    68   ar
   110    46    44    1
   111   127   126    2
   112   126   132   am
   113    50    49    2
   114    55    56    1
   115    59    56    1
   116    59    61    1
   117   134   135    2
   118   134   133    1
   119    71    70   ar
   120    68    70   ar
   121   132   133    1
   122    44    43    1
   123   138   137   ar
   124    49    48    1
   125    43    45    1
   126    43    40    1
   127   133   136    1
   128    47    48    1
   129   137   136    1
   130   137   139   ar
   131    40    39    1
   132    40    41    1
   133    48    51    1
   134    51    52    1
   135    29    28   ar
   136    30    28   ar
   137    53    52    1
   138    52    54    1
   139    28    27    1
   140    41    42    2
   141    37    36    1
   142    38    36    1
   143    27    26    1
   144    36    35    1
   145    26    23    1
   146    35    32    1
   147    23    24    1
   148    23    22    1
   149    25    24    2
   150    32    31    1
   151    32    33    1
   152    34    33    2
