@<TRIPOS>MOLECULE
tmp/4eh4A01.pdb
 161 153 0 0 0
SMALL
GASTEIGER

@<TRIPOS>ATOM
      1  N          8.3990   -1.8970   28.3520 N.3    27  VAL27      -0.1245
      2  CA         7.0250   -1.7520   28.8560 C.3    27  VAL27       0.1561
      3  C          6.1640   -3.0420   28.8370 C.2    27  VAL27       0.2260
      4  O          4.9930   -3.0060   29.2280 O.2    27  VAL27      -0.2867
      5  CB         6.2940   -0.4820   28.2750 C.3    27  VAL27       0.0252
      6  CG1        6.9750    0.0360   27.0270 C.3    27  VAL27       0.0019
      7  CG2        4.7870   -0.7190   28.0530 C.3    27  VAL27       0.0019
      8  N          8.2990   -4.5360   23.7280 N.3    33  VAL33      -0.1245
      9  CA         8.3690   -3.1460   23.3900 C.3    33  VAL33       0.1561
     10  C          9.1430   -2.3040   24.4040 C.2    33  VAL33       0.2260
     11  O          8.9310   -2.4010   25.6250 O.2    33  VAL33      -0.2867
     12  CB         6.9450   -2.5620   23.2360 C.3    33  VAL33       0.0252
     13  CG1        7.0020   -1.0820   22.9110 C.3    33  VAL33       0.0019
     14  CG2        6.1860   -3.3120   22.1590 C.3    33  VAL33       0.0019
     15  N          8.0710    4.1860   20.9400 N.3    46  ALA46      -0.1245
     16  CA         8.0910    2.7820   21.2770 C.3    46  ALA46       0.1562
     17  C          8.8290    2.0060   20.2010 C.2    46  ALA46       0.2260
     18  O          8.6030    2.1860   19.0110 O.2    46  ALA46      -0.2867
     19  CB         6.6950    2.2620   21.4360 C.3    46  ALA46       0.0290
     20  N          9.4810   -1.7480   19.1020 N.3    48  LYS48      -0.1245
     21  CA         9.0590   -3.1470   19.2320 C.3    48  LYS48       0.1561
     22  C         10.1070   -4.0100   18.5530 C.2    48  LYS48       0.2260
     23  O         10.4730   -3.7590   17.3900 O.2    48  LYS48      -0.2867
     24  CB         7.6820   -3.3740   18.5940 C.3    48  LYS48       0.0271
     25  CG         7.1950   -4.8300   18.5370 C.3    48  LYS48       0.0035
     26  CD         5.8000   -4.9210   17.9400 C.3    48  LYS48       0.0206
     27  CE         5.3120   -6.3660   17.9370 C.3    48  LYS48       0.1093
     28  NZ         3.9320   -6.5520   17.3730 N.3    48  LYS48      -0.1314
     29  N          1.9430   -1.8120    8.5000 N.3    70  LEU70      -0.1245
     30  CA         2.4290   -0.6400    9.2180 C.3    70  LEU70       0.1561
     31  C          2.9930    0.3950    8.2590 C.2    70  LEU70       0.2260
     32  O          2.8550    1.5890    8.4840 O.2    70  LEU70      -0.2867
     33  CB         3.4520   -1.0170   10.3100 C.3    70  LEU70       0.0270
     34  CG         2.8990   -1.5700   11.6320 C.3    70  LEU70       0.0019
     35  CD1        3.9940   -1.9670   12.5360 C.3    70  LEU70       0.0001
     36  CD2        2.0490   -0.5720   12.3510 C.3    70  LEU70       0.0001
     37  N         -1.9900    3.6680   13.9640 N.3    79  ILE79      -0.1245
     38  CA        -0.5590    3.6290   14.2620 C.3    79  ILE79       0.1561
     39  C          0.3070    3.5500   12.9990 C.2    79  ILE79       0.2260
     40  O          0.1180    2.6710   12.1520 O.2    79  ILE79      -0.2867
     41  CB        -0.2410    2.4530   15.1970 C.3    79  ILE79       0.0252
     42  CG1        1.2380    2.3770   15.5050 C.3    79  ILE79       0.0019
     43  CG2       -0.6610    1.1100   14.5910 C.3    79  ILE79       0.0019
     44  CD1        1.4940    1.2340   16.4370 C.3    79  ILE79       0.0001
     45  N          4.3240    3.7450   11.1310 N.3    81  LEU81      -0.1245
     46  CA         5.7550    3.4980   11.3310 C.3    81  LEU81       0.1561
     47  C          6.5950    4.7710   11.2660 C.2    81  LEU81       0.2260
     48  O          6.6940    5.3640   10.2000 O.2    81  LEU81      -0.2867
     49  CB         6.2840    2.5420   10.2590 C.3    81  LEU81       0.0270
     50  CG         6.5460    1.0780   10.6410 C.3    81  LEU81       0.0019
     51  CD1        7.4570    0.4950    9.5900 C.3    81  LEU81       0.0001
     52  CD2        7.1390    0.8840   12.0150 C.3    81  LEU81       0.0001
     53  N         10.6410   -2.3330   15.1640 N.3    99  LEU99      -0.1231
     54  CA         9.6470   -1.3850   14.6770 C.3    99  LEU99       0.1693
     55  C          9.5810   -0.1890   15.6280 C.2    99  LEU99       0.2592
     56  O          9.6560   -0.3690   16.8360 O.2    99  LEU99      -0.2718
     57  CB         8.2850   -2.0620   14.5360 C.3    99  LEU99       0.0284
     58  CG         8.2170   -3.3490   13.7140 C.3    99  LEU99       0.0019
     59  CD1        6.8040   -3.8860   13.8170 C.3    99  LEU99       0.0001
     60  CD2        8.6120   -3.1550   12.2290 C.3    99  LEU99       0.0001
     61  N          9.4720    1.0150   15.0640 N.am  100  VAL100     -0.1966
     62  CA         9.4270    2.2150   15.8660 C.3   100  VAL100      0.1727
     63  C          8.1620    3.0060   15.6020 C.2   100  VAL100      0.2617
     64  O          7.8200    3.3160   14.4690 O.2   100  VAL100     -0.2715
     65  CB        10.6650    3.1220   15.6360 C.3   100  VAL100      0.0290
     66  CG1       10.5510    4.4300   16.4590 C.3   100  VAL100      0.0023
     67  CG2       11.9440    2.3850   15.9720 C.3   100  VAL100      0.0023
     68  N          7.4660    3.3370   16.6750 N.am  101  THR101     -0.1937
     69  CA         6.3290    4.2310   16.5510 C.3   101  THR101      0.2028
     70  C          6.1810    5.1900   17.7370 C.2   101  THR101      0.2642
     71  O          6.9460    5.0820   18.7090 O.2   101  THR101     -0.2714
     72  CB         5.1000    3.4360   16.2730 C.3   101  THR101      0.1808
     73  OG1        4.2190    4.2330   15.4710 O.3   101  THR101     -0.2208
     74  CG2        4.4710    2.9640   17.5810 C.3   101  THR101      0.0379
     75  N          5.2470    6.1440   17.6510 N.am  102  HIS102     -0.1959
     76  CA         5.0960    7.1640   18.7070 C.3   102  HIS102      0.1787
     77  C          4.6840    6.4570   19.9860 C.2   102  HIS102      0.2620
     78  O          3.8990    5.5350   19.9470 O.2   102  HIS102     -0.2715
     79  CB         4.0050    8.1950   18.3990 C.3   102  HIS102      0.0785
     80  CG         4.1810    8.9630   17.1240 C.ar  102  HIS102      0.0821
     81  ND1        3.6190    8.5610   15.9260 N.ar  102  HIS102     -0.2267
     82  CD2        4.7600   10.1630   16.8770 C.ar  102  HIS102      0.1154
     83  CE1        3.8870    9.4570   14.9890 C.ar  102  HIS102      0.1986
     84  NE2        4.5900   10.4340   15.5370 N.ar  102  HIS102     -0.2212
     85  N          5.2030    6.8780   21.1230 N.am  103  LEU103     -0.1963
     86  CA         4.7220    6.3390   22.3860 C.3   103  LEU103      0.1728
     87  C          3.3940    7.0160   22.6730 C.2   103  LEU103      0.2616
     88  O          3.1950    8.1750   22.2920 O.2   103  LEU103     -0.2715
     89  CB         5.7270    6.6100   23.5030 C.3   103  LEU103      0.0311
     90  CG         5.5360    5.7930   24.7810 C.3   103  LEU103      0.0022
     91  CD1        5.4410    4.2910   24.4660 C.3   103  LEU103      0.0001
     92  CD2        6.6740    6.0660   25.7510 C.3   103  LEU103      0.0001
     93  N          2.4680    6.3120   23.3070 N.am  104  MET104     -0.1963
     94  CA         1.1640    6.9240   23.5900 C.3   104  MET104      0.1736
     95  C          0.7900    6.7040   25.0460 C.2   104  MET104      0.2617
     96  O         -0.2760    7.1320   25.5040 O.2   104  MET104     -0.2715
     97  CB         0.0520    6.3770   22.6770 C.3   104  MET104      0.0427
     98  CG         0.2950    6.4650   21.1750 C.3   104  MET104      0.0599
     99  SD        -0.2980    7.9750   20.3850 S.3   104  MET104     -0.1393
    100  CE        -2.0120    8.0670   20.9520 C.3   104  MET104      0.0692
    101  N          1.6560    6.0140   25.7680 N.am  105  GLY105     -0.1940
    102  CA         1.4140    5.7650   27.1840 C.3   105  GLY105      0.2014
    103  C          0.4240    4.6350   27.3560 C.2   105  GLY105      0.2639
    104  O          0.8150    3.4590   27.3920 O.2   105  GLY105     -0.2714
    105  N         -0.8600    4.9880   27.4100 N.am  106  ALA106     -0.1963
    106  CA        -1.8900    4.0610   27.8700 C.3   106  ALA106      0.1728
    107  C         -2.7480    3.4540   26.7700 C.2   106  ALA106      0.2616
    108  O         -2.7180    3.8730   25.6110 O.2   106  ALA106     -0.2715
    109  CB        -2.7730    4.7300   28.9240 C.3   106  ALA106      0.0334
    110  N         -3.5000    2.4330   27.1530 N.am  107  ASP107     -0.1971
    111  CA        -4.4830    1.8530   26.2720 C.3   107  ASP107      0.1709
    112  C         -5.8530    1.9030   26.9380 C.2   107  ASP107      0.2293
    113  O         -5.9500    1.8160   28.1640 O.2   107  ASP107     -0.2864
    114  CB        -4.0730    0.4290   25.8490 C.3   107  ASP107      0.1436
    115  CG        -3.9830   -0.5530   27.0170 C.2   107  ASP107      0.3671
    116  OD1       -2.9330   -1.2260   27.1520 O.co2 107  ASP107     -0.2456
    117  OD2       -4.9610   -0.6850   27.7840 O.co2 107  ASP107     -0.2456
    118  N         -4.8150    2.7650   21.6520 N.3   150  ALA150     -0.1245
    119  CA        -3.8070    3.5190   22.3710 C.3   150  ALA150      0.1562
    120  C         -4.2530    4.9710   22.4630 C.2   150  ALA150      0.2260
    121  O         -4.7420    5.5480   21.5080 O.2   150  ALA150     -0.2867
    122  CB        -2.4640    3.3990   21.6910 C.3   150  ALA150      0.0290
    123  N         -4.0730    0.2210   17.3400 N.3   160  LEU160     -0.1231
    124  CA        -2.8600   -0.5720   17.2170 C.3   160  LEU160      0.1693
    125  C         -3.1920   -1.8470   16.4830 C.2   160  LEU160      0.2592
    126  O         -4.2760   -2.4050   16.6290 O.2   160  LEU160     -0.2718
    127  CB        -2.3010   -0.9720   18.5680 C.3   160  LEU160      0.0284
    128  CG        -2.0700   -0.0570   19.7610 C.3   160  LEU160      0.0019
    129  CD1       -1.3240   -0.8970   20.7760 C.3   160  LEU160      0.0001
    130  CD2       -1.2710    1.1660   19.4560 C.3   160  LEU160      0.0001
    131  N         -2.2310   -2.2930   15.6900 N.am  161  ASP161     -0.1960
    132  CA        -2.1900   -3.6490   15.1540 C.3   161  ASP161      0.1840
    133  C         -2.1980   -4.7380   16.2680 C.2   161  ASP161      0.2622
    134  O         -2.9580   -5.6810   16.1750 O.2   161  ASP161     -0.2715
    135  CB        -0.9540   -3.7840   14.2450 C.3   161  ASP161      0.1450
    136  CG         0.3740   -3.5230   14.9940 C.2   161  ASP161      0.3671
    137  OD1        0.3870   -2.7940   16.0200 O.co2 161  ASP161     -0.2456
    138  OD2        1.4130   -4.0620   14.5630 O.co2 161  ASP161     -0.2456
    139  N         -1.3650   -4.5870   17.3040 N.am  162  PHE162     -0.1960
    140  CA        -1.1960   -5.5590   18.4100 C.3   162  PHE162      0.1771
    141  C         -0.8430   -4.7800   19.6670 C.2   162  PHE162      0.2620
    142  O          0.0580   -3.9440   19.6150 O.2   162  PHE162     -0.2715
    143  CB        -0.0010   -6.4930   18.1520 C.3   162  PHE162      0.0574
    144  CG        -0.2010   -7.4830   17.0400 C.ar  162  PHE162     -0.0200
    145  CD1       -0.9860   -8.6320   17.2390 C.ar  162  PHE162     -0.0042
    146  CD2        0.4430   -7.2990   15.7980 C.ar  162  PHE162     -0.0042
    147  CE1       -1.1590   -9.5740   16.2040 C.ar  162  PHE162     -0.0003
    148  CE2        0.2820   -8.2300   14.7400 C.ar  162  PHE162     -0.0003
    149  CZ        -0.5140   -9.3700   14.9430 C.ar  162  PHE162     -0.0000
    150  N         -1.4850   -5.0870   20.7980 N.am  163  GLY163     -0.1940
    151  CA        -1.2170   -4.3770   22.0810 C.3   163  GLY163      0.2014
    152  C         -0.4190   -5.1270   23.1490 C.2   163  GLY163      0.2638
    153  O         -0.0420   -6.2760   22.9400 O.2   163  GLY163     -0.2714
    154  N         -0.1620   -4.4590   24.2840 N.am  164  LEU164     -0.1977
    155  CA         0.4680   -5.0350   25.5140 C.3   164  LEU164      0.1596
    156  C         -0.2100   -6.3160   26.0450 C.2   164  LEU164      0.2287
    157  O         -1.4180   -6.5040   25.8540 O.2   164  LEU164     -0.2864
    158  CB         0.4810   -3.9740   26.6450 C.3   164  LEU164      0.0297
    159  CG         0.2220   -4.2780   28.1520 C.3   164  LEU164      0.0022
    160  CD1        1.4510   -4.0220   29.0790 C.3   164  LEU164      0.0001
    161  CD2       -0.9880   -3.5210   28.6990 C.3   164  LEU164      0.0001
@<TRIPOS>BOND
     1    31    32    2
     2    31    30    1
     3    29    30    1
     4    30    33    1
     5    51    50    1
     6    48    47    2
     7    49    50    1
     8    49    46    1
     9    33    34    1
    10    50    52    1
    11    45    46    1
    12    47    46    1
    13    34    36    1
    14    34    35    1
    15    40    39    2
    16    60    58    1
    17    39    38    1
    18    58    59    1
    19    58    57    1
    20    37    38    1
    21   135   136    1
    22   135   132    1
    23    38    41    1
    24    64    63    2
    25    57    54    1
    26   138   136   ar
    27    43    41    1
    28    54    53    1
    29    54    55    1
    30   148   149   ar
    31   148   146   ar
    32   149   147   ar
    33    83    84   ar
    34    83    81   ar
    35   136   137   ar
    36    61    55   am
    37    61    62    1
    38   132   131    1
    39   132   133    1
    40    41    42    1
    41    73    72    1
    42    42    44    1
    43    84    82   ar
    44    63    62    1
    45    63    68   am
    46    55    56    2
    47    65    62    1
    48    65    67    1
    49    65    66    1
    50   131   125   am
    51   146   144   ar
    52    81    80   ar
    53   134   133    2
    54   147   145   ar
    55   133   139   am
    56    72    69    1
    57    72    74    1
    58   125   126    2
    59   125   124    1
    60    69    68    1
    61    69    70    1
    62    82    80   ar
    63   144   145   ar
    64   144   143    1
    65    80    79    1
    66   124   123    1
    67   124   127    1
    68   139   140    1
    69    28    27    1
    70    23    22    2
    71    75    70   am
    72    75    76    1
    73    70    71    2
    74    27    26    1
    75    26    25    1
    76   143   140    1
    77    79    76    1
    78   140   141    1
    79    25    24    1
    80    22    21    1
    81   127   128    1
    82    24    21    1
    83    76    77    1
    84    18    17    2
    85    20    21    1
    86   130   128    1
    87   142   141    2
    88   141   150   am
    89   128   129    1
    90    78    77    2
    91    77    85   am
    92    17    16    1
    93    99   100    1
    94    99    98    1
    95   150   151    1
    96    15    16    1
    97    85    86    1
    98    98    97    1
    99    16    19    1
   100   121   120    2
   101   118   119    1
   102   122   119    1
   103   151   152    1
   104    14    12    1
   105    88    87    2
   106   119   120    1
   107    86    87    1
   108    86    89    1
   109    87    93   am
   110    97    94    1
   111    13    12    1
   112   153   152    2
   113   152   154   am
   114    12     9    1
   115    93    94    1
   116     9     8    1
   117     9    10    1
   118    89    90    1
   119    94    95    1
   120   154   155    1
   121    10    11    2
   122    91    90    1
   123    90    92    1
   124    95    96    2
   125    95   101   am
   126   155   156    1
   127   155   158    1
   128   108   107    2
   129   101   102    1
   130   114   111    1
   131   114   115    1
   132   157   156    2
   133   111   112    1
   134   111   110    1
   135   158   159    1
   136   107   110   am
   137   107   106    1
   138   112   113    2
   139   115   116   ar
   140   115   117   ar
   141     6     5    1
   142   102   103    1
   143   103   104    2
   144   103   105   am
   145   105   106    1
   146   106   109    1
   147     7     5    1
   148   159   161    1
   149   159   160    1
   150     5     2    1
   151     1     2    1
   152     3     2    1
   153     3     4    2
