@<TRIPOS>MOLECULE
tmp/4eh5A00.pdb
 149 143 0 0 0
SMALL
GASTEIGER

@<TRIPOS>ATOM
      1  N         20.5520  -12.2570  -16.7220 N.3   166  PRO166     -0.2102
      2  CA        21.0430  -13.6090  -16.9040 C.3   166  PRO166      0.1504
      3  C         20.7360  -14.5260  -15.7020 C.2   166  PRO166      0.2575
      4  O         20.4580  -15.7020  -15.9160 O.2   166  PRO166     -0.2718
      5  CB        22.5450  -13.4060  -17.1400 C.3   166  PRO166      0.0282
      6  CG        22.8440  -12.1130  -16.5360 C.3   166  PRO166      0.0208
      7  CD        21.6340  -11.2690  -16.8340 C.3   166  PRO166      0.0893
      8  N         20.7140  -13.9700  -14.4870 N.am  167  GLU167     -0.1980
      9  CA        20.3650  -14.7330  -13.2850 C.3   167  GLU167      0.1602
     10  C         18.9260  -15.2890  -13.2760 C.2   167  GLU167      0.2287
     11  O         18.6410  -16.2420  -12.5610 O.2   167  GLU167     -0.2864
     12  CB        20.6660  -13.9370  -11.9960 C.3   167  GLU167      0.0415
     13  CG        19.8180  -12.6850  -11.7510 C.3   167  GLU167      0.1163
     14  CD        20.4310  -11.3970  -12.3230 C.2   167  GLU167      0.3649
     15  OE1       20.0970  -10.3040  -11.8160 O.co2 167  GLU167     -0.2457
     16  OE2       21.2510  -11.4730  -13.2530 O.co2 167  GLU167     -0.2457
     17  N         19.0690  -18.2800  -15.6990 N.3   170  LEU170     -0.1231
     18  CA        19.7930  -19.3690  -15.0350 C.3   170  LEU170      0.1693
     19  C         18.9860  -19.9020  -13.8650 C.2   170  LEU170      0.2592
     20  O         19.4430  -20.7790  -13.1390 O.2   170  LEU170     -0.2718
     21  CB        21.1640  -18.8790  -14.5590 C.3   170  LEU170      0.0284
     22  CG        22.2890  -18.8030  -15.5960 C.3   170  LEU170      0.0019
     23  CD1       23.3210  -17.7990  -15.1420 C.3   170  LEU170      0.0001
     24  CD2       22.9390  -20.1720  -15.8310 C.3   170  LEU170      0.0001
     25  N         17.7950  -19.3340  -13.6800 N.am  171  ASN171     -0.1960
     26  CA        16.8090  -19.8230  -12.7260 C.3   171  ASN171      0.1819
     27  C         17.2230  -19.6740  -11.2460 C.2   171  ASN171      0.2621
     28  O         16.8350  -20.4740  -10.3940 O.2   171  ASN171     -0.2715
     29  CB        16.4230  -21.2670  -13.0900 C.3   171  ASN171      0.1195
     30  CG        15.0760  -21.6840  -12.5280 C.2   171  ASN171      0.2630
     31  OD1       14.1680  -20.8600  -12.3400 O.2   171  ASN171     -0.2716
     32  ND2       14.9320  -22.9770  -12.2680 N.am  171  ASN171     -0.0877
     33  N         17.9920  -18.6310  -10.9410 N.am  172  TRP172     -0.1974
     34  CA        18.3180  -18.3140   -9.5480 C.3   172  TRP172      0.1640
     35  C         17.0560  -17.8210   -8.8720 C.2   172  TRP172      0.2290
     36  O         16.3920  -16.9180   -9.3810 O.2   172  TRP172     -0.2864
     37  CB        19.4010  -17.2400   -9.4660 C.3   172  TRP172      0.0576
     38  CG        19.9090  -16.9230   -8.0750 C.ar  172  TRP172      0.0006
     39  CD1       20.0560  -17.8020   -7.0170 C.ar  172  TRP172      0.0946
     40  CD2       20.3930  -15.6490   -7.6030 C.ar  172  TRP172      0.0152
     41  NE1       20.5770  -17.1410   -5.9220 N.ar  172  TRP172     -0.2442
     42  CE2       20.7980  -15.8260   -6.2510 C.ar  172  TRP172      0.0810
     43  CE3       20.5160  -14.3710   -8.1880 C.ar  172  TRP172      0.0012
     44  CZ2       21.3080  -14.7670   -5.4670 C.ar  172  TRP172      0.0191
     45  CZ3       21.0300  -13.3110   -7.4040 C.ar  172  TRP172      0.0001
     46  CH2       21.4170  -13.5190   -6.0630 C.ar  172  TRP172      0.0015
     47  N         21.7750  -16.5560  -23.0890 N.3   207  LEU207     -0.1245
     48  CA        22.9890  -16.5080  -22.2830 C.3   207  LEU207      0.1561
     49  C         24.2620  -16.3390  -23.1090 C.2   207  LEU207      0.2260
     50  O         25.1410  -15.5470  -22.7440 O.2   207  LEU207     -0.2867
     51  CB        23.1240  -17.7780  -21.4320 C.3   207  LEU207      0.0270
     52  CG        22.9110  -17.6340  -19.9350 C.3   207  LEU207      0.0019
     53  CD1       23.8970  -16.6310  -19.3370 C.3   207  LEU207      0.0001
     54  CD2       21.4830  -17.2340  -19.6430 C.3   207  LEU207      0.0001
     55  N         26.9320  -13.3060  -22.5280 N.3   211  LEU211     -0.1245
     56  CA        28.3020  -13.5220  -22.0280 C.3   211  LEU211      0.1561
     57  C         29.3710  -13.0800  -23.0120 C.2   211  LEU211      0.2260
     58  O         30.4570  -12.6200  -22.6230 O.2   211  LEU211     -0.2867
     59  CB        28.5250  -15.0050  -21.7050 C.3   211  LEU211      0.0270
     60  CG        27.6310  -15.6520  -20.6540 C.3   211  LEU211      0.0019
     61  CD1       28.0340  -17.0970  -20.4460 C.3   211  LEU211      0.0001
     62  CD2       27.7070  -14.8890  -19.3490 C.3   211  LEU211      0.0001
     63  N         31.6160  -15.3950  -16.3060 N.3   217  PRO217     -0.2116
     64  CA        31.8110  -14.9600  -14.9190 C.3   217  PRO217      0.1372
     65  C         33.2160  -15.2650  -14.4080 C.2   217  PRO217      0.2244
     66  O         33.7920  -16.2910  -14.7640 O.2   217  PRO217     -0.2868
     67  CB        30.7640  -15.7670  -14.1330 C.3   217  PRO217      0.0268
     68  CG        30.3610  -16.9010  -15.0360 C.3   217  PRO217      0.0207
     69  CD        30.5320  -16.3900  -16.4340 C.3   217  PRO217      0.0892
     70  N         32.4000  -14.1520   -8.9780 N.3   221  LEU221     -0.1245
     71  CA        30.9770  -14.3490   -9.1510 C.3   221  LEU221      0.1561
     72  C         30.6590  -15.8310   -8.9920 C.2   221  LEU221      0.2260
     73  O         29.6250  -16.1930   -8.4240 O.2   221  LEU221     -0.2867
     74  CB        30.5100  -13.8520  -10.5300 C.3   221  LEU221      0.0270
     75  CG        29.0660  -14.1790  -10.9370 C.3   221  LEU221      0.0019
     76  CD1       28.0660  -13.6350   -9.8880 C.3   221  LEU221      0.0001
     77  CD2       28.7270  -13.6420  -12.3470 C.3   221  LEU221      0.0001
     78  N         29.7760  -17.2980   -5.6660 N.3   224  LYS224     -0.1231
     79  CA        28.4780  -16.9560   -5.0610 C.3   224  LYS224      0.1693
     80  C         27.3210  -17.7870   -5.6160 C.2   224  LYS224      0.2592
     81  O         26.1730  -17.6070   -5.2090 O.2   224  LYS224     -0.2718
     82  CB        28.1750  -15.4520   -5.2130 C.3   224  LYS224      0.0285
     83  CG        29.2220  -14.5690   -4.5320 C.3   224  LYS224      0.0035
     84  CD        28.8560  -13.0750   -4.5330 C.3   224  LYS224      0.0206
     85  CE        29.1870  -12.4070   -5.8810 C.3   224  LYS224      0.1093
     86  NZ        28.9090  -10.9340   -5.8300 N.3   224  LYS224     -0.1314
     87  N         27.6330  -18.6920   -6.5430 N.am  225  ILE225     -0.1966
     88  CA        26.6270  -19.5140   -7.2210 C.3   225  ILE225      0.1727
     89  C         26.4170  -20.8530   -6.4930 C.2   225  ILE225      0.2617
     90  O         27.3130  -21.7010   -6.4900 O.2   225  ILE225     -0.2715
     91  CB        27.0450  -19.7690   -8.6830 C.3   225  ILE225      0.0290
     92  CG1       27.2620  -18.4230   -9.4000 C.3   225  ILE225      0.0022
     93  CG2       26.0280  -20.7120   -9.4050 C.3   225  ILE225      0.0023
     94  CD1       27.4430  -18.5520  -10.8890 C.3   225  ILE225      0.0001
     95  N         25.2310  -21.0250   -5.9040 N.am  226  SER226     -0.1936
     96  CA        24.9310  -22.1780   -5.0470 C.3   226  SER226      0.2055
     97  C         24.6250  -23.4610   -5.7940 C.2   226  SER226      0.2643
     98  O         24.8630  -24.5510   -5.2710 O.2   226  SER226     -0.2714
     99  CB        23.7680  -21.8570   -4.1100 C.3   226  SER226      0.2130
    100  OG        22.6050  -21.4850   -4.8330 O.3   226  SER226     -0.2179
    101  N         24.0790  -23.3410   -7.0000 N.am  227  SER227     -0.1949
    102  CA        23.7160  -24.5120   -7.8090 C.3   227  SER227      0.1924
    103  C         24.9120  -25.1020   -8.5230 C.2   227  SER227      0.2314
    104  O         25.5620  -24.4430   -9.3470 O.2   227  SER227     -0.2863
    105  CB        22.6190  -24.1710   -8.8270 C.3   227  SER227      0.2116
    106  OG        22.5390  -25.1880   -9.8220 O.3   227  SER227     -0.2180
    107  N         24.2280  -25.2580  -12.3870 N.3   230  ALA230     -0.1245
    108  CA        24.3830  -23.9020  -12.9100 C.3   230  ALA230      0.1562
    109  C         25.8650  -23.5260  -13.0470 C.2   230  ALA230      0.2260
    110  O         26.3090  -23.0910  -14.1140 O.2   230  ALA230     -0.2867
    111  CB        23.6560  -22.9040  -12.0180 C.3   230  ALA230      0.0290
    112  N         27.9870  -22.7320  -16.8040 N.3   234  ILE234     -0.1245
    113  CA        28.8400  -21.5720  -17.1040 C.3   234  ILE234      0.1561
    114  C         30.3420  -21.8730  -17.0060 C.2   234  ILE234      0.2260
    115  O         31.1320  -21.3500  -17.7910 O.2   234  ILE234     -0.2867
    116  CB        28.4710  -20.3000  -16.2830 C.3   234  ILE234      0.0252
    117  CG1       28.1880  -20.6500  -14.8210 C.3   234  ILE234      0.0019
    118  CG2       27.2940  -19.5530  -16.9370 C.3   234  ILE234      0.0019
    119  CD1       27.4090  -19.5930  -14.0680 C.3   234  ILE234      0.0001
    120  N         27.2760   -8.4460  -15.2080 N.3   266  LEU266     -0.1231
    121  CA        26.8550   -9.8220  -14.9990 C.3   266  LEU266      0.1693
    122  C         26.4690  -10.0520  -13.5510 C.2   266  LEU266      0.2592
    123  O         25.3700  -10.5220  -13.2710 O.2   266  LEU266     -0.2718
    124  CB        27.9870  -10.7740  -15.3970 C.3   266  LEU266      0.0284
    125  CG        27.6980  -12.2480  -15.6660 C.3   266  LEU266      0.0019
    126  CD1       26.5210  -12.4300  -16.5910 C.3   266  LEU266      0.0001
    127  CD2       28.9610  -12.8820  -16.2610 C.3   266  LEU266      0.0001
    128  N         27.3730   -9.7050  -12.6360 N.am  267  ASP267     -0.1960
    129  CA        27.1290   -9.8600  -11.2100 C.3   267  ASP267      0.1840
    130  C         26.0780   -8.8810  -10.7600 C.2   267  ASP267      0.2623
    131  O         26.3170   -7.6660  -10.7110 O.2   267  ASP267     -0.2715
    132  CB        28.4020   -9.6130  -10.3880 C.3   267  ASP267      0.1450
    133  CG        28.2990  -10.1560   -8.9670 C.2   267  ASP267      0.3671
    134  OD1       27.1880  -10.2460   -8.4180 O.co2 267  ASP267     -0.2456
    135  OD2       29.3450  -10.5080   -8.3920 O.co2 267  ASP267     -0.2456
    136  N         24.9340   -9.4460  -10.3960 N.am  268  SER268     -0.1936
    137  CA        23.7970   -8.7510   -9.8250 C.3   268  SER268      0.2055
    138  C         24.1500   -7.8610   -8.6410 C.2   268  SER268      0.2643
    139  O         23.5770   -6.7880   -8.4920 O.2   268  SER268     -0.2714
    140  CB        22.7290   -9.7980   -9.4450 C.3   268  SER268      0.2130
    141  OG        22.1030   -9.4960   -8.2180 O.3   268  SER268     -0.2179
    142  N         25.0800   -8.3060   -7.7930 N.am  269  ASP269     -0.1971
    143  CA        25.5260   -7.5080   -6.6440 C.3   269  ASP269      0.1709
    144  C         26.2420   -6.1940   -6.9860 C.2   269  ASP269      0.2293
    145  O         26.2800   -5.2850   -6.1710 O.2   269  ASP269     -0.2864
    146  CB        26.4520   -8.3530   -5.7380 C.3   269  ASP269      0.1436
    147  CG        25.7020   -9.4730   -5.0170 C.2   269  ASP269      0.3671
    148  OD1       26.3290  -10.4950   -4.6940 O.co2 269  ASP269     -0.2456
    149  OD2       24.4870   -9.3130   -4.7730 O.co2 269  ASP269     -0.2456
@<TRIPOS>BOND
     1    49    50    2
     2    49    48    1
     3    47    48    1
     4    57    58    2
     5    57    56    1
     6    55    56    1
     7    48    51    1
     8    56    59    1
     9    59    60    1
    10    51    52    1
    11    60    61    1
    12    60    62    1
    13    52    54    1
    14    52    53    1
    15   115   114    2
    16     5     2    1
    17     5     6    1
    18   113   114    1
    19   113   112    1
    20   113   116    1
    21   118   116    1
    22     2     1    1
    23     2     3    1
    24     7     1    1
    25     7     6    1
    26   126   125    1
    27    69    63    1
    28    69    68    1
    29    63    64    1
    30   116   117    1
    31   127   125    1
    32     4     3    2
    33    24    22    1
    34     3     8   am
    35    17    18    1
    36   125   124    1
    37    22    23    1
    38    22    21    1
    39   124   121    1
    40   120   121    1
    41    68    67    1
    42    18    21    1
    43    18    19    1
    44   121   122    1
    45    64    65    1
    46    64    67    1
    47   117   119    1
    48    66    65    2
    49     8     9    1
    50   110   109    2
    51    19    25   am
    52    19    20    2
    53    25    26    1
    54   122   123    2
    55   122   128   am
    56     9    10    1
    57     9    12    1
    58    10    11    2
    59    16    14   ar
    60    29    26    1
    61    29    30    1
    62   109   108    1
    63   108   107    1
    64   108   111    1
    65    26    27    1
    66   128   129    1
    67    30    31    2
    68    30    32   am
    69    77    75    1
    70    14    15   ar
    71    14    13    1
    72    12    13    1
    73    27    33   am
    74    27    28    2
    75   129   130    1
    76   129   132    1
    77    33    34    1
    78    75    74    1
    79    75    76    1
    80    94    92    1
    81   130   131    2
    82   130   136   am
    83    74    71    1
    84   136   137    1
    85   132   133    1
    86   137   140    1
    87   137   138    1
    88   106   105    1
    89    34    37    1
    90    34    35    1
    91    37    38    1
    92   140   141    1
    93    93    91    1
    94    92    91    1
    95    36    35    2
    96   104   103    2
    97    71    72    1
    98    71    70    1
    99    72    73    2
   100   133   134   ar
   101   133   135   ar
   102   105   102    1
   103    91    88    1
   104   138   139    2
   105   138   142   am
   106   103   102    1
   107    43    40   ar
   108    43    45   ar
   109    38    40   ar
   110    38    39   ar
   111   102   101    1
   112   142   143    1
   113    40    42   ar
   114    45    46   ar
   115    88    87    1
   116    88    89    1
   117    39    41   ar
   118   101    97   am
   119   144   143    1
   120   144   145    2
   121   143   146    1
   122    87    80   am
   123    89    90    2
   124    89    95   am
   125    42    41   ar
   126    42    44   ar
   127    46    44   ar
   128    95    96    1
   129    85    86    1
   130    85    84    1
   131    97    98    2
   132    97    96    1
   133   146   147    1
   134    78    79    1
   135    80    81    2
   136    80    79    1
   137    82    79    1
   138    82    83    1
   139    96    99    1
   140   147   149   ar
   141   147   148   ar
   142   100    99    1
   143    84    83    1
