@<TRIPOS>MOLECULE
tmp/4eh5A01.pdb
 141 132 0 0 0
SMALL
GASTEIGER

@<TRIPOS>ATOM
      1  N         -9.1700   -1.7700  -28.3260 N.3    27  VAL27      -0.1245
      2  CA        -7.7910   -1.4610  -28.7290 C.3    27  VAL27       0.1561
      3  C         -6.8570   -2.6910  -28.7240 C.2    27  VAL27       0.2260
      4  O         -5.6480   -2.5700  -28.9860 O.2    27  VAL27      -0.2867
      5  CB        -7.1680   -0.2870  -27.9080 C.3    27  VAL27       0.0252
      6  CG1       -7.8860    1.0280  -28.1950 C.3    27  VAL27       0.0019
      7  CG2       -7.1670   -0.5860  -26.4190 C.3    27  VAL27       0.0019
      8  N         -8.9280   -4.5230  -23.5540 N.3    33  VAL33      -0.1245
      9  CA        -8.9500   -3.0950  -23.2490 C.3    33  VAL33       0.1561
     10  C         -9.7740   -2.2970  -24.2770 C.2    33  VAL33       0.2260
     11  O         -9.6420   -2.5050  -25.4870 O.2    33  VAL33      -0.2867
     12  CB        -7.5060   -2.5220  -23.1690 C.3    33  VAL33       0.0252
     13  CG1       -7.5200   -1.0240  -22.8810 C.3    33  VAL33       0.0019
     14  CG2       -6.6830   -3.2650  -22.1130 C.3    33  VAL33       0.0019
     15  N         -8.4050    4.3360  -20.6440 N.3    46  ALA46      -0.1231
     16  CA        -8.4120    2.9410  -21.0770 C.3    46  ALA46       0.1694
     17  C         -9.1370    2.1010  -20.0170 C.2    46  ALA46       0.2592
     18  O         -8.8360    2.1910  -18.8160 O.2    46  ALA46      -0.2718
     19  CB        -7.0130    2.4660  -21.2720 C.3    46  ALA46       0.0304
     20  N        -10.1170    1.3190  -20.4650 N.am   47  VAL47      -0.1966
     21  CA       -10.9020    0.4680  -19.5730 C.3    47  VAL47       0.1727
     22  C        -10.5000   -0.9800  -19.8610 C.2    47  VAL47       0.2616
     23  O        -10.5630   -1.4310  -21.0090 O.2    47  VAL47      -0.2715
     24  CB       -12.4140    0.7000  -19.7440 C.3    47  VAL47       0.0290
     25  CG1      -13.2210   -0.0770  -18.7060 C.3    47  VAL47       0.0023
     26  CG2      -12.7400    2.1950  -19.6450 C.3    47  VAL47       0.0023
     27  N        -10.0180   -1.6790  -18.8300 N.am   48  LYS48      -0.1977
     28  CA        -9.6780   -3.0890  -18.9750 C.3    48  LYS48       0.1596
     29  C        -10.7290   -3.9380  -18.2640 C.2    48  LYS48       0.2287
     30  O        -11.0270   -3.7140  -17.0900 O.2    48  LYS48      -0.2864
     31  CB        -8.2730   -3.3630  -18.4310 C.3    48  LYS48       0.0298
     32  CG        -7.8150   -4.8210  -18.5080 C.3    48  LYS48       0.0038
     33  CD        -6.4170   -4.9480  -17.9380 C.3    48  LYS48       0.0206
     34  CE        -5.8650   -6.3420  -18.1380 C.3    48  LYS48       0.1093
     35  NZ        -4.6120   -6.5360  -17.3660 N.3    48  LYS48      -0.1314
     36  N         -3.0690   -7.8400   -8.9610 N.3    66  GLU66      -0.1245
     37  CA        -3.0830   -6.7410   -9.9410 C.3    66  GLU66       0.1567
     38  C         -3.8360   -5.5390   -9.3610 C.2    66  GLU66       0.2260
     39  O         -3.3700   -4.4090   -9.4450 O.2    66  GLU66      -0.2867
     40  CB        -3.7460   -7.1980  -11.2580 C.3    66  GLU66       0.0388
     41  CG        -3.6760   -6.0880  -12.3420 C.3    66  GLU66       0.1160
     42  CD        -4.3230   -6.4370  -13.6620 C.2    66  GLU66       0.3649
     43  OE1       -5.1120   -7.4060  -13.7200 O.co2  66  GLU66      -0.2457
     44  OE2       -4.0580   -5.6950  -14.6450 O.co2  66  GLU66      -0.2457
     45  N         -2.0080   -1.9280   -8.5770 N.3    70  LEU70      -0.1245
     46  CA        -2.4620   -0.6700   -9.2420 C.3    70  LEU70       0.1561
     47  C         -2.9980    0.3630   -8.2600 C.2    70  LEU70       0.2260
     48  O         -2.7220    1.5480   -8.4130 O.2    70  LEU70      -0.2867
     49  CB        -3.4950   -0.9290  -10.3200 C.3    70  LEU70       0.0270
     50  CG        -2.9880   -1.6510  -11.5790 C.3    70  LEU70       0.0019
     51  CD1       -4.1620   -1.9390  -12.4760 C.3    70  LEU70       0.0001
     52  CD2       -1.9430   -0.8460  -12.3000 C.3    70  LEU70       0.0001
     53  N          2.0020    3.6070  -14.2180 N.3    79  ILE79      -0.1245
     54  CA         0.5650    3.4860  -14.4260 C.3    79  ILE79       0.1561
     55  C         -0.1970    3.4880  -13.1020 C.2    79  ILE79       0.2260
     56  O          0.1460    2.7600  -12.1630 O.2    79  ILE79      -0.2867
     57  CB         0.2270    2.2010  -15.2690 C.3    79  ILE79       0.0252
     58  CG1       -1.2320    2.1870  -15.7370 C.3    79  ILE79       0.0019
     59  CG2        0.6360    0.9150  -14.5220 C.3    79  ILE79       0.0019
     60  CD1       -2.2490    1.8330  -14.6670 C.3    79  ILE79       0.0001
     61  N         -4.3060    3.8770  -11.1180 N.3    81  LEU81      -0.1245
     62  CA        -5.7380    3.6040  -11.2300 C.3    81  LEU81       0.1561
     63  C         -6.5860    4.8630  -11.0910 C.2    81  LEU81       0.2260
     64  O         -6.6260    5.4410   -9.9990 O.2    81  LEU81      -0.2867
     65  CB        -6.1590    2.6570  -10.1060 C.3    81  LEU81       0.0270
     66  CG        -6.4950    1.1810  -10.2960 C.3    81  LEU81       0.0019
     67  CD1       -7.3560    0.7440   -9.1230 C.3    81  LEU81       0.0001
     68  CD2       -7.1900    0.8810  -11.6130 C.3    81  LEU81       0.0001
     69  N        -10.9340   -2.1820  -14.7340 N.3    99  LEU99      -0.1231
     70  CA        -9.9680   -1.1960  -14.2600 C.3    99  LEU99       0.1693
     71  C         -9.8670   -0.0520  -15.2670 C.2    99  LEU99       0.2592
     72  O         -9.9130   -0.2890  -16.4680 O.2    99  LEU99      -0.2718
     73  CB        -8.5860   -1.8350  -14.1190 C.3    99  LEU99       0.0284
     74  CG        -8.5230   -3.1300  -13.2910 C.3    99  LEU99       0.0019
     75  CD1       -7.1010   -3.7180  -13.4280 C.3    99  LEU99       0.0001
     76  CD2       -8.8290   -2.7600  -11.8570 C.3    99  LEU99       0.0001
     77  N         -9.6870    1.1620  -14.7630 N.am  100  VAL100     -0.1966
     78  CA        -9.6140    2.3590  -15.6100 C.3   100  VAL100      0.1727
     79  C         -8.3140    3.1220  -15.3690 C.2   100  VAL100      0.2617
     80  O         -7.9350    3.3910  -14.2270 O.2   100  VAL100     -0.2715
     81  CB       -10.8230    3.3120  -15.3520 C.3   100  VAL100      0.0290
     82  CG1      -10.7910    4.5230  -16.3160 C.3   100  VAL100      0.0023
     83  CG2      -12.1580    2.5490  -15.4410 C.3   100  VAL100      0.0023
     84  N         -7.6290    3.4560  -16.4540 N.am  101  THR101     -0.1937
     85  CA        -6.4550    4.3160  -16.3580 C.3   101  THR101      0.2028
     86  C         -6.4010    5.3120  -17.5210 C.2   101  THR101      0.2642
     87  O         -7.1960    5.2140  -18.4610 O.2   101  THR101     -0.2714
     88  CB        -5.1440    3.4870  -16.2950 C.3   101  THR101      0.1808
     89  OG1       -4.0500    4.3570  -15.9590 O.3   101  THR101     -0.2208
     90  CG2       -4.8630    2.7880  -17.6240 C.3   101  THR101      0.0379
     91  N         -5.4680    6.2610  -17.4440 N.am  102  HIS102     -0.1959
     92  CA        -5.2130    7.1830  -18.5380 C.3   102  HIS102      0.1787
     93  C         -4.8950    6.4490  -19.8300 C.2   102  HIS102      0.2620
     94  O         -4.0670    5.5330  -19.8410 O.2   102  HIS102     -0.2715
     95  CB        -4.0330    8.0880  -18.2070 C.3   102  HIS102      0.0785
     96  CG        -4.3300    9.1150  -17.1660 C.ar  102  HIS102      0.0821
     97  ND1       -3.6520    9.1750  -15.9650 N.ar  102  HIS102     -0.2267
     98  CD2       -5.2400   10.1160  -17.1370 C.ar  102  HIS102      0.1154
     99  CE1       -4.1280   10.1760  -15.2430 C.ar  102  HIS102      0.1986
    100  NE2       -5.0920   10.7630  -15.9320 N.ar  102  HIS102     -0.2212
    101  N         -5.5570    6.8530  -20.9140 N.am  103  LEU103     -0.1963
    102  CA        -5.1840    6.3870  -22.2330 C.3   103  LEU103      0.1728
    103  C         -3.8420    7.0290  -22.5680 C.2   103  LEU103      0.2616
    104  O         -3.6860    8.2440  -22.4980 O.2   103  LEU103     -0.2715
    105  CB        -6.2610    6.7490  -23.2670 C.3   103  LEU103      0.0311
    106  CG        -6.2200    6.1060  -24.6590 C.3   103  LEU103      0.0022
    107  CD1       -6.4780    4.6100  -24.6140 C.3   103  LEU103      0.0001
    108  CD2       -7.2180    6.7750  -25.6060 C.3   103  LEU103      0.0001
    109  N         -2.8610    6.1970  -22.8890 N.am  104  MET104     -0.1963
    110  CA        -1.5290    6.6700  -23.2720 C.3   104  MET104      0.1736
    111  C         -1.3200    6.3420  -24.7440 C.2   104  MET104      0.2617
    112  O         -2.0680    5.5360  -25.3180 O.2   104  MET104     -0.2715
    113  CB        -0.4410    6.0380  -22.3840 C.3   104  MET104      0.0427
    114  CG        -0.4990    6.4640  -20.9050 C.3   104  MET104      0.0599
    115  SD         0.2200    8.0990  -20.6200 S.3   104  MET104     -0.1393
    116  CE        -0.9800    8.9020  -19.5610 C.3   104  MET104      0.0692
    117  N         -0.3160    6.9690  -25.3550 N.am  105  GLY105     -0.1955
    118  CA        -0.1560    6.9270  -26.8150 C.3   105  GLY105      0.1869
    119  C          0.2430    5.5690  -27.3740 C.2   105  GLY105      0.2309
    120  O         -0.5420    4.6150  -27.3750 O.2   105  GLY105     -0.2863
    121  N          4.6690    2.9780  -21.9080 N.3   147  ALA147     -0.1245
    122  CA         3.7570    3.8430  -22.6750 C.3   147  ALA147      0.1562
    123  C          4.3740    5.2150  -22.7480 C.2   147  ALA147      0.2260
    124  O          4.9530    5.7120  -21.7680 O.2   147  ALA147     -0.2867
    125  CB         2.4230    3.9490  -22.0020 C.3   147  ALA147      0.0290
    126  N          4.0890    0.3380  -17.4100 N.3   157  LEU157     -0.1231
    127  CA         2.8540   -0.4430  -17.3360 C.3   157  LEU157      0.1693
    128  C          3.1620   -1.8700  -16.8390 C.2   157  LEU157      0.2592
    129  O          4.2940   -2.3130  -16.9050 O.2   157  LEU157     -0.2718
    130  CB         2.2150   -0.5490  -18.7220 C.3   157  LEU157      0.0284
    131  CG         2.3430    0.6710  -19.6430 C.3   157  LEU157      0.0019
    132  CD1        1.8240    0.3120  -21.0170 C.3   157  LEU157      0.0001
    133  CD2        1.6100    1.8570  -19.0660 C.3   157  LEU157      0.0001
    134  N          2.1250   -2.5830  -16.3960 N.am  158  ASP158     -0.1974
    135  CA         2.2000   -4.0170  -16.0280 C.3   158  ASP158      0.1709
    136  C          3.2060   -4.3600  -14.9420 C.2   158  ASP158      0.2293
    137  O          3.6030   -5.5230  -14.8060 O.2   158  ASP158     -0.2864
    138  CB         2.4400   -4.8960  -17.2710 C.3   158  ASP158      0.1436
    139  CG         1.3210   -4.7830  -18.2900 C.2   158  ASP158      0.3671
    140  OD1        1.4060   -5.3960  -19.3820 O.co2 158  ASP158     -0.2456
    141  OD2        0.3290   -4.0910  -17.9910 O.co2 158  ASP158     -0.2456
@<TRIPOS>BOND
     1     4     3    2
     2     2     3    1
     3     2     1    1
     4     2     5    1
     5     6     5    1
     6     5     7    1
     7   120   119    2
     8   119   118    1
     9   118   117    1
    10   108   106    1
    11    11    10    2
    12   117   111   am
    13   112   111    2
    14   111   110    1
    15   106   107    1
    16   106   105    1
    17    10     9    1
    18     8     9    1
    19   110   109    1
    20   110   113    1
    21   105   102    1
    22     9    12    1
    23    12    13    1
    24    12    14    1
    25   109   103   am
    26   123   122    1
    27   123   124    2
    28   122   125    1
    29   122   121    1
    30   103   104    2
    31   103   102    1
    32   113   114    1
    33   102   101    1
    34    19    16    1
    35    16    15    1
    36    16    17    1
    37   132   131    1
    38    23    22    2
    39   101    93   am
    40   114   115    1
    41   115   116    1
    42    20    17   am
    43    20    21    1
    44    17    18    2
    45    22    21    1
    46    22    27   am
    47    94    93    2
    48    93    92    1
    49    24    26    1
    50    24    21    1
    51    24    25    1
    52   131   133    1
    53   131   130    1
    54   140   139   ar
    55    28    27    1
    56    28    31    1
    57    28    29    1
    58   130   127    1
    59    92    95    1
    60    92    91    1
    61    32    31    1
    62    32    33    1
    63    87    86    2
    64   139   141   ar
    65   139   138    1
    66    29    30    2
    67    95    96    1
    68    34    33    1
    69    34    35    1
    70    90    88    1
    71    86    91   am
    72    86    85    1
    73   126   127    1
    74   127   128    1
    75   138   135    1
    76    96    98   ar
    77    96    97   ar
    78    98   100   ar
    79   129   128    2
    80   128   134   am
    81    72    71    2
    82    84    85    1
    83    84    79   am
    84   134   135    1
    85    85    88    1
    86    82    81    1
    87    88    89    1
    88   135   136    1
    89    97    99   ar
    90   100    99   ar
    91    58    57    1
    92    58    60    1
    93    78    79    1
    94    78    81    1
    95    78    77    1
    96    83    81    1
    97    79    80    2
    98    57    59    1
    99    57    54    1
   100    71    77   am
   101    71    70    1
   102   136   137    2
   103    69    70    1
   104    44    42   ar
   105    54    53    1
   106    54    55    1
   107    70    73    1
   108    73    74    1
   109    43    42   ar
   110    42    41    1
   111    75    74    1
   112    74    76    1
   113    55    56    2
   114    51    50    1
   115    41    40    1
   116    52    50    1
   117    68    66    1
   118    50    49    1
   119    40    37    1
   120    62    61    1
   121    62    63    1
   122    62    65    1
   123    63    64    2
   124    49    46    1
   125    66    65    1
   126    66    67    1
   127    37    38    1
   128    37    36    1
   129    39    38    2
   130    46    45    1
   131    46    47    1
   132    48    47    2
