@<TRIPOS>MOLECULE
tmp/4eh6A01.pdb
 126 117 0 0 0
SMALL
GASTEIGER

@<TRIPOS>ATOM
      1  N          8.7730   -1.9880   28.1070 N.3    27  VAL27      -0.1245
      2  CA         7.3790   -1.6980   28.4790 C.3    27  VAL27       0.1561
      3  C          6.4820   -2.9450   28.5540 C.2    27  VAL27       0.2260
      4  O          5.3300   -2.8580   28.9870 O.2    27  VAL27      -0.2867
      5  CB         6.7140   -0.5870   27.6040 C.3    27  VAL27       0.0252
      6  CG1        7.2070    0.7940   28.0000 C.3    27  VAL27       0.0019
      7  CG2        6.9510   -0.8240   26.1410 C.3    27  VAL27       0.0019
      8  N          8.7080   -4.8800   23.4930 N.3    33  VAL33      -0.1245
      9  CA         8.7510   -3.4610   23.1890 C.3    33  VAL33       0.1561
     10  C          9.4910   -2.7030   24.2980 C.2    33  VAL33       0.2260
     11  O          9.2600   -2.9670   25.4870 O.2    33  VAL33      -0.2867
     12  CB         7.3050   -2.8900   23.0340 C.3    33  VAL33       0.0252
     13  CG1        7.3180   -1.3990   22.8120 C.3    33  VAL33       0.0019
     14  CG2        6.5560   -3.5770   21.8980 C.3    33  VAL33       0.0019
     15  N          8.2100    3.8660   20.7340 N.3    46  ALA46      -0.1245
     16  CA         8.1980    2.4570   21.1150 C.3    46  ALA46       0.1562
     17  C          8.9890    1.6650   20.0670 C.2    46  ALA46       0.2260
     18  O          8.7330    1.7770   18.8670 O.2    46  ALA46      -0.2867
     19  CB         6.7840    1.9540   21.2140 C.3    46  ALA46       0.0290
     20  N          9.9280   -2.0340   18.9490 N.3    48  LYS48      -0.1245
     21  CA         9.5960   -3.4450   19.0790 C.3    48  LYS48       0.1561
     22  C         10.6100   -4.3150   18.3310 C.2    48  LYS48       0.2260
     23  O         10.8430   -4.1230   17.1280 O.2    48  LYS48      -0.2867
     24  CB         8.1890   -3.7160   18.5460 C.3    48  LYS48       0.0271
     25  CG         7.6880   -5.1530   18.7480 C.3    48  LYS48       0.0035
     26  CD         6.7440   -5.5340   17.6150 C.3    48  LYS48       0.0206
     27  CE         5.5710   -6.3510   18.0900 C.3    48  LYS48       0.1093
     28  NZ         4.4100   -6.0190   17.1970 N.3    48  LYS48      -0.1314
     29  N          3.1680   -7.9200    9.0070 N.3    66  GLU66      -0.1245
     30  CA         3.2000   -6.8290    9.9700 C.3    66  GLU66       0.1567
     31  C          3.9040   -5.6100    9.3710 C.2    66  GLU66       0.2260
     32  O          3.3950   -4.5040    9.4660 O.2    66  GLU66      -0.2867
     33  CB         3.8880   -7.2680   11.2660 C.3    66  GLU66       0.0388
     34  CG         4.1020   -6.0880   12.2130 C.3    66  GLU66       0.1160
     35  CD         4.2700   -6.4750   13.6670 C.2    66  GLU66       0.3649
     36  OE1        4.8940   -7.5260   13.9390 O.co2  66  GLU66      -0.2457
     37  OE2        3.8010   -5.7050   14.5420 O.co2  66  GLU66      -0.2457
     38  N          2.0920   -1.9780    8.5870 N.3    70  LEU70      -0.1245
     39  CA         2.5640   -0.7880    9.2870 C.3    70  LEU70       0.1561
     40  C          3.1010    0.2560    8.3340 C.2    70  LEU70       0.2260
     41  O          2.8590    1.4470    8.5340 O.2    70  LEU70      -0.2867
     42  CB         3.6060   -1.1450   10.3410 C.3    70  LEU70       0.0270
     43  CG         3.0530   -1.8640   11.5740 C.3    70  LEU70       0.0019
     44  CD1        4.2270   -2.2590   12.4930 C.3    70  LEU70       0.0001
     45  CD2        2.1200   -0.9620   12.3010 C.3    70  LEU70       0.0001
     46  N         -1.9490    3.3870   14.2390 N.3    79  ILE79      -0.1245
     47  CA        -0.5070    3.3990   14.4910 C.3    79  ILE79       0.1561
     48  C          0.2880    3.4190   13.1700 C.2    79  ILE79       0.2260
     49  O         -0.0750    2.7540   12.1990 O.2    79  ILE79      -0.2867
     50  CB        -0.0670    2.2240   15.4060 C.3    79  ILE79       0.0252
     51  CG1        1.3290    2.4770   15.9660 C.3    79  ILE79       0.0019
     52  CG2       -0.1630    0.8780   14.6840 C.3    79  ILE79       0.0019
     53  CD1        1.4140    2.2650   17.4730 C.3    79  ILE79       0.0001
     54  N         10.9170   -2.4890   14.8560 N.3    99  LEU99      -0.1245
     55  CA         9.9520   -1.5220   14.3490 C.3    99  LEU99       0.1561
     56  C          9.7770   -0.3730   15.3470 C.2    99  LEU99       0.2260
     57  O          9.7240   -0.5980   16.5710 O.2    99  LEU99      -0.2867
     58  CB         8.6020   -2.2030   14.1270 C.3    99  LEU99       0.0270
     59  CG         8.5960   -3.4810   13.2830 C.3    99  LEU99       0.0019
     60  CD1        7.3020   -4.2960   13.4330 C.3    99  LEU99       0.0001
     61  CD2        8.8400   -3.1790   11.8230 C.3    99  LEU99       0.0001
     62  N          7.5980    3.1120   16.5270 N.3   101  THR101     -0.1203
     63  CA         6.3660    3.9260   16.4350 C.3   101  THR101      0.1994
     64  C          6.3500    4.9480   17.5690 C.2   101  THR101      0.2618
     65  O          7.1570    4.8540   18.5050 O.2   101  THR101     -0.2717
     66  CB         5.0820    3.0770   16.6010 C.3   101  THR101      0.1784
     67  OG1        5.0150    2.5880   17.9560 O.3   101  THR101     -0.2211
     68  CG2        5.0590    1.8800   15.6300 C.3   101  THR101      0.0376
     69  N          5.4150    5.9030   17.5030 N.am  102  HIS102     -0.1961
     70  CA         5.1480    6.8020   18.6310 C.3   102  HIS102      0.1787
     71  C          4.8900    6.0170   19.9030 C.2   102  HIS102      0.2620
     72  O          4.2040    4.9900   19.8770 O.2   102  HIS102     -0.2715
     73  CB         3.9190    7.6620   18.3550 C.3   102  HIS102      0.0785
     74  CG         4.1320    8.6840   17.2840 C.ar  102  HIS102      0.0821
     75  ND1        5.0940    9.6670   17.3790 N.ar  102  HIS102     -0.2267
     76  CD2        3.5060    8.8810   16.1000 C.ar  102  HIS102      0.1154
     77  CE1        5.0640   10.4170   16.2910 C.ar  102  HIS102      0.1986
     78  NE2        4.1080    9.9630   15.4990 N.ar  102  HIS102     -0.2212
     79  N          5.4500    6.4870   21.0180 N.am  103  LEU103     -0.1963
     80  CA         5.1050    5.9150   22.3080 C.3   103  LEU103      0.1728
     81  C          3.7130    6.4150   22.6700 C.2   103  LEU103      0.2616
     82  O          3.4940    7.6150   22.7440 O.2   103  LEU103     -0.2715
     83  CB         6.1120    6.3340   23.3950 C.3   103  LEU103      0.0311
     84  CG         5.9480    5.6440   24.7550 C.3   103  LEU103      0.0022
     85  CD1        6.1780    4.1420   24.6520 C.3   103  LEU103      0.0001
     86  CD2        6.8780    6.2590   25.7990 C.3   103  LEU103      0.0001
     87  N          2.7690    5.5020   22.8780 N.am  104  MET104     -0.1977
     88  CA         1.4320    5.9140   23.2960 C.3   104  MET104      0.1605
     89  C          1.3060    5.7950   24.8190 C.2   104  MET104      0.2287
     90  O          1.9420    4.9330   25.4300 O.2   104  MET104     -0.2864
     91  CB         0.3570    5.1050   22.5760 C.3   104  MET104      0.0413
     92  CG         0.2730    5.3430   21.0460 C.3   104  MET104      0.0598
     93  SD        -0.1160    7.0460   20.5410 S.3   104  MET104     -0.1393
     94  CE        -1.8030    7.2730   21.1360 C.3   104  MET104      0.0692
     95  N         -4.8380    2.5640   21.8810 N.3   152  ALA152     -0.1245
     96  CA        -3.9090    3.3680   22.6500 C.3   152  ALA152      0.1562
     97  C         -4.4300    4.7890   22.6690 C.2   152  ALA152      0.2260
     98  O         -4.9210    5.2920   21.6540 O.2   152  ALA152     -0.2867
     99  CB        -2.5470    3.3270   21.9890 C.3   152  ALA152      0.0290
    100  N         -3.9660   -0.0100   17.2860 N.3   162  LEU162     -0.1231
    101  CA        -2.8110   -0.8960   17.0710 C.3   162  LEU162      0.1693
    102  C         -3.1970   -2.3750   16.9500 C.2   162  LEU162      0.2592
    103  O         -4.3700   -2.7320   16.9390 O.2   162  LEU162     -0.2718
    104  CB        -1.7980   -0.7610   18.2030 C.3   162  LEU162      0.0284
    105  CG        -2.2100   -0.0440   19.4790 C.3   162  LEU162      0.0019
    106  CD1       -1.6820   -0.7530   20.7140 C.3   162  LEU162      0.0001
    107  CD2       -1.6540    1.3300   19.3840 C.3   162  LEU162      0.0001
    108  N         -2.1790   -3.2360   16.9150 N.am  163  ASP163     -0.1960
    109  CA        -2.3770   -4.6800   17.0960 C.3   163  ASP163      0.1840
    110  C         -1.6250   -5.3470   18.2740 C.2   163  ASP163      0.2622
    111  O         -1.2240   -6.5020   18.1680 O.2   163  ASP163     -0.2715
    112  CB        -2.0190   -5.3930   15.8010 C.3   163  ASP163      0.1450
    113  CG        -3.1800   -5.4910   14.8610 C.2   163  ASP163      0.3671
    114  OD1       -3.6060   -4.4400   14.3330 O.co2 163  ASP163     -0.2456
    115  OD2       -3.6610   -6.6290   14.6460 O.co2 163  ASP163     -0.2456
    116  N         -1.4390   -4.6540   19.3970 N.am  164  PHE164     -0.1974
    117  CA        -0.8470   -5.2950   20.6000 C.3   164  PHE164      0.1639
    118  C         -1.1810   -4.5670   21.8980 C.2   164  PHE164      0.2290
    119  O         -0.3050   -3.9550   22.5210 O.2   164  PHE164     -0.2864
    120  CB         0.6720   -5.4840   20.4600 C.3   164  PHE164      0.0560
    121  CG         1.3620   -6.1160   21.6490 C.ar  164  PHE164     -0.0200
    122  CD1        1.0000   -7.3420   22.1340 C.ar  164  PHE164     -0.0042
    123  CD2        2.4240   -5.4910   22.2510 C.ar  164  PHE164     -0.0042
    124  CE1        1.6570   -7.9830   23.1630 C.ar  164  PHE164     -0.0003
    125  CE2        3.1340   -6.1190   23.3050 C.ar  164  PHE164     -0.0003
    126  CZ         2.7080   -7.3230   23.7500 C.ar  164  PHE164     -0.0000
@<TRIPOS>BOND
     1    40    41    2
     2    40    39    1
     3    38    39    1
     4    29    30    1
     5    39    42    1
     6    31    32    2
     7    31    30    1
     8    30    33    1
     9    42    43    1
    10    33    34    1
    11    43    45    1
    12    43    44    1
    13    61    59    1
    14    49    48    2
    15    34    35    1
    16    48    47    1
    17    59    60    1
    18    59    58    1
    19    35    36   ar
    20    35    37   ar
    21    58    55    1
    22    46    47    1
    23   114   113   ar
    24    55    54    1
    25    55    56    1
    26    47    50    1
    27   115   113   ar
    28    52    50    1
    29   113   112    1
    30    56    57    2
    31    50    51    1
    32    78    76   ar
    33    78    77   ar
    34    68    66    1
    35   112   109    1
    36    51    53    1
    37    76    74   ar
    38    77    75   ar
    39    63    62    1
    40    63    66    1
    41    63    64    1
    42    66    67    1
    43   108   102   am
    44   108   109    1
    45   103   102    2
    46   102   101    1
    47   101   100    1
    48   101   104    1
    49   109   110    1
    50    23    22    2
    51    28    27    1
    52    74    75   ar
    53    74    73    1
    54    69    64   am
    55    69    70    1
    56    64    65    2
    57    26    27    1
    58    26    25    1
    59   111   110    2
    60   104   105    1
    61   110   116   am
    62    22    21    1
    63    73    70    1
    64    24    25    1
    65    24    21    1
    66    70    71    1
    67    18    17    2
    68    20    21    1
    69   107   105    1
    70   116   117    1
    71   105   106    1
    72    72    71    2
    73    71    79   am
    74    17    16    1
    75   120   117    1
    76   120   121    1
    77    93    92    1
    78    93    94    1
    79   117   118    1
    80    15    16    1
    81    79    80    1
    82    92    91    1
    83    16    19    1
    84   121   122   ar
    85   121   123   ar
    86    98    97    2
    87    95    96    1
    88    14    12    1
    89   118   119    2
    90    99    96    1
    91   122   124   ar
    92   123   125   ar
    93    80    81    1
    94    80    83    1
    95    91    88    1
    96    96    97    1
    97    81    82    2
    98    81    87   am
    99    13    12    1
   100    87    88    1
   101    12     9    1
   102   124   126   ar
   103     9     8    1
   104     9    10    1
   105    88    89    1
   106   125   126   ar
   107    83    84    1
   108    10    11    2
   109    85    84    1
   110    84    86    1
   111    89    90    2
   112     7     5    1
   113     5     6    1
   114     5     2    1
   115     1     2    1
   116     2     3    1
   117     3     4    2
