@<TRIPOS>MOLECULE
tmp/4eh7A01.pdb
 162 153 0 0 0
SMALL
GASTEIGER

@<TRIPOS>ATOM
      1  N          8.4600   -2.1030   28.2420 N.3    27  VAL27      -0.1245
      2  CA         7.0900   -1.7170   28.6150 C.3    27  VAL27       0.1561
      3  C          6.0660   -2.8600   28.5990 C.2    27  VAL27       0.2260
      4  O          5.0020   -2.7440   29.2130 O.2    27  VAL27      -0.2867
      5  CB         6.5490   -0.5190   27.7820 C.3    27  VAL27       0.0252
      6  CG1        7.2380    0.7780   28.1800 C.3    27  VAL27       0.0019
      7  CG2        6.6970   -0.7700   26.3000 C.3    27  VAL27       0.0019
      8  N          8.4980   -4.8810   23.5730 N.3    33  VAL33      -0.1245
      9  CA         8.5290   -3.4840   23.2420 C.3    33  VAL33       0.1561
     10  C          9.2700   -2.6890   24.3230 C.2    33  VAL33       0.2260
     11  O          9.0530   -2.9060   25.5170 O.2    33  VAL33      -0.2867
     12  CB         7.0840   -2.9320   23.1250 C.3    33  VAL33       0.0252
     13  CG1        7.1010   -1.4450   22.8520 C.3    33  VAL33       0.0019
     14  CG2        6.2840   -3.6910   22.0520 C.3    33  VAL33       0.0019
     15  N          7.8740    3.9120   20.7730 N.3    46  ALA46      -0.1245
     16  CA         7.9130    2.4970   21.0780 C.3    46  ALA46       0.1562
     17  C          8.7420    1.7430   20.0320 C.2    46  ALA46       0.2260
     18  O          8.5600    1.9160   18.8190 O.2    46  ALA46      -0.2867
     19  CB         6.4980    1.9220   21.1540 C.3    46  ALA46       0.0290
     20  N          9.6640   -2.0460   18.9430 N.3    48  LYS48      -0.1245
     21  CA         9.2830   -3.4420   19.0800 C.3    48  LYS48       0.1561
     22  C         10.3270   -4.3010   18.4000 C.2    48  LYS48       0.2260
     23  O         10.6450   -4.0910   17.2140 O.2    48  LYS48      -0.2867
     24  CB         7.9100   -3.6840   18.4420 C.3    48  LYS48       0.0271
     25  CG         7.3320   -5.1020   18.6350 C.3    48  LYS48       0.0035
     26  CD         6.0080   -5.2390   17.8900 C.3    48  LYS48       0.0206
     27  CE         5.2600   -6.4960   18.2950 C.3    48  LYS48       0.1093
     28  NZ         4.0150   -6.6640   17.4530 N.3    48  LYS48      -0.1314
     29  N          2.7520   -7.8950    8.9140 N.3    66  GLU66      -0.1245
     30  CA         2.7780   -6.7870    9.8670 C.3    66  GLU66       0.1567
     31  C          3.5720   -5.6120    9.3190 C.2    66  GLU66       0.2260
     32  O          3.1050   -4.4910    9.3800 O.2    66  GLU66      -0.2867
     33  CB         3.3630   -7.2280   11.2130 C.3    66  GLU66       0.0388
     34  CG         3.2660   -6.0700   12.2860 C.3    66  GLU66       0.1160
     35  CD         3.8750   -6.4390   13.6150 C.2    66  GLU66       0.3649
     36  OE1        3.6590   -5.6790   14.5870 O.co2  66  GLU66      -0.2457
     37  OE2        4.5710   -7.4850   13.6930 O.co2  66  GLU66      -0.2457
     38  N          1.8220   -2.0110    8.5940 N.3    70  LEU70      -0.1245
     39  CA         2.3040   -0.8360    9.3140 C.3    70  LEU70       0.1561
     40  C          2.8680    0.2290    8.3890 C.2    70  LEU70       0.2260
     41  O          2.6560    1.4260    8.6100 O.2    70  LEU70      -0.2867
     42  CB         3.3500   -1.2480   10.3370 C.3    70  LEU70       0.0270
     43  CG         2.8270   -1.8450   11.6190 C.3    70  LEU70       0.0019
     44  CD1        3.9750   -2.2690   12.4600 C.3    70  LEU70       0.0001
     45  CD2        2.0210   -0.7730   12.3640 C.3    70  LEU70       0.0001
     46  N         -2.0790    3.3240   14.2690 N.3    79  ILE79      -0.1245
     47  CA        -0.6540    3.2310   14.5240 C.3    79  ILE79       0.1561
     48  C          0.1160    3.1610   13.1910 C.2    79  ILE79       0.2260
     49  O         -0.2150    2.3690   12.3090 O.2    79  ILE79      -0.2867
     50  CB        -0.3010    2.0240   15.4220 C.3    79  ILE79       0.0252
     51  CG1        1.1650    2.0580   15.7850 C.3    79  ILE79       0.0019
     52  CG2       -0.5720    0.6750   14.7140 C.3    79  ILE79       0.0019
     53  CD1        1.5570    0.8500   16.6590 C.3    79  ILE79       0.0001
     54  N          4.1590    3.6020   11.0900 N.3    81  LEU81      -0.1245
     55  CA         5.5710    3.3030   11.2450 C.3    81  LEU81       0.1561
     56  C          6.4550    4.5550   11.2280 C.2    81  LEU81       0.2260
     57  O          6.6110    5.1790   10.1890 O.2    81  LEU81      -0.2867
     58  CB         6.0390    2.3780   10.1290 C.3    81  LEU81       0.0270
     59  CG         6.4180    0.9390   10.4860 C.3    81  LEU81       0.0019
     60  CD1        7.3270    0.3920    9.3870 C.3    81  LEU81       0.0001
     61  CD2        7.0290    0.7300   11.8930 C.3    81  LEU81       0.0001
     62  N         10.5610   -2.5070   14.9200 N.3    99  LEU99      -0.1231
     63  CA         9.5900   -1.5560   14.4090 C.3    99  LEU99       0.1693
     64  C          9.5100   -0.3680   15.3480 C.2    99  LEU99       0.2592
     65  O          9.5230   -0.5330   16.5760 O.2    99  LEU99      -0.2718
     66  CB         8.2220   -2.2180   14.2740 C.3    99  LEU99       0.0284
     67  CG         8.2500   -3.5250   13.4570 C.3    99  LEU99       0.0019
     68  CD1        6.8980   -4.2540   13.4690 C.3    99  LEU99       0.0001
     69  CD2        8.7090   -3.2850   12.0400 C.3    99  LEU99       0.0001
     70  N          9.4540    0.8280   14.7730 N.am  100  VAL100     -0.1966
     71  CA         9.3710    2.0200   15.6120 C.3   100  VAL100      0.1727
     72  C          8.0860    2.7850   15.3710 C.2   100  VAL100      0.2617
     73  O          7.7430    3.0950   14.2360 O.2   100  VAL100     -0.2715
     74  CB        10.5970    2.9510   15.4570 C.3   100  VAL100      0.0290
     75  CG1       10.4940    4.1310   16.4620 C.3   100  VAL100      0.0023
     76  CG2       11.8960    2.1820   15.6940 C.3   100  VAL100      0.0023
     77  N          7.3850    3.0820   16.4550 N.am  101  THR101     -0.1937
     78  CA         6.1590    3.8700   16.3680 C.3   101  THR101      0.2028
     79  C          6.0400    4.7990   17.5680 C.2   101  THR101      0.2642
     80  O          6.8120    4.6810   18.5380 O.2   101  THR101     -0.2714
     81  CB         4.9170    2.9770   16.2910 C.3   101  THR101      0.1808
     82  OG1        3.7740    3.7910   16.0000 O.3   101  THR101     -0.2208
     83  CG2        4.6930    2.2740   17.6010 C.3   101  THR101      0.0379
     84  N          5.0840    5.7380   17.4940 N.am  102  HIS102     -0.1959
     85  CA         4.8080    6.6600   18.5850 C.3   102  HIS102      0.1787
     86  C          4.5290    5.8980   19.8560 C.2   102  HIS102      0.2620
     87  O          3.8650    4.8610   19.8440 O.2   102  HIS102     -0.2715
     88  CB         3.6000    7.5330   18.2540 C.3   102  HIS102      0.0785
     89  CG         3.9160    8.6440   17.3050 C.ar  102  HIS102      0.0821
     90  ND1        3.3900    8.7110   16.0310 N.ar  102  HIS102     -0.2267
     91  CD2        4.7320    9.7190   17.4320 C.ar  102  HIS102      0.1154
     92  CE1        3.8570    9.7860   15.4170 C.ar  102  HIS102      0.1986
     93  NE2        4.6780   10.4110   16.2440 N.ar  102  HIS102     -0.2212
     94  N          5.0640    6.3940   20.9590 N.am  103  LEU103     -0.1963
     95  CA         4.7050    5.8480   22.2460 C.3   103  LEU103      0.1728
     96  C          3.4380    6.5750   22.6400 C.2   103  LEU103      0.2616
     97  O          3.3860    7.7960   22.5850 O.2   103  LEU103     -0.2715
     98  CB         5.8070    6.1130   23.2790 C.3   103  LEU103      0.0311
     99  CG         5.7100    5.4090   24.6370 C.3   103  LEU103      0.0022
    100  CD1        5.8150    3.8800   24.5020 C.3   103  LEU103      0.0001
    101  CD2        6.8050    5.9480   25.5500 C.3   103  LEU103      0.0001
    102  N          2.4120    5.8410   23.0270 N.am  104  MET104     -0.1963
    103  CA         1.1980    6.5000   23.4750 C.3   104  MET104      0.1736
    104  C          1.0580    6.1720   24.9530 C.2   104  MET104      0.2617
    105  O          1.5350    5.1280   25.4030 O.2   104  MET104     -0.2715
    106  CB        -0.0150    6.0230   22.6720 C.3   104  MET104      0.0427
    107  CG         0.1210    6.1320   21.1340 C.3   104  MET104      0.0599
    108  SD        -0.3430    7.7430   20.4400 S.3   104  MET104     -0.1393
    109  CE        -2.1150    7.7510   20.7620 C.3   104  MET104      0.0692
    110  N          0.4420    7.0670   25.7150 N.am  105  GLY105     -0.1940
    111  CA         0.2750    6.8410   27.1550 C.3   105  GLY105      0.2014
    112  C         -0.1700    5.4160   27.5020 C.2   105  GLY105      0.2639
    113  O          0.6550    4.5100   27.7280 O.2   105  GLY105     -0.2714
    114  N         -1.4820    5.2210   27.5250 N.am  106  ALA106     -0.1963
    115  CA        -2.0600    3.9820   27.9860 C.3   106  ALA106      0.1728
    116  C         -2.7980    3.2710   26.8500 C.2   106  ALA106      0.2616
    117  O         -2.7640    3.7060   25.7000 O.2   106  ALA106     -0.2715
    118  CB        -2.9990    4.2680   29.1570 C.3   106  ALA106      0.0334
    119  N         -3.4170    2.1460   27.1790 N.am  107  ASP107     -0.1971
    120  CA        -4.4000    1.5370   26.3090 C.3   107  ASP107      0.1709
    121  C         -5.7580    1.7070   26.9850 C.2   107  ASP107      0.2293
    122  O         -5.8220    2.1790   28.1240 O.2   107  ASP107     -0.2864
    123  CB        -4.0450    0.0760   26.0020 C.3   107  ASP107      0.1436
    124  CG        -4.2000   -0.8470   27.2030 C.2   107  ASP107      0.3671
    125  OD1       -5.0450   -0.5660   28.0820 O.co2 107  ASP107     -0.2456
    126  OD2       -3.4840   -1.8790   27.2470 O.co2 107  ASP107     -0.2456
    127  N         -4.5800    2.4950   21.6320 N.3   152  ALA152     -0.1245
    128  CA        -3.5890    3.2730   22.3830 C.3   152  ALA152      0.1562
    129  C         -4.1150    4.6830   22.5350 C.2   152  ALA152      0.2260
    130  O         -4.6270    5.2870   21.5760 O.2   152  ALA152     -0.2867
    131  CB        -2.2500    3.2710   21.6710 C.3   152  ALA152      0.0290
    132  N         -4.1290    0.0000   17.3290 N.3   162  LEU162     -0.1231
    133  CA        -2.9340   -0.8460   17.2130 C.3   162  LEU162      0.1693
    134  C         -3.2770   -2.1590   16.5010 C.2   162  LEU162      0.2592
    135  O         -4.3240   -2.7700   16.7400 O.2   162  LEU162     -0.2718
    136  CB        -2.3220   -1.1440   18.5860 C.3   162  LEU162      0.0284
    137  CG        -2.1920    0.0030   19.5800 C.3   162  LEU162      0.0019
    138  CD1       -2.2890   -0.5690   20.9600 C.3   162  LEU162      0.0001
    139  CD2       -0.8610    0.7230   19.4370 C.3   162  LEU162      0.0001
    140  N         -2.3750   -2.5540   15.6110 N.am  163  ASP163     -0.1960
    141  CA        -2.4880   -3.7710   14.8070 C.3   163  ASP163      0.1840
    142  C         -2.4830   -4.9620   15.7240 C.2   163  ASP163      0.2622
    143  O         -3.3080   -5.8660   15.5730 O.2   163  ASP163     -0.2715
    144  CB        -1.3100   -3.8790   13.8200 C.3   163  ASP163      0.1450
    145  CG        -1.5300   -4.8650   12.6970 C.2   163  ASP163      0.3671
    146  OD1       -2.5870   -5.4590   12.5550 O.co2 163  ASP163     -0.2456
    147  OD2       -0.6590   -4.9700   11.8300 O.co2 163  ASP163     -0.2456
    148  N         -1.5540   -4.9310   16.6830 N.am  164  PHE164     -0.1960
    149  CA        -1.2900   -6.0300   17.6110 C.3   164  PHE164      0.1771
    150  C         -0.6250   -5.5110   18.8850 C.2   164  PHE164      0.2620
    151  O          0.2630   -4.6400   18.8260 O.2   164  PHE164     -0.2715
    152  CB        -0.3700   -7.0830   16.9560 C.3   164  PHE164      0.0574
    153  CG        -0.9970   -8.0080   15.9480 C.ar  164  PHE164     -0.0200
    154  CD1       -2.0250   -8.8610   16.3050 C.ar  164  PHE164     -0.0042
    155  CD2       -0.5580   -8.0470   14.6310 C.ar  164  PHE164     -0.0042
    156  CE1       -2.6210   -9.7170   15.3650 C.ar  164  PHE164     -0.0003
    157  CE2       -1.1290   -8.9340   13.7190 C.ar  164  PHE164     -0.0003
    158  CZ        -2.1450   -9.7440   14.0870 C.ar  164  PHE164     -0.0000
    159  N         -1.0480   -6.0640   20.0240 N.am  165  GLY165     -0.1954
    160  CA        -0.3420   -5.8980   21.2930 C.3   165  GLY165      0.1869
    161  C         -0.9400   -4.8170   22.1680 C.2   165  GLY165      0.2309
    162  O         -0.3550   -4.4450   23.1870 O.2   165  GLY165     -0.2863
@<TRIPOS>BOND
     1    40    41    2
     2    40    39    1
     3    38    39    1
     4    29    30    1
     5    39    42    1
     6    31    32    2
     7    31    30    1
     8    60    59    1
     9    30    33    1
    10    58    59    1
    11    58    55    1
    12    57    56    2
    13    42    43    1
    14    59    61    1
    15    54    55    1
    16    33    34    1
    17    56    55    1
    18    43    45    1
    19    43    44    1
    20   147   145   ar
    21    69    67    1
    22    34    35    1
    23    49    48    2
    24   146   145   ar
    25   145   144    1
    26    48    47    1
    27    67    68    1
    28    67    66    1
    29    35    37   ar
    30    35    36   ar
    31   157   158   ar
    32   157   155   ar
    33   144   141    1
    34   158   156   ar
    35    73    72    2
    36    46    47    1
    37    66    63    1
    38    63    62    1
    39    63    64    1
    40    47    50    1
    41   155   153   ar
    42    52    50    1
    43    70    64   am
    44    70    71    1
    45   141   140    1
    46   141   142    1
    47    64    65    2
    48   156   154   ar
    49    72    71    1
    50    72    77   am
    51    92    90   ar
    52    92    93   ar
    53    50    51    1
    54    74    71    1
    55    74    76    1
    56    74    75    1
    57   143   142    2
    58   140   134   am
    59   142   148   am
    60    51    53    1
    61   153   154   ar
    62   153   152    1
    63    82    81    1
    64    90    89   ar
    65    93    91   ar
    66    81    78    1
    67    81    83    1
    68    78    77    1
    69    78    79    1
    70   134   135    2
    71   134   133    1
    72   148   149    1
    73   152   149    1
    74   133   132    1
    75   133   136    1
    76    23    22    2
    77    89    91   ar
    78    89    88    1
    79    28    27    1
    80    84    79   am
    81    84    85    1
    82    79    80    2
    83   149   150    1
    84    26    27    1
    85    26    25    1
    86    88    85    1
    87    22    21    1
    88    24    25    1
    89    24    21    1
    90    85    86    1
    91   136   137    1
    92    18    17    2
    93   151   150    2
    94   150   159   am
    95    20    21    1
    96   139   137    1
    97   137   138    1
    98    87    86    2
    99    86    94   am
   100   159   160    1
   101    17    16    1
   102   108   109    1
   103   108   107    1
   104    15    16    1
   105    94    95    1
   106    16    19    1
   107   107   106    1
   108   160   161    1
   109   130   129    2
   110   127   128    1
   111   131   128    1
   112    14    12    1
   113   161   162    2
   114    95    96    1
   115    95    98    1
   116   128   129    1
   117    97    96    2
   118    96   102   am
   119   106   103    1
   120    13    12    1
   121   102   103    1
   122    12     9    1
   123     9     8    1
   124     9    10    1
   125    98    99    1
   126   103   104    1
   127    10    11    2
   128   100    99    1
   129    99   101    1
   130   104   105    2
   131   104   110   am
   132   117   116    2
   133   110   111    1
   134   123   120    1
   135   123   124    1
   136     7     5    1
   137   120   121    1
   138   120   119    1
   139   116   119   am
   140   116   115    1
   141   121   122    2
   142   111   112    1
   143   124   126   ar
   144   124   125   ar
   145   112   114   am
   146   112   113    2
   147   114   115    1
   148     5     6    1
   149     5     2    1
   150   115   118    1
   151     1     2    1
   152     3     2    1
   153     3     4    2
