@<TRIPOS>MOLECULE
tmp/4eh8A02.pdb
 131 121 0 0 0
SMALL
GASTEIGER

@<TRIPOS>ATOM
      1  N         -8.7140   -1.2080  -27.9380 N.3    27  VAL27      -0.1245
      2  CA        -7.2950   -0.9600  -28.2360 C.3    27  VAL27       0.1561
      3  C         -6.4150   -2.2460  -28.3290 C.2    27  VAL27       0.2260
      4  O         -5.2400   -2.1850  -28.7310 O.2    27  VAL27      -0.2867
      5  CB        -6.6540    0.1510  -27.3230 C.3    27  VAL27       0.0252
      6  CG1       -7.3870    1.4870  -27.4790 C.3    27  VAL27       0.0019
      7  CG2       -6.6350   -0.2510  -25.8710 C.3    27  VAL27       0.0019
      8  N         -8.7800   -4.1590  -23.3520 N.3    33  VAL33      -0.1245
      9  CA        -8.8020   -2.7440  -23.0140 C.3    33  VAL33       0.1561
     10  C         -9.5360   -1.9430  -24.0770 C.2    33  VAL33       0.2260
     11  O         -9.3370   -2.1690  -25.2730 O.2    33  VAL33      -0.2867
     12  CB        -7.3670   -2.2050  -22.9160 C.3    33  VAL33       0.0252
     13  CG1       -7.3770   -0.7260  -22.6560 C.3    33  VAL33       0.0019
     14  CG2       -6.5700   -2.9510  -21.8290 C.3    33  VAL33       0.0019
     15  N         -8.2860    4.5800  -20.3960 N.3    46  ALA46      -0.1245
     16  CA        -8.3960    3.1870  -20.8170 C.3    46  ALA46       0.1562
     17  C         -9.0970    2.3300  -19.7330 C.2    46  ALA46       0.2260
     18  O         -8.7610    2.3810  -18.5420 O.2    46  ALA46      -0.2867
     19  CB        -7.0590    2.6360  -21.1590 C.3    46  ALA46       0.0290
     20  N         -9.9120   -1.4180  -18.7520 N.3    48  LYS48      -0.1245
     21  CA        -9.5350   -2.8070  -18.9300 C.3    48  LYS48       0.1561
     22  C        -10.5620   -3.7000  -18.2490 C.2    48  LYS48       0.2260
     23  O        -10.7790   -3.5850  -17.0340 O.2    48  LYS48      -0.2867
     24  CB        -8.1780   -3.0690  -18.2770 C.3    48  LYS48       0.0271
     25  CG        -7.5700   -4.4410  -18.5350 C.3    48  LYS48       0.0035
     26  CD        -6.4130   -4.6670  -17.5680 C.3    48  LYS48       0.0206
     27  CE        -5.6050   -5.8880  -17.9310 C.3    48  LYS48       0.1093
     28  NZ        -4.3990   -5.9660  -17.0610 N.3    48  LYS48      -0.1314
     29  N         -2.9040   -7.5520   -8.8380 N.3    66  GLU66      -0.1245
     30  CA        -2.9380   -6.4350   -9.7610 C.3    66  GLU66       0.1567
     31  C         -3.7700   -5.2440   -9.1900 C.2    66  GLU66       0.2260
     32  O         -3.3420   -4.0900   -9.2610 O.2    66  GLU66      -0.2867
     33  CB        -3.4880   -6.9090  -11.1160 C.3    66  GLU66       0.0388
     34  CG        -4.1970   -5.8120  -11.9050 C.3    66  GLU66       0.1160
     35  CD        -4.2260   -6.0470  -13.4040 C.2    66  GLU66       0.3649
     36  OE1       -3.9870   -5.0660  -14.1330 O.co2  66  GLU66      -0.2457
     37  OE2       -4.5210   -7.1860  -13.8560 O.co2  66  GLU66      -0.2457
     38  N         -2.0660   -1.7360   -8.3180 N.3    70  LEU70      -0.1245
     39  CA        -2.6010   -0.5180   -8.9510 C.3    70  LEU70       0.1561
     40  C         -3.0960    0.5300   -7.9230 C.2    70  LEU70       0.2260
     41  O         -2.7700    1.6970   -8.0530 O.2    70  LEU70      -0.2867
     42  CB        -3.6130   -0.8070  -10.0360 C.3    70  LEU70       0.0270
     43  CG        -3.0680   -1.3800  -11.3480 C.3    70  LEU70       0.0019
     44  CD1       -4.2100   -1.8620  -12.2640 C.3    70  LEU70       0.0001
     45  CD2       -2.1880   -0.3480  -12.0840 C.3    70  LEU70       0.0001
     46  N          1.8620    3.9040  -13.8790 N.3    79  ILE79      -0.1245
     47  CA         0.4200    3.7330  -14.0810 C.3    79  ILE79       0.1561
     48  C         -0.2980    3.8080  -12.7480 C.2    79  ILE79       0.2260
     49  O          0.1340    3.2190  -11.7650 O.2    79  ILE79      -0.2867
     50  CB         0.0830    2.4010  -14.8150 C.3    79  ILE79       0.0252
     51  CG1       -1.4150    2.2650  -15.0370 C.3    79  ILE79       0.0019
     52  CG2        0.6100    1.1580  -14.0360 C.3    79  ILE79       0.0019
     53  CD1       -1.7140    1.6040  -16.3250 C.3    79  ILE79       0.0001
     54  N        -10.8630   -2.0360  -14.6710 N.3    99  LEU99      -0.1245
     55  CA        -9.8860   -1.0650  -14.1690 C.3    99  LEU99       0.1561
     56  C         -9.8100    0.1210  -15.1440 C.2    99  LEU99       0.2260
     57  O         -9.8170   -0.0930  -16.3560 O.2    99  LEU99      -0.2867
     58  CB        -8.5030   -1.7250  -14.1130 C.3    99  LEU99       0.0270
     59  CG        -8.4850   -3.0540  -13.2950 C.3    99  LEU99       0.0019
     60  CD1       -7.1990   -3.8450  -13.5140 C.3    99  LEU99       0.0001
     61  CD2       -8.6570   -2.8120  -11.8320 C.3    99  LEU99       0.0001
     62  N         -7.5630    3.6610  -16.1910 N.3   101  THR101     -0.1203
     63  CA        -6.3180    4.4190  -16.0630 C.3   101  THR101      0.1994
     64  C         -6.2490    5.4470  -17.1960 C.2   101  THR101      0.2618
     65  O         -6.9780    5.3100  -18.1940 O.2   101  THR101     -0.2717
     66  CB        -5.1070    3.4710  -16.2120 C.3   101  THR101      0.1784
     67  OG1       -5.1310    2.8810  -17.5170 O.3   101  THR101     -0.2211
     68  CG2       -5.1440    2.3520  -15.1610 C.3   101  THR101      0.0376
     69  N         -5.3370    6.4150  -17.0790 N.am  102  HIS102     -0.1961
     70  CA        -5.1110    7.3710  -18.1720 C.3   102  HIS102      0.1787
     71  C         -4.7140    6.6490  -19.4410 C.2   102  HIS102      0.2620
     72  O         -3.8910    5.7430  -19.4030 O.2   102  HIS102     -0.2715
     73  CB        -3.9990    8.3620  -17.8410 C.3   102  HIS102      0.0785
     74  CG        -4.3650    9.3690  -16.7990 C.ar  102  HIS102      0.0821
     75  ND1       -3.6230    9.5460  -15.6470 N.ar  102  HIS102     -0.2267
     76  CD2       -5.3840   10.2550  -16.7300 C.ar  102  HIS102      0.1154
     77  CE1       -4.1840   10.4820  -14.9040 C.ar  102  HIS102      0.1986
     78  NE2       -5.2530   10.9280  -15.5380 N.ar  102  HIS102     -0.2212
     79  N         -5.2850    7.0530  -20.5660 N.am  103  LEU103     -0.1963
     80  CA        -4.8130    6.5750  -21.8610 C.3   103  LEU103      0.1728
     81  C         -3.5570    7.3640  -22.2210 C.2   103  LEU103      0.2616
     82  O         -3.5000    8.5880  -22.0500 O.2   103  LEU103     -0.2715
     83  CB        -5.9000    6.7800  -22.9170 C.3   103  LEU103      0.0311
     84  CG        -5.8020    6.2130  -24.3300 C.3   103  LEU103      0.0022
     85  CD1       -5.9040    4.6700  -24.3530 C.3   103  LEU103      0.0001
     86  CD2       -6.9230    6.8140  -25.1550 C.3   103  LEU103      0.0001
     87  N         -2.5400    6.6580  -22.6850 N.am  104  MET104     -0.1977
     88  CA        -1.2760    7.2880  -23.0300 C.3   104  MET104      0.1605
     89  C         -1.0800    7.0590  -24.5050 C.2   104  MET104      0.2287
     90  O         -1.4760    6.0060  -25.0290 O.2   104  MET104     -0.2864
     91  CB        -0.1080    6.6690  -22.2490 C.3   104  MET104      0.0413
     92  CG        -0.2530    6.6600  -20.7210 C.3   104  MET104      0.0598
     93  SD         0.2260    8.2370  -19.9880 S.3   104  MET104     -0.1393
     94  CE         1.9980    8.2680  -20.2970 C.3   104  MET104      0.0692
     95  N          1.2640    6.1440  -26.9870 N.3   106  ALA106     -0.1245
     96  CA         1.7500    4.9090  -27.5890 C.3   106  ALA106      0.1562
     97  C          2.6400    4.1800  -26.5800 C.2   106  ALA106      0.2260
     98  O          2.5520    4.4320  -25.3780 O.2   106  ALA106     -0.2867
     99  CB         2.5280    5.2250  -28.8920 C.3   106  ALA106      0.0290
    100  N          4.6230    3.2000  -21.3050 N.3   152  ALA152     -0.1245
    101  CA         3.6670    4.0450  -22.0390 C.3   152  ALA152      0.1562
    102  C          4.2030    5.4670  -22.1550 C.2   152  ALA152      0.2260
    103  O          4.5450    6.1240  -21.1580 O.2   152  ALA152     -0.2867
    104  CB         2.3060    4.0440  -21.3450 C.3   152  ALA152      0.0290
    105  N          4.1360    0.6190  -16.8530 N.3   162  LEU162     -0.1231
    106  CA         3.0210   -0.2640  -16.5230 C.3   162  LEU162      0.1693
    107  C          3.3970   -1.7370  -16.4790 C.2   162  LEU162      0.2592
    108  O          4.5630   -2.1100  -16.5780 O.2   162  LEU162     -0.2718
    109  CB         1.8530   -0.0440  -17.4710 C.3   162  LEU162      0.0284
    110  CG         2.2080    0.0840  -18.9400 C.3   162  LEU162      0.0019
    111  CD1        1.4490   -0.9240  -19.7770 C.3   162  LEU162      0.0001
    112  CD2        1.8660    1.4540  -19.3460 C.3   162  LEU162      0.0001
    113  N          2.3730   -2.5640  -16.3200 N.am  163  ASP163     -0.1960
    114  CA         2.4690   -4.0200  -16.4940 C.3   163  ASP163      0.1840
    115  C          1.3150   -4.3940  -17.4520 C.2   163  ASP163      0.2622
    116  O          0.2240   -3.8110  -17.3810 O.2   163  ASP163     -0.2715
    117  CB         2.3170   -4.7010  -15.1270 C.3   163  ASP163      0.1450
    118  CG         3.3890   -5.7650  -14.8470 C.2   163  ASP163      0.3671
    119  OD1        3.5070   -6.7630  -15.6020 O.co2 163  ASP163     -0.2456
    120  OD2        4.1040   -5.6210  -13.8330 O.co2 163  ASP163     -0.2456
    121  N          1.5740   -5.3170  -18.3770 N.am  164  PHE164     -0.1974
    122  CA         0.5620   -5.8330  -19.3250 C.3   164  PHE164      0.1639
    123  C          0.0710   -4.8240  -20.3800 C.2   164  PHE164      0.2290
    124  O          0.0540   -5.1230  -21.5870 O.2   164  PHE164     -0.2864
    125  CB        -0.6270   -6.4790  -18.5820 C.3   164  PHE164      0.0560
    126  CG        -0.2220   -7.5440  -17.5830 C.ar  164  PHE164     -0.0200
    127  CD1       -0.5680   -7.4160  -16.2300 C.ar  164  PHE164     -0.0042
    128  CD2        0.5180   -8.6750  -17.9920 C.ar  164  PHE164     -0.0042
    129  CE1       -0.1990   -8.3960  -15.2910 C.ar  164  PHE164     -0.0003
    130  CE2        0.9030   -9.6620  -17.0640 C.ar  164  PHE164     -0.0003
    131  CZ         0.5420   -9.5230  -15.7080 C.ar  164  PHE164     -0.0000
@<TRIPOS>BOND
     1    99    96    1
     2     4     3    2
     3     3     2    1
     4     2     1    1
     5     2     5    1
     6    96    95    1
     7    96    97    1
     8     6     5    1
     9     5     7    1
    10    97    98    2
    11    11    10    2
    12    86    84    1
    13    90    89    2
    14    89    88    1
    15    85    84    1
    16    84    83    1
    17    10     9    1
    18     8     9    1
    19    88    87    1
    20    88    91    1
    21     9    12    1
    22    83    80    1
    23    12    13    1
    24    12    14    1
    25    87    81   am
    26    91    92    1
    27    81    82    2
    28    81    80    1
    29   102   101    1
    30   102   103    2
    31   101   104    1
    32   101   100    1
    33    80    79    1
    34   124   123    2
    35    19    16    1
    36    16    15    1
    37    16    17    1
    38    92    93    1
    39    79    71   am
    40   123   122    1
    41    94    93    1
    42   111   110    1
    43    17    18    2
    44    71    72    2
    45    71    70    1
    46   112   110    1
    47   122   125    1
    48   122   121    1
    49   110   109    1
    50    21    20    1
    51    21    24    1
    52    21    22    1
    53   125   126    1
    54    25    24    1
    55    25    26    1
    56   121   115   am
    57    22    23    2
    58    65    64    2
    59    70    73    1
    60    70    69    1
    61   128   126   ar
    62   128   130   ar
    63    27    26    1
    64    27    28    1
    65    73    74    1
    66   126   127   ar
    67    67    66    1
    68   109   106    1
    69   115   116    2
    70   115   114    1
    71    64    69   am
    72    64    63    1
    73   130   131   ar
    74   105   106    1
    75    74    76   ar
    76    74    75   ar
    77    76    78   ar
    78   108   107    2
    79   106   107    1
    80   114   113    1
    81   114   117    1
    82   107   113   am
    83    57    56    2
    84    53    51    1
    85   127   129   ar
    86    66    63    1
    87    66    68    1
    88    62    63    1
    89   131   129   ar
    90    75    77   ar
    91   119   118   ar
    92    78    77   ar
    93    56    55    1
    94   117   118    1
    95    51    50    1
    96   118   120   ar
    97    50    47    1
    98    50    52    1
    99    54    55    1
   100    55    58    1
   101    36    35   ar
   102    58    59    1
   103    47    46    1
   104    47    48    1
   105    37    35   ar
   106    60    59    1
   107    35    34    1
   108    59    61    1
   109    48    49    2
   110    44    43    1
   111    45    43    1
   112    34    33    1
   113    43    42    1
   114    33    30    1
   115    42    39    1
   116    30    31    1
   117    30    29    1
   118    32    31    2
   119    39    38    1
   120    39    40    1
   121    41    40    2
