@<TRIPOS>MOLECULE
tmp/4eh8A01.pdb
 126 120 0 0 0
SMALL
GASTEIGER

@<TRIPOS>ATOM
      1  N         -9.9120   -1.4180  -18.7520 N.3    48  LYS48      -0.1245
      2  CA        -9.5350   -2.8070  -18.9300 C.3    48  LYS48       0.1561
      3  C        -10.5620   -3.7000  -18.2490 C.2    48  LYS48       0.2260
      4  O        -10.7790   -3.5850  -17.0340 O.2    48  LYS48      -0.2867
      5  CB        -8.1780   -3.0690  -18.2770 C.3    48  LYS48       0.0271
      6  CG        -7.5700   -4.4410  -18.5350 C.3    48  LYS48       0.0035
      7  CD        -6.4130   -4.6670  -17.5680 C.3    48  LYS48       0.0206
      8  CE        -5.6050   -5.8880  -17.9310 C.3    48  LYS48       0.1093
      9  NZ        -4.3990   -5.9660  -17.0610 N.3    48  LYS48      -0.1314
     10  N         -2.9040   -7.5520   -8.8380 N.3    66  GLU66      -0.1245
     11  CA        -2.9380   -6.4350   -9.7610 C.3    66  GLU66       0.1567
     12  C         -3.7700   -5.2440   -9.1900 C.2    66  GLU66       0.2260
     13  O         -3.3420   -4.0900   -9.2610 O.2    66  GLU66      -0.2867
     14  CB        -3.4880   -6.9090  -11.1160 C.3    66  GLU66       0.0388
     15  CG        -4.1970   -5.8120  -11.9050 C.3    66  GLU66       0.1160
     16  CD        -4.2260   -6.0470  -13.4040 C.2    66  GLU66       0.3649
     17  OE1       -3.9870   -5.0660  -14.1330 O.co2  66  GLU66      -0.2457
     18  OE2       -4.5210   -7.1860  -13.8560 O.co2  66  GLU66      -0.2457
     19  N         -1.6880   -3.7040   -6.3820 N.3    69  LEU69      -0.1231
     20  CA        -0.5220   -2.9750   -6.8950 C.3    69  LEU69       0.1693
     21  C         -0.9870   -1.6740   -7.5170 C.2    69  LEU69       0.2591
     22  O         -0.3860   -0.6300   -7.2520 O.2    69  LEU69      -0.2718
     23  CB         0.3010   -3.7690   -7.9220 C.3    69  LEU69       0.0284
     24  CG         1.1240   -5.0220   -7.4680 C.3    69  LEU69       0.0019
     25  CD1        1.5040   -5.9860   -8.6770 C.3    69  LEU69       0.0001
     26  CD2        2.3950   -4.6310   -6.7620 C.3    69  LEU69       0.0001
     27  N         -2.0660   -1.7360   -8.3180 N.am   70  LEU70      -0.1980
     28  CA        -2.6010   -0.5180   -8.9510 C.3    70  LEU70       0.1596
     29  C         -3.0960    0.5300   -7.9230 C.2    70  LEU70       0.2287
     30  O         -2.7700    1.6970   -8.0530 O.2    70  LEU70      -0.2864
     31  CB        -3.6130   -0.8070  -10.0360 C.3    70  LEU70       0.0297
     32  CG        -3.0680   -1.3800  -11.3480 C.3    70  LEU70       0.0022
     33  CD1       -4.2100   -1.8620  -12.2640 C.3    70  LEU70       0.0001
     34  CD2       -2.1880   -0.3480  -12.0840 C.3    70  LEU70       0.0001
     35  N         -0.0300    2.5920   -6.4240 N.3    73  MET73      -0.1245
     36  CA         0.8710    3.4090   -7.2190 C.3    73  MET73       0.1570
     37  C          0.3250    4.8240   -7.4140 C.2    73  MET73       0.2261
     38  O         -0.6570    5.0230   -8.1180 O.2    73  MET73      -0.2867
     39  CB         1.0870    2.7810   -8.5790 C.3    73  MET73       0.0387
     40  CG         1.5800    1.3530   -8.5080 C.3    73  MET73       0.0595
     41  SD         3.2320    1.1620   -7.8300 S.3    73  MET73      -0.1393
     42  CE         2.9280    0.9560   -6.0930 C.3    73  MET73       0.0692
     43  N          4.4640    6.1710  -12.9970 N.3    78  VAL78      -0.1231
     44  CA         3.8860    4.8230  -12.9020 C.3    78  VAL78       0.1692
     45  C          2.3700    4.8710  -13.1150 C.2    78  VAL78       0.2591
     46  O          1.6730    5.7180  -12.5300 O.2    78  VAL78      -0.2718
     47  CB         4.2000    4.2050  -11.5170 C.3    78  VAL78       0.0266
     48  CG1        3.6320    2.7540  -11.4020 C.3    78  VAL78       0.0020
     49  CG2        5.6900    4.2290  -11.2670 C.3    78  VAL78       0.0020
     50  N          1.8620    3.9040  -13.8790 N.am   79  ILE79      -0.1980
     51  CA         0.4200    3.7330  -14.0810 C.3    79  ILE79       0.1595
     52  C         -0.2980    3.8080  -12.7480 C.2    79  ILE79       0.2287
     53  O          0.1340    3.2190  -11.7650 O.2    79  ILE79      -0.2864
     54  CB         0.0830    2.4010  -14.8150 C.3    79  ILE79       0.0276
     55  CG1       -1.4150    2.2650  -15.0370 C.3    79  ILE79       0.0022
     56  CG2        0.6100    1.1580  -14.0360 C.3    79  ILE79       0.0022
     57  CD1       -1.7140    1.6040  -16.3250 C.3    79  ILE79       0.0001
     58  N          9.0230    2.4640   -7.1930 N.3   136  ILE136     -0.1245
     59  CA         8.4800    1.0940   -7.1130 C.3   136  ILE136      0.1561
     60  C          9.3810    0.2580   -6.1640 C.2   136  ILE136      0.2260
     61  O          8.8950   -0.3910   -5.2540 O.2   136  ILE136     -0.2867
     62  CB         8.4040    0.4910   -8.5470 C.3   136  ILE136      0.0252
     63  CG1        7.2870    1.1950   -9.3720 C.3   136  ILE136      0.0019
     64  CG2        8.2390   -1.0490   -8.4880 C.3   136  ILE136      0.0019
     65  CD1        7.4570    0.9740  -10.9090 C.3   136  ILE136      0.0001
     66  N          8.7440   -3.5880   -4.1860 N.3   141  ILE141     -0.1231
     67  CA         8.1540   -4.2020   -5.3650 C.3   141  ILE141      0.1692
     68  C          9.2190   -4.2740   -6.4570 C.2   141  ILE141      0.2592
     69  O         10.0350   -3.3540   -6.6570 O.2   141  ILE141     -0.2718
     70  CB         6.8900   -3.3720   -5.8510 C.3   141  ILE141      0.0266
     71  CG1        5.8250   -3.3230   -4.7710 C.3   141  ILE141      0.0019
     72  CG2        6.2000   -4.0210   -7.0470 C.3   141  ILE141      0.0020
     73  CD1        4.8190   -2.2570   -4.9640 C.3   141  ILE141      0.0001
     74  N          9.2180   -5.3800   -7.1690 N.am  142  ILE142     -0.1966
     75  CA        10.1670   -5.6130   -8.2150 C.3   142  ILE142      0.1727
     76  C          9.2720   -5.7970   -9.4140 C.2   142  ILE142      0.2616
     77  O          8.3230   -6.5510   -9.3480 O.2   142  ILE142     -0.2715
     78  CB        10.9500   -6.9470   -7.9550 C.3   142  ILE142      0.0290
     79  CG1       11.7680   -6.8690   -6.6430 C.3   142  ILE142      0.0022
     80  CG2       11.7720   -7.3270   -9.1670 C.3   142  ILE142      0.0023
     81  CD1       12.5410   -8.1750   -6.2630 C.3   142  ILE142      0.0001
     82  N          9.5540   -5.1120  -10.5090 N.am  143  HIS143     -0.1973
     83  CA         8.6490   -5.1570  -11.6420 C.3   143  HIS143      0.1656
     84  C          8.7320   -6.5020  -12.3740 C.2   143  HIS143      0.2291
     85  O          7.6960   -7.1220  -12.6440 O.2   143  HIS143     -0.2864
     86  CB         8.9140   -3.9890  -12.5960 C.3   143  HIS143      0.0771
     87  CG         7.9740   -3.9370  -13.7540 C.ar  143  HIS143      0.0820
     88  ND1        7.0490   -2.9140  -13.9220 N.ar  143  HIS143     -0.2267
     89  CD2        7.7930   -4.7840  -14.7910 C.ar  143  HIS143      0.1154
     90  CE1        6.3540   -3.1320  -15.0210 C.ar  143  HIS143      0.1986
     91  NE2        6.7810   -4.2590  -15.5660 N.ar  143  HIS143     -0.2212
     92  N          5.4680    3.7150  -16.3260 N.3   161  ILE161     -0.1231
     93  CA         5.7190    2.3120  -16.2630 C.3   161  ILE161      0.1692
     94  C          4.3910    1.6250  -16.0470 C.2   161  ILE161      0.2592
     95  O          3.5980    1.9940  -15.1520 O.2   161  ILE161     -0.2718
     96  CB         6.6380    1.9770  -15.0730 C.3   161  ILE161      0.0266
     97  CG1        8.0340    2.5500  -15.3120 C.3   161  ILE161      0.0019
     98  CG2        6.6920    0.4420  -14.8670 C.3   161  ILE161      0.0020
     99  CD1        9.0550    2.2830  -14.1770 C.3   161  ILE161      0.0001
    100  N          4.1360    0.6190  -16.8530 N.am  162  LEU162     -0.1966
    101  CA         3.0210   -0.2640  -16.5230 C.3   162  LEU162      0.1728
    102  C          3.3970   -1.7370  -16.4790 C.2   162  LEU162      0.2616
    103  O          4.5630   -2.1100  -16.5780 O.2   162  LEU162     -0.2715
    104  CB         1.8530   -0.0440  -17.4710 C.3   162  LEU162      0.0311
    105  CG         2.2080    0.0840  -18.9400 C.3   162  LEU162      0.0022
    106  CD1        1.4490   -0.9240  -19.7770 C.3   162  LEU162      0.0001
    107  CD2        1.8660    1.4540  -19.3460 C.3   162  LEU162      0.0001
    108  N          2.3730   -2.5640  -16.3200 N.am  163  ASP163     -0.1957
    109  CA         2.4690   -4.0200  -16.4940 C.3   163  ASP163      0.1840
    110  C          1.3150   -4.3940  -17.4520 C.2   163  ASP163      0.2622
    111  O          0.2240   -3.8110  -17.3810 O.2   163  ASP163     -0.2715
    112  CB         2.3170   -4.7010  -15.1270 C.3   163  ASP163      0.1450
    113  CG         3.3890   -5.7650  -14.8470 C.2   163  ASP163      0.3671
    114  OD1        3.5070   -6.7630  -15.6020 O.co2 163  ASP163     -0.2456
    115  OD2        4.1040   -5.6210  -13.8330 O.co2 163  ASP163     -0.2456
    116  N          1.5740   -5.3170  -18.3770 N.am  164  PHE164     -0.1974
    117  CA         0.5620   -5.8330  -19.3250 C.3   164  PHE164      0.1639
    118  C          0.0710   -4.8240  -20.3800 C.2   164  PHE164      0.2290
    119  O          0.0540   -5.1230  -21.5870 O.2   164  PHE164     -0.2864
    120  CB        -0.6270   -6.4790  -18.5820 C.3   164  PHE164      0.0560
    121  CG        -0.2220   -7.5440  -17.5830 C.ar  164  PHE164     -0.0200
    122  CD1       -0.5680   -7.4160  -16.2300 C.ar  164  PHE164     -0.0042
    123  CD2        0.5180   -8.6750  -17.9920 C.ar  164  PHE164     -0.0042
    124  CE1       -0.1990   -8.3960  -15.2910 C.ar  164  PHE164     -0.0003
    125  CE2        0.9030   -9.6620  -17.0640 C.ar  164  PHE164     -0.0003
    126  CZ         0.5420   -9.5230  -15.7080 C.ar  164  PHE164     -0.0000
@<TRIPOS>BOND
     1   119   118    2
     2   118   117    1
     3   106   105    1
     4   107   105    1
     5   117   120    1
     6   117   116    1
     7   105   104    1
     8     2     1    1
     9     2     5    1
    10     2     3    1
    11   120   121    1
    12     6     5    1
    13     6     7    1
    14   116   110   am
    15     3     4    2
    16   123   121   ar
    17   123   125   ar
    18     8     7    1
    19     8     9    1
    20   121   122   ar
    21   104   101    1
    22   110   111    2
    23   110   109    1
    24   125   126   ar
    25   100   101    1
    26   100    94   am
    27   103   102    2
    28   101   102    1
    29   109   108    1
    30   109   112    1
    31   102   108   am
    32    92    93    1
    33    57    55    1
    34    93    94    1
    35    93    96    1
    36   122   124   ar
    37    94    95    2
    38   126   124   ar
    39   114   113   ar
    40    91    90   ar
    41    91    89   ar
    42    97    96    1
    43    97    99    1
    44   112   113    1
    45    96    98    1
    46    55    54    1
    47    90    88   ar
    48   113   115   ar
    49    54    51    1
    50    54    56    1
    51    89    87   ar
    52    17    16   ar
    53    51    50    1
    54    51    52    1
    55    88    87   ar
    56    50    45   am
    57    18    16   ar
    58    87    86    1
    59    16    15    1
    60    45    44    1
    61    45    46    2
    62    43    44    1
    63    44    47    1
    64    52    53    2
    65    85    84    2
    66    86    83    1
    67    84    83    1
    68    33    32    1
    69    34    32    1
    70    15    14    1
    71    83    82    1
    72    47    48    1
    73    47    49    1
    74    32    31    1
    75    14    11    1
    76    65    63    1
    77    82    76   am
    78    31    28    1
    79    11    12    1
    80    11    10    1
    81    76    77    2
    82    76    75    1
    83    63    62    1
    84    13    12    2
    85    80    78    1
    86    28    27    1
    87    28    29    1
    88    25    24    1
    89    39    40    1
    90    39    36    1
    91    62    64    1
    92    62    59    1
    93    40    41    1
    94    27    21   am
    95    75    78    1
    96    75    74    1
    97    38    37    2
    98    30    29    2
    99    78    79    1
   100    23    24    1
   101    23    20    1
   102    41    42    1
   103    21    22    2
   104    21    20    1
   105    24    26    1
   106    37    36    1
   107    36    35    1
   108    58    59    1
   109    74    68   am
   110    59    60    1
   111    72    70    1
   112    20    19    1
   113    69    68    2
   114    79    81    1
   115    68    67    1
   116    60    61    2
   117    70    67    1
   118    70    71    1
   119    67    66    1
   120    73    71    1
