@<TRIPOS>MOLECULE
tmp/4eh9A01.pdb
 181 174 0 0 0
SMALL
GASTEIGER

@<TRIPOS>ATOM
      1  N          3.7850  -12.0160   19.9650 N.3    29  TYR29      -0.1241
      2  CA         4.3760  -11.4270   18.7620 C.3    29  TYR29       0.1605
      3  C          5.8160  -10.9210   18.9530 C.2    29  TYR29       0.2264
      4  O          6.6430  -11.0430   18.0500 O.2    29  TYR29      -0.2867
      5  CB         3.4690  -10.3250   18.2050 C.3    29  TYR29       0.0534
      6  CG         2.0840  -10.8150   17.7330 C.ar   29  TYR29      -0.0201
      7  CD1        1.1090  -11.1520   18.6480 C.ar   29  TYR29      -0.0009
      8  CD2        1.8210  -10.8670   16.3750 C.ar   29  TYR29      -0.0009
      9  CE1       -0.1540  -11.5860   18.2060 C.ar   29  TYR29       0.0417
     10  CE2        0.5710  -11.3020   15.9380 C.ar   29  TYR29       0.0417
     11  CZ        -0.3850  -11.6320   16.8500 C.ar   29  TYR29       0.1957
     12  OH        -1.6340  -12.0450   16.3990 O.3    29  TYR29      -0.2866
     13  N          3.5210  -14.2530    8.8170 N.3    61  ARG61      -0.1245
     14  CA         3.0300  -13.3370    9.8460 C.3    61  ARG61       0.1563
     15  C          3.8820  -12.0630    9.9330 C.2    61  ARG61       0.2260
     16  O          3.3460  -10.9490    9.9630 O.2    61  ARG61      -0.2867
     17  CB         2.9590  -14.0550   11.1970 C.3    61  ARG61       0.0307
     18  CG         2.5760  -13.1790   12.3790 C.3    61  ARG61       0.0489
     19  CD         1.9730  -13.9390   13.5540 C.3    61  ARG61       0.2205
     20  NE         2.6220  -15.2120   13.8760 N.pl3  61  ARG61      -0.0865
     21  CZ         2.0050  -16.3990   13.8330 C.cat  61  ARG61       0.5346
     22  NH1        0.7210  -16.4940   13.4830 N.pl3  61  ARG61       0.1354
     23  NH2        2.6700  -17.5060   14.1470 N.pl3  61  ARG61       0.1354
     24  N          3.3940  -10.0440    6.8480 N.3    64  ARG64      -0.1231
     25  CA         2.0630   -9.4580    6.9570 C.3    64  ARG64       0.1694
     26  C          2.0640   -8.2290    7.8610 C.2    64  ARG64       0.2591
     27  O          1.5290   -7.1670    7.5030 O.2    64  ARG64      -0.2718
     28  CB         1.0190  -10.4850    7.4440 C.3    64  ARG64       0.0321
     29  CG        -0.3170   -9.8170    7.9180 C.3    64  ARG64       0.0489
     30  CD        -1.4250  -10.7930    8.4760 C.3    64  ARG64       0.2205
     31  NE        -1.5690  -11.9820    7.6430 N.pl3  64  ARG64      -0.0865
     32  CZ        -1.1790  -13.2090    7.9990 C.cat  64  ARG64       0.5346
     33  NH1       -0.6370  -13.4360    9.1850 N.pl3  64  ARG64       0.1354
     34  NH2       -1.3340  -14.2210    7.1510 N.pl3  64  ARG64       0.1354
     35  N          2.6640   -8.3850    9.0330 N.am   65  GLU65      -0.1979
     36  CA         2.8220   -7.2890    9.9980 C.3    65  GLU65       0.1602
     37  C          3.5810   -6.0650    9.4060 C.2    65  GLU65       0.2287
     38  O          3.1290   -4.9240    9.5540 O.2    65  GLU65      -0.2864
     39  CB         3.4880   -7.8240   11.2580 C.3    65  GLU65       0.0415
     40  CG         4.0650   -6.7870   12.1710 C.3    65  GLU65       0.1163
     41  CD         3.0940   -6.2520   13.1940 C.2    65  GLU65       0.3649
     42  OE1        1.8520   -6.2590   12.9550 O.co2  65  GLU65      -0.2457
     43  OE2        3.6000   -5.7940   14.2470 O.co2  65  GLU65      -0.2457
     44  N          1.3610   -4.3840    6.5620 N.3    68  LEU68      -0.1231
     45  CA         0.2670   -3.6320    7.1590 C.3    68  LEU68       0.1693
     46  C          0.7790   -2.3400    7.7960 C.2    68  LEU68       0.2591
     47  O          0.2140   -1.2790    7.5480 O.2    68  LEU68      -0.2718
     48  CB        -0.5220   -4.4650    8.1890 C.3    68  LEU68       0.0284
     49  CG        -1.3580   -5.6080    7.5910 C.3    68  LEU68       0.0019
     50  CD1       -1.8390   -6.6320    8.6520 C.3    68  LEU68       0.0001
     51  CD2       -2.5490   -5.0230    6.8250 C.3    68  LEU68       0.0001
     52  N          1.8360   -2.4310    8.6040 N.am   69  LEU69      -0.1980
     53  CA         2.3400   -1.2500    9.2980 C.3    69  LEU69       0.1596
     54  C          2.8720   -0.1740    8.3630 C.2    69  LEU69       0.2287
     55  O          2.6670    1.0160    8.6230 O.2    69  LEU69      -0.2864
     56  CB         3.3770   -1.6060   10.3610 C.3    69  LEU69       0.0297
     57  CG         2.8180   -2.2110   11.6510 C.3    69  LEU69       0.0022
     58  CD1        3.9630   -2.7460   12.4960 C.3    69  LEU69       0.0001
     59  CD2        2.0150   -1.2110   12.4490 C.3    69  LEU69       0.0001
     60  N         -0.1490    1.8770    6.8110 N.3    72  MET72      -0.1245
     61  CA        -1.0450    2.6600    7.6680 C.3    72  MET72       0.1570
     62  C         -0.5400    4.0850    7.8840 C.2    72  MET72       0.2261
     63  O          0.4710    4.2970    8.5610 O.2    72  MET72      -0.2867
     64  CB        -1.2480    1.9850    9.0260 C.3    72  MET72       0.0387
     65  CG        -1.8070    0.5840    8.9700 C.3    72  MET72       0.0595
     66  SD        -3.4820    0.4810    8.3340 S.3    72  MET72      -0.1393
     67  CE        -3.2340    0.4050    6.5760 C.3    72  MET72       0.0692
     68  N         -4.5030    5.3660   13.6020 N.3    77  VAL77      -0.1231
     69  CA        -3.9560    4.0260   13.3760 C.3    77  VAL77       0.1692
     70  C         -2.4600    4.0700   13.6150 C.2    77  VAL77       0.2591
     71  O         -1.7820    4.9650   13.1330 O.2    77  VAL77      -0.2718
     72  CB        -4.2170    3.4870   11.9320 C.3    77  VAL77       0.0266
     73  CG1       -3.7960    2.0030   11.8170 C.3    77  VAL77       0.0020
     74  CG2       -5.6590    3.6310   11.5430 C.3    77  VAL77       0.0020
     75  N         -1.9500    3.0910   14.3540 N.am   78  ILE78      -0.1980
     76  CA        -0.5110    2.9630   14.5800 C.3    78  ILE78       0.1595
     77  C          0.2600    3.0040   13.2480 C.2    78  ILE78       0.2287
     78  O         -0.1170    2.3520   12.2720 O.2    78  ILE78      -0.2864
     79  CB        -0.1980    1.6520   15.3740 C.3    78  ILE78       0.0276
     80  CG1        1.2670    1.5880   15.7940 C.3    78  ILE78       0.0022
     81  CG2       -0.6010    0.3900   14.5640 C.3    78  ILE78       0.0022
     82  CD1        1.6270    0.2570   16.5590 C.3    78  ILE78       0.0001
     83  N         -9.0980    1.9470    7.6740 N.3   132  ILE132     -0.1245
     84  CA        -8.6180    0.5470    7.5390 C.3   132  ILE132      0.1561
     85  C         -9.5460   -0.2450    6.6110 C.2   132  ILE132      0.2260
     86  O         -9.0760   -0.9180    5.6670 O.2   132  ILE132     -0.2867
     87  CB        -8.5330   -0.1480    8.9130 C.3   132  ILE132      0.0252
     88  CG1       -7.4230    0.5070    9.7580 C.3   132  ILE132      0.0019
     89  CG2       -8.2390   -1.6210    8.7500 C.3   132  ILE132      0.0019
     90  CD1       -7.3900    0.0430   11.2420 C.3   132  ILE132      0.0001
     91  N         -9.1580   -3.9860    4.4600 N.3   137  ILE137     -0.1231
     92  CA        -8.5290   -4.6840    5.5750 C.3   137  ILE137      0.1692
     93  C         -9.5460   -4.8100    6.7130 C.2   137  ILE137      0.2592
     94  O        -10.3200   -3.8720    6.9840 O.2   137  ILE137     -0.2718
     95  CB        -7.2970   -3.9190    6.0750 C.3   137  ILE137      0.0266
     96  CG1       -6.3000   -3.6940    4.9250 C.3   137  ILE137      0.0019
     97  CG2       -6.6170   -4.6490    7.2770 C.3   137  ILE137      0.0020
     98  CD1       -5.1230   -2.8090    5.3090 C.3   137  ILE137      0.0001
     99  N         -9.5540   -5.9730    7.3590 N.am  138  ILE138     -0.1966
    100  CA       -10.3770   -6.2050    8.5290 C.3   138  ILE138      0.1727
    101  C         -9.4200   -6.4210    9.6810 C.2   138  ILE138      0.2616
    102  O         -8.4460   -7.1740    9.5450 O.2   138  ILE138     -0.2715
    103  CB       -11.2920   -7.4240    8.3730 C.3   138  ILE138      0.0290
    104  CG1      -12.2520   -7.2200    7.1940 C.3   138  ILE138      0.0022
    105  CG2      -12.0380   -7.6800    9.7000 C.3   138  ILE138      0.0023
    106  CD1      -12.8920   -8.4960    6.6310 C.3   138  ILE138      0.0001
    107  N         -9.6720   -5.7340   10.7960 N.am  139  HIS139     -0.1959
    108  CA        -8.7840   -5.8400   11.9660 C.3   139  HIS139      0.1787
    109  C         -8.9300   -7.2160   12.6340 C.2   139  HIS139      0.2620
    110  O         -7.9410   -7.8810   12.8630 O.2   139  HIS139     -0.2715
    111  CB        -9.0430   -4.7410   13.0140 C.3   139  HIS139      0.0785
    112  CG        -8.0710   -4.7750   14.1540 C.ar  139  HIS139      0.0821
    113  ND1       -7.0240   -3.8760   14.2720 N.ar  139  HIS139     -0.2267
    114  CD2       -7.9450   -5.6390   15.1870 C.ar  139  HIS139      0.1154
    115  CE1       -6.3090   -4.1820   15.3420 C.ar  139  HIS139      0.1986
    116  NE2       -6.8510   -5.2420   15.9190 N.ar  139  HIS139     -0.2212
    117  N        -10.1550   -7.6040   12.9780 N.am  140  ARG140     -0.1963
    118  CA       -10.4370   -8.9530   13.4830 C.3   140  ARG140      0.1729
    119  C        -10.1590   -9.1760   14.9760 C.2   140  ARG140      0.2616
    120  O        -10.6790  -10.1310   15.5440 O.2   140  ARG140     -0.2715
    121  CB        -9.6450  -10.0220   12.6920 C.3   140  ARG140      0.0348
    122  CG       -10.1090  -10.2680   11.2510 C.3   140  ARG140      0.0492
    123  CD        -9.2110  -11.2810   10.5110 C.3   140  ARG140      0.2205
    124  NE        -9.6690  -11.4670    9.1310 N.pl3 140  ARG140     -0.0865
    125  CZ        -9.2090  -10.7960    8.0760 C.cat 140  ARG140      0.5346
    126  NH1       -8.2410   -9.8950    8.2210 N.pl3 140  ARG140      0.1354
    127  NH2       -9.7170  -11.0310    6.8680 N.pl3 140  ARG140      0.1354
    128  N         -9.3120   -8.3470   15.5880 N.am  141  ASP141     -0.1971
    129  CA        -8.9240   -8.5380   16.9850 C.3   141  ASP141      0.1709
    130  C         -9.0770   -7.2500   17.8230 C.2   141  ASP141      0.2293
    131  O         -8.2720   -7.0010   18.7300 O.2   141  ASP141     -0.2864
    132  CB        -7.4640   -9.0430   17.0620 C.3   141  ASP141      0.1436
    133  CG        -7.1310   -9.7130   18.4060 C.2   141  ASP141      0.3671
    134  OD1       -5.9220   -9.8010   18.7390 O.co2 141  ASP141     -0.2456
    135  OD2       -8.0730  -10.1560   19.1210 O.co2 141  ASP141     -0.2456
    136  N         -5.5190    2.8170   16.9110 N.3   157  ILE157     -0.1231
    137  CA        -5.7320    1.3700   16.7540 C.3   157  ILE157      0.1692
    138  C         -4.3680    0.6930   16.5760 C.2   157  ILE157      0.2592
    139  O         -3.5930    1.0770   15.6950 O.2   157  ILE157     -0.2718
    140  CB        -6.6750    1.0370   15.5440 C.3   157  ILE157      0.0266
    141  CG1       -8.0690    1.6590   15.7610 C.3   157  ILE157      0.0019
    142  CG2       -6.7700   -0.4980   15.3240 C.3   157  ILE157      0.0020
    143  CD1       -9.0020    1.6440   14.5210 C.3   157  ILE157      0.0001
    144  N         -4.0750   -0.2890   17.4240 N.am  158  LEU158     -0.1966
    145  CA        -2.7990   -1.0130   17.3590 C.3   158  LEU158      0.1728
    146  C         -2.8440   -2.3440   16.6090 C.2   158  LEU158      0.2616
    147  O         -3.9020   -2.9520   16.4420 O.2   158  LEU158     -0.2715
    148  CB        -2.2750   -1.3050   18.7650 C.3   158  LEU158      0.0311
    149  CG        -2.0670   -0.1200   19.6950 C.3   158  LEU158      0.0022
    150  CD1       -1.7450   -0.6420   21.0990 C.3   158  LEU158      0.0001
    151  CD2       -0.9570    0.7920   19.1520 C.3   158  LEU158      0.0001
    152  N         -1.6530   -2.7720   16.1870 N.am  159  ASP159     -0.1957
    153  CA        -1.3950   -4.1010   15.6380 C.3   159  ASP159      0.1840
    154  C         -1.6770   -5.2000   16.6700 C.2   159  ASP159      0.2622
    155  O         -2.5560   -6.0440   16.4540 O.2   159  ASP159     -0.2715
    156  CB         0.0390   -4.1940   15.0490 C.3   159  ASP159      0.1450
    157  CG         1.1320   -3.6320   15.9880 C.2   159  ASP159      0.3671
    158  OD1        0.8250   -3.0760   17.0700 O.co2 159  ASP159     -0.2456
    159  OD2        2.3270   -3.7630   15.6360 O.co2 159  ASP159     -0.2456
    160  N         -0.9550   -5.1600   17.7930 N.am  160  PHE160     -0.1974
    161  CA        -1.1190   -6.1300   18.8810 C.3   160  PHE160      0.1639
    162  C         -0.7910   -5.5360   20.2600 C.2   160  PHE160      0.2290
    163  O          0.0920   -4.6780   20.3930 O.2   160  PHE160     -0.2864
    164  CB        -0.2980   -7.4060   18.6150 C.3   160  PHE160      0.0560
    165  CG         1.1960   -7.1910   18.5800 C.ar  160  PHE160     -0.0200
    166  CD1        1.8610   -7.0310   17.3620 C.ar  160  PHE160     -0.0042
    167  CD2        1.9480   -7.1870   19.7650 C.ar  160  PHE160     -0.0042
    168  CE1        3.2430   -6.8510   17.3210 C.ar  160  PHE160     -0.0003
    169  CE2        3.3390   -6.9990   19.7400 C.ar  160  PHE160     -0.0003
    170  CZ         3.9880   -6.8330   18.5130 C.ar  160  PHE160     -0.0000
    171  N        -15.5300  -10.6230   20.3060 N.3   169  ARG169     -0.1245
    172  CA       -15.6100  -11.2890   19.0090 C.3   169  ARG169      0.1563
    173  C        -17.0240  -11.3500   18.4670 C.2   169  ARG169      0.2260
    174  O        -17.9320  -11.7410   19.1730 O.2   169  ARG169     -0.2867
    175  CB       -15.0410  -12.7080   19.1170 C.3   169  ARG169      0.0307
    176  CG       -13.5430  -12.7890   18.9250 C.3   169  ARG169      0.0489
    177  CD       -13.2110  -13.0890   17.4700 C.3   169  ARG169      0.2205
    178  NE       -11.9260  -12.5100   17.0810 N.pl3 169  ARG169     -0.0865
    179  CZ       -10.7610  -13.1470   17.1470 C.cat 169  ARG169      0.5346
    180  NH1      -10.7020  -14.4050   17.5780 N.pl3 169  ARG169      0.1354
    181  NH2       -9.6520  -12.5210   16.7820 N.pl3 169  ARG169      0.1354
@<TRIPOS>BOND
     1    91    92    1
     2    96    98    1
     3    96    95    1
     4    92    95    1
     5    92    93    1
     6    86    85    2
     7    95    97    1
     8    44    45    1
     9    67    66    1
    10    85    84    1
    11   106   104    1
    12    93    94    2
    13    93    99   am
    14    60    61    1
    15    51    49    1
    16    24    25    1
    17   127   125    1
    18    25    28    1
    19    25    26    1
    20    34    32    1
    21    45    46    1
    22    45    48    1
    23   104   103    1
    24    99   100    1
    25    28    29    1
    26    27    26    2
    27    84    83    1
    28    84    87    1
    29    47    46    2
    30    49    48    1
    31    49    50    1
    32    31    32    2
    33    31    30    1
    34    61    62    1
    35    61    64    1
    36    46    52   am
    37    26    35   am
    38    62    63    2
    39    29    30    1
    40    32    33    1
    41   125   126    1
    42   125   124    2
    43    66    65    1
    44    54    55    2
    45    54    53    1
    46   103   100    1
    47   103   105    1
    48   100   101    1
    49    52    53    1
    50    89    87    1
    51    13    14    1
    52    87    88    1
    53    65    64    1
    54    35    36    1
    55   124   123    1
    56    53    56    1
    57    37    38    2
    58    37    36    1
    59   102   101    2
    60   101   107   am
    61    88    90    1
    62    14    15    1
    63    14    17    1
    64    15    16    2
    65    36    39    1
    66    56    57    1
    67   123   122    1
    68   107   108    1
    69    17    18    1
    70   122   121    1
    71    39    40    1
    72    74    72    1
    73    57    59    1
    74    57    58    1
    75    73    72    1
    76    72    69    1
    77   108   109    1
    78   108   111    1
    79    40    41    1
    80    78    77    2
    81    18    19    1
    82   109   110    2
    83   109   117   am
    84   121   118    1
    85    42    41   ar
    86   117   118    1
    87   111   112    1
    88    71    70    2
    89    41    43   ar
    90    77    76    1
    91    69    68    1
    92    69    70    1
    93   118   119    1
    94    22    21    1
    95    19    20    1
    96    70    75   am
    97    21    20    2
    98    21    23    1
    99   112   113   ar
   100   112   114   ar
   101   113   115   ar
   102    75    76    1
   103   143   141    1
   104    81    79    1
   105    76    79    1
   106   119   120    2
   107   119   128   am
   108   156   153    1
   109   156   157    1
   110   114   116   ar
   111   142   140    1
   112   115   116   ar
   113    79    80    1
   114   140   141    1
   115   140   137    1
   116   128   129    1
   117   159   157   ar
   118   153   152    1
   119   153   154    1
   120   139   138    2
   121    80    82    1
   122    10     8   ar
   123    10    11   ar
   124   157   158   ar
   125   152   146   am
   126     8     6   ar
   127    12    11    1
   128   147   146    2
   129   155   154    2
   130   138   137    1
   131   138   144   am
   132   146   145    1
   133   154   160   am
   134   137   136    1
   135   181   179    1
   136    11     9   ar
   137   129   132    1
   138   129   130    1
   139   132   133    1
   140   178   179    2
   141   178   177    1
   142   179   180    1
   143   168   166   ar
   144   168   170   ar
   145   145   144    1
   146   145   148    1
   147   166   165   ar
   148   177   176    1
   149     6     5    1
   150     6     7   ar
   151   160   161    1
   152   130   131    2
   153     4     3    2
   154     5     2    1
   155     9     7   ar
   156   133   134   ar
   157   133   135   ar
   158   173   172    1
   159   173   174    2
   160   170   169   ar
   161   165   164    1
   162   165   167   ar
   163   164   161    1
   164     2     3    1
   165     2     1    1
   166   148   149    1
   167   161   162    1
   168   176   175    1
   169   172   175    1
   170   172   171    1
   171   151   149    1
   172   149   150    1
   173   169   167   ar
   174   162   163    2
