@<TRIPOS>MOLECULE
tmp/4ehbA00.pdb
 151 149 0 0 0
SMALL
GASTEIGER

@<TRIPOS>ATOM
      1  N         22.0170   15.5570  -23.0980 N.3    39  PHE39      -0.1241
      2  CA        22.1100   16.2760  -21.8320 C.3    39  PHE39       0.1605
      3  C         20.7700   16.5060  -21.1300 C.2    39  PHE39       0.2264
      4  O         19.7740   16.8370  -21.7650 O.2    39  PHE39      -0.2867
      5  CB        22.8380   17.6240  -21.9980 C.3    39  PHE39       0.0534
      6  CG        22.7600   18.4780  -20.7740 C.ar   39  PHE39      -0.0203
      7  CD1       23.5780   18.2270  -19.6880 C.ar   39  PHE39      -0.0042
      8  CD2       21.8180   19.4930  -20.6800 C.ar   39  PHE39      -0.0042
      9  CE1       23.4790   18.9930  -18.5380 C.ar   39  PHE39      -0.0003
     10  CE2       21.7190   20.2610  -19.5290 C.ar   39  PHE39      -0.0003
     11  CZ        22.5420   20.0120  -18.4710 C.ar   39  PHE39      -0.0000
     12  N         21.2000   15.2670  -28.9870 N.3   105  SER105     -0.1202
     13  CA        21.9920   16.1080  -28.0910 C.3   105  SER105      0.2020
     14  C         23.4180   15.5410  -27.9880 C.2   105  SER105      0.2618
     15  O         24.0030   15.1550  -29.0050 O.2   105  SER105     -0.2717
     16  CB        21.2980   16.1800  -26.7170 C.3   105  SER105      0.2103
     17  OG        22.0550   16.9070  -25.7640 O.3   105  SER105     -0.2182
     18  N         23.9730   15.4620  -26.7780 N.am  106  ILE106     -0.1979
     19  CA        25.3590   15.0180  -26.6310 C.3   106  ILE106      0.1595
     20  C         25.5620   13.5300  -26.9490 C.2   106  ILE106      0.2287
     21  O         26.6950   13.0440  -27.0330 O.2   106  ILE106     -0.2864
     22  CB        25.9800   15.3990  -25.2580 C.3   106  ILE106      0.0276
     23  CG1       25.3300   14.6240  -24.1200 C.3   106  ILE106      0.0022
     24  CG2       25.8890   16.9170  -25.0230 C.3   106  ILE106      0.0022
     25  CD1       26.1040   14.7260  -22.7950 C.3   106  ILE106      0.0001
     26  N         27.7050   13.6350  -29.8930 N.3   109  TRP109     -0.1241
     27  CA        29.1110   13.8310  -29.5750 C.3   109  TRP109      0.1605
     28  C         29.7480   12.4970  -29.2170 C.2   109  TRP109      0.2264
     29  O         30.9080   12.2260  -29.5570 O.2   109  TRP109     -0.2867
     30  CB        29.2650   14.7520  -28.3650 C.3   109  TRP109      0.0550
     31  CG        28.6560   16.1070  -28.5140 C.ar  109  TRP109      0.0003
     32  CD1       27.9970   16.6040  -29.6020 C.ar  109  TRP109      0.0946
     33  CD2       28.6380   17.1330  -27.5270 C.ar  109  TRP109      0.0152
     34  NE1       27.5760   17.8850  -29.3490 N.ar  109  TRP109     -0.2442
     35  CE2       27.9600   18.2340  -28.0810 C.ar  109  TRP109      0.0810
     36  CE3       29.1310   17.2300  -26.2210 C.ar  109  TRP109      0.0012
     37  CZ2       27.7630   19.4190  -27.3770 C.ar  109  TRP109      0.0191
     38  CZ3       28.9480   18.4060  -25.5310 C.ar  109  TRP109      0.0001
     39  CH2       28.2640   19.4860  -26.1090 C.ar  109  TRP109      0.0015
     40  N         19.2210   17.2680  -33.1700 N.3   129  GLU129     -0.1231
     41  CA        19.3070   18.3170  -32.1630 C.3   129  GLU129      0.1699
     42  C         20.6390   18.4130  -31.4080 C.2   129  GLU129      0.2592
     43  O         20.6930   18.3070  -30.1750 O.2   129  GLU129     -0.2718
     44  CB        18.1120   18.2120  -31.2070 C.3   129  GLU129      0.0402
     45  CG        16.8910   18.9230  -31.7630 C.3   129  GLU129      0.1161
     46  CD        17.1250   20.4050  -31.9170 C.2   129  GLU129      0.3649
     47  OE1       17.7890   20.9900  -31.0330 O.co2 129  GLU129     -0.2457
     48  OE2       16.6550   20.9900  -32.9150 O.co2 129  GLU129     -0.2457
     49  N         21.7010   18.6480  -32.1670 N.am  130  ALA130     -0.1966
     50  CA        22.9940   19.0180  -31.6090 C.3   130  ALA130      0.1713
     51  C         24.0310   19.0970  -32.7040 C.2   130  ALA130      0.2458
     52  O         24.0100   18.3190  -33.6500 O.2   130  ALA130     -0.2730
     53  CB        23.4420   18.0380  -30.5330 C.3   130  ALA130      0.0333
     54  N         24.9670   20.0350  -32.5650 N.am  131  PRO131     -0.2727
     55  CA        26.0640   20.0830  -33.5220 C.3   131  PRO131      0.1402
     56  C         27.0250   18.9240  -33.2710 C.2   131  PRO131      0.2269
     57  O         27.2770   18.5500  -32.1190 O.2   131  PRO131     -0.2865
     58  CB        26.7430   21.4180  -33.1940 C.3   131  PRO131      0.0296
     59  CG        26.5000   21.6040  -31.7410 C.3   131  PRO131      0.0237
     60  CD        25.1250   21.0050  -31.4730 C.3   131  PRO131      0.0939
     61  N         21.3130   29.8670  -27.9180 N.3   150  LEU150     -0.1231
     62  CA        21.1660   28.4240  -27.8780 C.3   150  LEU150      0.1693
     63  C         22.2720   27.7460  -27.0740 C.2   150  LEU150      0.2591
     64  O         22.0110   26.7770  -26.3790 O.2   150  LEU150     -0.2718
     65  CB        21.1020   27.8280  -29.2920 C.3   150  LEU150      0.0284
     66  CG        19.8440   27.9700  -30.1510 C.3   150  LEU150      0.0019
     67  CD1       20.0960   27.4030  -31.5530 C.3   150  LEU150      0.0001
     68  CD2       18.6240   27.2970  -29.5000 C.3   150  LEU150      0.0001
     69  N         23.5110   28.2320  -27.1520 N.am  151  VAL151     -0.1980
     70  CA        24.5750   27.4100  -26.5980 C.3   151  VAL151      0.1595
     71  C         25.5270   28.1160  -25.6590 C.2   151  VAL151      0.2287
     72  O         26.6570   27.6750  -25.4900 O.2   151  VAL151     -0.2864
     73  CB        25.3700   26.6440  -27.6850 C.3   151  VAL151      0.0276
     74  CG1       24.4640   25.6550  -28.4140 C.3   151  VAL151      0.0022
     75  CG2       26.0320   27.6020  -28.6460 C.3   151  VAL151      0.0022
     76  N         25.3500   27.8880  -22.6630 N.3   153  HIS153     -0.1226
     77  CA        25.6210   26.9260  -21.6090 C.3   153  HIS153      0.1752
     78  C         26.9270   26.1630  -21.8720 C.2   153  HIS153      0.2596
     79  O         27.5130   25.6040  -20.9510 O.2   153  HIS153     -0.2718
     80  CB        24.4300   25.9540  -21.4110 C.3   153  HIS153      0.0759
     81  CG        24.1640   25.0660  -22.5870 C.ar  153  HIS153      0.0818
     82  ND1       23.3870   25.4590  -23.6540 N.ar  153  HIS153     -0.2268
     83  CD2       24.5540   23.7960  -22.8560 C.ar  153  HIS153      0.1154
     84  CE1       23.3170   24.4750  -24.5330 C.ar  153  HIS153      0.1986
     85  NE2       24.0290   23.4600  -24.0800 N.ar  153  HIS153     -0.2212
     86  N         27.3840   26.1280  -23.1240 N.am  154  PHE154     -0.1976
     87  CA        28.6860   25.5140  -23.4080 C.3   154  PHE154      0.1639
     88  C         29.7540   26.1640  -22.5120 C.2   154  PHE154      0.2290
     89  O         30.5340   25.4690  -21.8690 O.2   154  PHE154     -0.2864
     90  CB        29.1090   25.6860  -24.8770 C.3   154  PHE154      0.0560
     91  CG        28.3700   24.8090  -25.8550 C.ar  154  PHE154     -0.0200
     92  CD1       27.3760   23.9460  -25.4450 C.ar  154  PHE154     -0.0042
     93  CD2       28.6850   24.8610  -27.2080 C.ar  154  PHE154     -0.0042
     94  CE1       26.7040   23.1500  -26.3620 C.ar  154  PHE154     -0.0003
     95  CE2       28.0230   24.0680  -28.1240 C.ar  154  PHE154     -0.0003
     96  CZ        27.0240   23.2120  -27.7000 C.ar  154  PHE154     -0.0000
     97  N         16.3430   25.2080  -17.9190 N.3   179  PHE179     -0.1241
     98  CA        17.1070   24.8210  -19.0870 C.3   179  PHE179      0.1605
     99  C         16.1980   24.1270  -20.1060 C.2   179  PHE179      0.2264
    100  O         16.1990   24.4520  -21.2910 O.2   179  PHE179     -0.2867
    101  CB        18.2730   23.9000  -18.6750 C.3   179  PHE179      0.0534
    102  CG        19.1710   23.5260  -19.8090 C.ar  179  PHE179     -0.0203
    103  CD1       18.9230   22.3900  -20.5620 C.ar  179  PHE179     -0.0042
    104  CD2       20.2580   24.3220  -20.1380 C.ar  179  PHE179     -0.0042
    105  CE1       19.7300   22.0570  -21.6290 C.ar  179  PHE179     -0.0003
    106  CE2       21.0750   23.9860  -21.1940 C.ar  179  PHE179     -0.0003
    107  CZ        20.8080   22.8500  -21.9390 C.ar  179  PHE179     -0.0000
    108  N         14.7130   25.8470  -23.7940 N.3   183  HIS183     -0.1241
    109  CA        15.0900   25.2210  -25.0660 C.3   183  HIS183      0.1621
    110  C         13.9190   24.4790  -25.7280 C.2   183  HIS183      0.2264
    111  O         14.1330   23.6700  -26.6360 O.2   183  HIS183     -0.2867
    112  CB        16.2630   24.2410  -24.8620 C.3   183  HIS183      0.0745
    113  CG        17.5900   24.9140  -24.6990 C.ar  183  HIS183      0.0817
    114  ND1       18.0900   25.2830  -23.4690 N.ar  183  HIS183     -0.2268
    115  CD2       18.5140   25.2960  -25.6130 C.ar  183  HIS183      0.1154
    116  CE1       19.2700   25.8600  -23.6310 C.ar  183  HIS183      0.1986
    117  NE2       19.5480   25.8830  -24.9230 N.ar  183  HIS183     -0.2212
    118  N         31.0490   18.6810  -21.5080 N.3   215  TYR215     -0.1241
    119  CA        31.2790   20.0130  -22.0710 C.3   215  TYR215      0.1605
    120  C         32.7130   20.4680  -21.8570 C.2   215  TYR215      0.2264
    121  O         33.2600   21.2090  -22.6640 O.2   215  TYR215     -0.2867
    122  CB        30.3040   21.0230  -21.4550 C.3   215  TYR215      0.0534
    123  CG        28.8760   20.6880  -21.8270 C.ar  215  TYR215     -0.0201
    124  CD1       28.2720   21.2730  -22.9280 C.ar  215  TYR215     -0.0009
    125  CD2       28.1610   19.7390  -21.1160 C.ar  215  TYR215     -0.0009
    126  CE1       26.9830   20.9470  -23.2920 C.ar  215  TYR215      0.0417
    127  CE2       26.8720   19.4000  -21.4780 C.ar  215  TYR215      0.0417
    128  CZ        26.2950   19.9950  -22.5640 C.ar  215  TYR215      0.1957
    129  OH        25.0160   19.6570  -22.9260 O.3   215  TYR215     -0.2866
    130  N         14.1400   27.2310  -29.4820 N.3   246  GLY246     -0.1225
    131  CA        15.1230   26.3370  -28.8880 C.3   246  GLY246      0.1811
    132  C         15.6580   25.2310  -29.7860 C.2   246  GLY246      0.2280
    133  O         16.5290   24.4600  -29.3690 O.2   246  GLY246     -0.2866
    134  N         17.5140   23.5690  -33.3280 N.3   248  MET248     -0.1245
    135  CA        18.6780   23.8300  -34.1860 C.3   248  MET248      0.1570
    136  C         18.3100   24.3100  -35.5900 C.2   248  MET248      0.2261
    137  O         19.1550   24.8380  -36.3060 O.2   248  MET248     -0.2867
    138  CB        19.5620   22.5820  -34.3000 C.3   248  MET248      0.0387
    139  CG        20.1740   22.1350  -32.9930 C.3   248  MET248      0.0595
    140  SD        21.3360   23.3460  -32.3540 S.3   248  MET248     -0.1393
    141  CE        22.2270   23.7410  -33.8300 C.3   248  MET248      0.0692
    142  N         14.0500   21.8000  -28.9060 N.3   273  HIS273     -0.1241
    143  CA        15.2020   20.9120  -28.7910 C.3   273  HIS273      0.1621
    144  C         14.8270   19.4650  -28.4390 C.2   273  HIS273      0.2264
    145  O         15.5300   18.5230  -28.8160 O.2   273  HIS273     -0.2867
    146  CB        16.1030   21.4690  -27.6900 C.3   273  HIS273      0.0745
    147  CG        17.3550   20.6820  -27.4690 C.ar  273  HIS273      0.0817
    148  ND1       18.2670   20.4440  -28.4730 N.ar  273  HIS273     -0.2268
    149  CD2       17.8580   20.0990  -26.3550 C.ar  273  HIS273      0.1154
    150  CE1       19.2820   19.7520  -27.9850 C.ar  273  HIS273      0.1986
    151  NE2       19.0560   19.5270  -26.7020 N.ar  273  HIS273     -0.2212
@<TRIPOS>BOND
     1   137   136    2
     2   136   135    1
     3   138   135    1
     4   138   139    1
     5   135   134    1
     6   141   140    1
     7    52    51    2
     8    55    56    1
     9    55    58    1
    10    55    54    1
    11    56    57    2
    12    58    59    1
    13    40    41    1
    14   139   140    1
    15    48    46   ar
    16    51    54   am
    17    51    50    1
    18    54    60    1
    19    49    50    1
    20    49    42   am
    21    41    42    1
    22    41    44    1
    23    46    45    1
    24    46    47   ar
    25    45    44    1
    26    59    60    1
    27    50    53    1
    28    67    66    1
    29    42    43    2
    30    66    68    1
    31    66    65    1
    32    26    27    1
    33   132   133    2
    34   132   131    1
    35    32    34   ar
    36    32    31   ar
    37    27    28    1
    38    27    30    1
    39    29    28    2
    40   130   131    1
    41    34    35   ar
    42    65    62    1
    43    15    14    2
    44    12    13    1
    45   142   143    1
    46   145   144    2
    47   143   144    1
    48   143   146    1
    49    75    73    1
    50    31    30    1
    51    31    33   ar
    52   148   150   ar
    53   148   147   ar
    54    74    73    1
    55    95    96   ar
    56    95    93   ar
    57    13    14    1
    58    13    16    1
    59    35    33   ar
    60    35    37   ar
    61    14    18   am
    62   150   151   ar
    63    61    62    1
    64    62    63    1
    65    96    94   ar
    66   146   147    1
    67    73    70    1
    68    33    36   ar
    69   147   149   ar
    70    37    39   ar
    71    93    91   ar
    72    69    63   am
    73    69    70    1
    74    63    64    2
    75    21    20    2
    76    20    19    1
    77    18    19    1
    78    16    17    1
    79   151   149   ar
    80   111   110    2
    81    19    22    1
    82    70    71    1
    83    94    92   ar
    84    36    38   ar
    85    39    38   ar
    86    91    92   ar
    87    91    90    1
    88   110   109    1
    89    71    72    2
    90   115   117   ar
    91   115   113   ar
    92    22    24    1
    93    22    23    1
    94   109   112    1
    95   109   108    1
    96   117   116   ar
    97    90    87    1
    98   112   113    1
    99   113   114   ar
   100    84    85   ar
   101    84    82   ar
   102    23    25    1
   103    85    83   ar
   104    82    81   ar
   105   116   114   ar
   106    87    86    1
   107    87    88    1
   108   126   124   ar
   109   126   128   ar
   110    86    78   am
   111     1     2    1
   112   124   123   ar
   113   129   128    1
   114    83    81   ar
   115   121   120    2
   116    76    77    1
   117    81    80    1
   118   128   127   ar
   119    88    89    2
   120   119   120    1
   121   119   118    1
   122   119   122    1
   123     5     2    1
   124     5     6    1
   125   107   105   ar
   126   107   106   ar
   127    78    77    1
   128    78    79    2
   129     2     3    1
   130   123   122    1
   131   123   125   ar
   132     4     3    2
   133   105   103   ar
   134    77    80    1
   135   127   125   ar
   136   100    99    2
   137   106   104   ar
   138     6     8   ar
   139     6     7   ar
   140     8    10   ar
   141   103   102   ar
   142   104   102   ar
   143    99    98    1
   144   102   101    1
   145     7     9   ar
   146    10    11   ar
   147    98   101    1
   148    98    97    1
   149     9    11   ar
