@<TRIPOS>MOLECULE
tmp/4eheB00.pdb
 165 157 0 0 0
SMALL
GASTEIGER

@<TRIPOS>ATOM
      1  N         42.1360  -43.4800  -16.7110 N.3    16  ILE16      -0.1245
      2  CA        42.7090  -43.0110  -15.4480 C.3    16  ILE16       0.1561
      3  C         42.9940  -44.1260  -14.4490 C.2    16  ILE16       0.2260
      4  O         44.0300  -44.1100  -13.7780 O.2    16  ILE16      -0.2867
      5  CB        41.8520  -41.9490  -14.7600 C.3    16  ILE16       0.0252
      6  CG1       41.0800  -41.1320  -15.7920 C.3    16  ILE16       0.0019
      7  CG2       42.7400  -41.0710  -13.8650 C.3    16  ILE16       0.0019
      8  CD1       39.7360  -40.7390  -15.3230 C.3    16  ILE16       0.0001
      9  N         38.8570  -47.2520  -14.5980 N.3    24  VAL24      -0.1245
     10  CA        38.1340  -46.0060  -14.4880 C.3    24  VAL24       0.1561
     11  C         38.5350  -45.1330  -15.6790 C.2    24  VAL24       0.2260
     12  O         39.7300  -44.9250  -15.9470 O.2    24  VAL24      -0.2867
     13  CB        38.4610  -45.2670  -13.1790 C.3    24  VAL24       0.0252
     14  CG1       37.4640  -44.1620  -12.9470 C.3    24  VAL24       0.0019
     15  CG2       38.4590  -46.2190  -12.0020 C.3    24  VAL24       0.0019
     16  N         32.2790  -40.4530  -14.6860 N.3    34  ALA34      -0.1245
     17  CA        33.3300  -41.4090  -14.4300 C.3    34  ALA34       0.1562
     18  C         32.7320  -42.7540  -14.7480 C.2    34  ALA34       0.2260
     19  O         31.6510  -43.0880  -14.2550 O.2    34  ALA34      -0.2867
     20  CB        33.7650  -41.3490  -12.9880 C.3    34  ALA34       0.0290
     21  N         33.6300  -46.7750  -14.6200 N.3    36  LYS36      -0.1245
     22  CA        34.5300  -47.8230  -14.1830 C.3    36  LYS36       0.1561
     23  C         34.0700  -49.1040  -14.8610 C.2    36  LYS36       0.2260
     24  O         32.9660  -49.5830  -14.6010 O.2    36  LYS36      -0.2867
     25  CB        34.5180  -47.9390  -12.6440 C.3    36  LYS36       0.0271
     26  CG        35.4820  -48.9670  -12.0310 C.3    36  LYS36       0.0035
     27  CD        35.9810  -48.5350  -10.6470 C.3    36  LYS36       0.0206
     28  CE        35.2690  -49.2270   -9.4870 C.3    36  LYS36       0.1093
     29  NZ        35.7220  -48.6470   -8.1810 N.3    36  LYS36      -0.1314
     30  N         24.3060  -49.6570   -4.3820 N.3    58  LEU58      -0.1245
     31  CA        24.6330  -48.3190   -4.8550 C.3    58  LEU58       0.1561
     32  C         23.4260  -47.3820   -4.8920 C.2    58  LEU58       0.2260
     33  O         23.5230  -46.2390   -4.4350 O.2    58  LEU58      -0.2867
     34  CB        25.2950  -48.3940   -6.2300 C.3    58  LEU58       0.0270
     35  CG        26.5490  -49.2660   -6.3210 C.3    58  LEU58       0.0019
     36  CD1       27.1250  -49.2710   -7.7200 C.3    58  LEU58       0.0001
     37  CD2       27.5940  -48.7990   -5.3300 C.3    58  LEU58       0.0001
     38  N         22.0990  -45.1260   -1.9550 N.3    61  THR61      -0.1218
     39  CA        22.8500  -43.9210   -1.5340 C.3    61  THR61       0.1862
     40  C         22.3990  -42.6040   -2.1960 C.2    61  THR61       0.2287
     41  O         22.3020  -42.5020   -3.4270 O.2    61  THR61      -0.2866
     42  CB        24.3860  -44.0840   -1.7170 C.3    61  THR61       0.1770
     43  OG1       24.6670  -44.5130   -3.0530 O.3    61  THR61      -0.2211
     44  CG2       24.9400  -45.0930   -0.7460 C.3    61  THR61       0.0375
     45  N         28.5130  -38.6120   -0.4970 N.3    66  ILE66      -0.1231
     46  CA        28.7140  -39.9090   -1.1350 C.3    66  ILE66       0.1692
     47  C         28.7630  -39.6980   -2.6430 C.2    66  ILE66       0.2591
     48  O         27.8370  -39.0880   -3.2260 O.2    66  ILE66      -0.2718
     49  CB        27.5690  -40.9140   -0.7960 C.3    66  ILE66       0.0266
     50  CG1       27.4420  -41.1420    0.7120 C.3    66  ILE66       0.0019
     51  CG2       27.7590  -42.2450   -1.5240 C.3    66  ILE66       0.0020
     52  CD1       28.7010  -41.6240    1.3890 C.3    66  ILE66       0.0001
     53  N         29.8260  -40.1960   -3.2770 N.am   67  LEU67      -0.1980
     54  CA        29.9800  -40.0350   -4.7190 C.3    67  LEU67       0.1596
     55  C         28.6960  -40.4870   -5.3860 C.2    67  LEU67       0.2287
     56  O         28.2860  -41.6420   -5.2440 O.2    67  LEU67      -0.2864
     57  CB        31.1580  -40.8400   -5.2520 C.3    67  LEU67       0.0297
     58  CG        31.5550  -40.6280   -6.7110 C.3    67  LEU67       0.0022
     59  CD1       32.2880  -39.3300   -6.8720 C.3    67  LEU67       0.0001
     60  CD2       32.4180  -41.7650   -7.2200 C.3    67  LEU67       0.0001
     61  N         26.2050  -42.0210   -7.5250 N.3    69  PHE69      -0.1241
     62  CA        25.9980  -43.0790   -8.5120 C.3    69  PHE69       0.1605
     63  C         25.0460  -42.5490   -9.5820 C.2    69  PHE69       0.2264
     64  O         24.0060  -41.9760   -9.2580 O.2    69  PHE69      -0.2867
     65  CB        25.4170  -44.3150   -7.8090 C.3    69  PHE69       0.0534
     66  CG        24.8080  -45.3340   -8.7370 C.ar   69  PHE69      -0.0203
     67  CD1       25.6110  -46.2330   -9.4370 C.ar   69  PHE69      -0.0042
     68  CD2       23.4230  -45.4150   -8.8890 C.ar   69  PHE69      -0.0042
     69  CE1       25.0460  -47.1920  -10.2960 C.ar   69  PHE69      -0.0003
     70  CE2       22.8550  -46.3610   -9.7420 C.ar   69  PHE69      -0.0003
     71  CZ        23.6650  -47.2520  -10.4420 C.ar   69  PHE69      -0.0000
     72  N         30.1180  -49.2300  -14.0170 N.3    80  ILE80      -0.1245
     73  CA        29.4380  -48.3260  -13.1040 C.3    80  ILE80       0.1561
     74  C         29.8020  -46.9080  -13.4740 C.2    80  ILE80       0.2260
     75  O         30.9760  -46.5950  -13.7000 O.2    80  ILE80      -0.2867
     76  CB        29.7200  -48.6160  -11.6180 C.3    80  ILE80       0.0252
     77  CG1       28.8040  -49.7260  -11.1200 C.3    80  ILE80       0.0019
     78  CG2       29.4040  -47.4210  -10.7620 C.3    80  ILE80       0.0019
     79  CD1       29.3270  -51.0980  -11.3670 C.3    80  ILE80       0.0001
     80  N         29.4410  -42.8380  -12.5680 N.3    82  THR82      -0.1203
     81  CA        29.2360  -41.8630  -11.5120 C.3    82  THR82       0.1994
     82  C         29.4930  -40.4630  -12.0560 C.2    82  THR82       0.2618
     83  O         30.0910  -40.3030  -13.1170 O.2    82  THR82      -0.2717
     84  CB        30.2080  -42.0920  -10.3610 C.3    82  THR82       0.1784
     85  OG1       31.5450  -41.9450  -10.8460 O.3    82  THR82      -0.2211
     86  CG2       30.0420  -43.4740   -9.7700 C.3    82  THR82       0.0376
     87  N         29.0380  -39.4510  -11.3280 N.am   83  GLN83      -0.1965
     88  CA        29.4470  -38.0850  -11.5850 C.3    83  GLN83       0.1733
     89  C         30.9520  -38.0530  -11.7520 C.2    83  GLN83       0.2616
     90  O         31.6680  -38.7960  -11.0780 O.2    83  GLN83      -0.2715
     91  CB        29.0510  -37.1880  -10.4040 C.3    83  GLN83       0.0408
     92  CG        29.6410  -37.5810   -9.0430 C.3    83  GLN83       0.0908
     93  CD        29.2900  -36.5990   -7.9460 C.2    83  GLN83       0.2608
     94  OE1       29.1680  -36.9700   -6.7810 O.2    83  GLN83      -0.2717
     95  NE2       29.1170  -35.3360   -8.3110 N.am   83  GLN83      -0.0878
     96  N         31.4310  -37.2120  -12.6590 N.am   84  TRP84      -0.1960
     97  CA        32.8510  -36.8690  -12.6920 C.3    84  TRP84       0.1771
     98  C         33.1320  -35.7510  -11.6930 C.2    84  TRP84       0.2619
     99  O         32.4470  -34.7360  -11.6920 O.2    84  TRP84      -0.2715
    100  CB        33.2730  -36.4140  -14.0890 C.3    84  TRP84       0.0590
    101  CG        34.7030  -35.9620  -14.1310 C.ar   84  TRP84       0.0006
    102  CD1       35.1680  -34.6720  -14.2000 C.ar   84  TRP84       0.0946
    103  CD2       35.8610  -36.8030  -14.0770 C.ar   84  TRP84       0.0152
    104  NE1       36.5470  -34.6630  -14.2040 N.ar   84  TRP84      -0.2442
    105  CE2       36.9960  -35.9570  -14.1260 C.ar   84  TRP84       0.0810
    106  CE3       36.0510  -38.1920  -13.9940 C.ar   84  TRP84       0.0012
    107  CZ2       38.2990  -36.4560  -14.0940 C.ar   84  TRP84       0.0191
    108  CZ3       37.3380  -38.6810  -13.9660 C.ar   84  TRP84       0.0001
    109  CH2       38.4500  -37.8150  -14.0160 C.ar   84  TRP84       0.0015
    110  N         34.1280  -35.9240  -10.8390 N.am   85  CYS85      -0.1968
    111  CA        34.5130  -34.8370   -9.9470 C.3    85  CYS85       0.1712
    112  C         35.6480  -34.0510  -10.5540 C.2    85  CYS85       0.2296
    113  O         36.6550  -34.6320  -10.9700 O.2    85  CYS85      -0.2864
    114  CB        34.9720  -35.3610   -8.5900 C.3    85  CYS85       0.0983
    115  SG        33.7750  -36.3870   -7.7390 S.3    85  CYS85      -0.0798
    116  N         38.7930  -31.4780   -9.6710 N.3    87  GLY87      -0.1225
    117  CA        39.7040  -31.5360   -8.5170 C.3    87  GLY87       0.1811
    118  C         40.2900  -32.9300   -8.3610 C.2    87  GLY87       0.2280
    119  O         40.1730  -33.7630   -9.2690 O.2    87  GLY87      -0.2866
    120  N         37.2450  -38.0550   -2.3230 N.3   136  PHE136     -0.1241
    121  CA        37.4680  -37.1460   -3.4170 C.3   136  PHE136      0.1605
    122  C         37.0200  -35.7150   -3.1110 C.2   136  PHE136      0.2264
    123  O         35.9190  -35.4860   -2.6110 O.2   136  PHE136     -0.2867
    124  CB        36.7810  -37.6780   -4.6590 C.3   136  PHE136      0.0534
    125  CG        37.6260  -37.5770   -5.8740 C.ar  136  PHE136     -0.0203
    126  CD1       37.8990  -36.3200   -6.4520 C.ar  136  PHE136     -0.0042
    127  CD2       38.1850  -38.7250   -6.4400 C.ar  136  PHE136     -0.0042
    128  CE1       38.6950  -36.2010   -7.5930 C.ar  136  PHE136     -0.0003
    129  CE2       38.9970  -38.6150   -7.5850 C.ar  136  PHE136     -0.0003
    130  CZ        39.2550  -37.3420   -8.1580 C.ar  136  PHE136     -0.0000
    131  N         33.9710  -42.4970   -2.3650 N.3   146  GLY146     -0.1210
    132  CA        33.6750  -43.5130   -3.3540 C.3   146  GLY146      0.1956
    133  C         34.3490  -44.8560   -3.1130 C.2   146  GLY146      0.2612
    134  O         34.9110  -45.1180   -2.0430 O.2   146  GLY146     -0.2717
    135  N         34.2760  -45.7070   -4.1320 N.am  147  ASP147     -0.1959
    136  CA        34.8840  -47.0380   -4.1530 C.3   147  ASP147      0.1840
    137  C         34.4660  -47.9580   -3.0260 C.2   147  ASP147      0.2622
    138  O         35.2490  -48.7790   -2.5960 O.2   147  ASP147     -0.2715
    139  CB        36.4110  -46.9560   -4.2370 C.3   147  ASP147      0.1450
    140  CG        37.0110  -48.0660   -5.0990 C.2   147  ASP147      0.3671
    141  OD1       37.0560  -49.2320   -4.6450 O.co2 147  ASP147     -0.2456
    142  OD2       37.4360  -47.7640   -6.2440 O.co2 147  ASP147     -0.2456
    143  N         33.2340  -47.8430   -2.5540 N.am  148  PHE148     -0.1960
    144  CA        32.7410  -48.7900   -1.5560 C.3   148  PHE148      0.1771
    145  C         31.8190  -49.8270   -2.1860 C.2   148  PHE148      0.2620
    146  O         31.1960  -50.6250   -1.4860 O.2   148  PHE148     -0.2715
    147  CB        31.9990  -48.0610   -0.4500 C.3   148  PHE148      0.0574
    148  CG        30.8050  -47.3210   -0.9290 C.ar  148  PHE148     -0.0200
    149  CD1       30.9040  -45.9920   -1.3040 C.ar  148  PHE148     -0.0042
    150  CD2       29.5790  -47.9420   -1.0110 C.ar  148  PHE148     -0.0042
    151  CE1       29.7960  -45.2890   -1.7500 C.ar  148  PHE148     -0.0003
    152  CE2       28.4730  -47.2460   -1.4580 C.ar  148  PHE148     -0.0003
    153  CZ        28.5870  -45.9140   -1.8290 C.ar  148  PHE148     -0.0000
    154  N         31.7570  -49.8200   -3.5110 N.am  149  GLY149     -0.1940
    155  CA        30.7250  -50.5290   -4.2390 C.3   149  GLY149      0.2014
    156  C         30.7570  -52.0400   -4.2000 C.2   149  GLY149      0.2638
    157  O         30.2800  -52.6690   -3.2520 O.2   149  GLY149     -0.2714
    158  N         31.3320  -52.6120   -5.2480 N.am  150  LEU150     -0.1977
    159  CA        31.1250  -53.9990   -5.6220 C.3   150  LEU150      0.1596
    160  C         31.7870  -54.9530   -4.6410 C.2   150  LEU150      0.2287
    161  O         32.6280  -55.7630   -5.0320 O.2   150  LEU150     -0.2864
    162  CB        31.6990  -54.2040   -7.0210 C.3   150  LEU150      0.0297
    163  CG        31.5160  -53.0120   -7.9710 C.3   150  LEU150      0.0022
    164  CD1       32.8280  -52.3210   -8.3350 C.3   150  LEU150      0.0001
    165  CD2       30.7810  -53.4340   -9.2090 C.3   150  LEU150      0.0001
@<TRIPOS>BOND
     1     1     2    1
     2    12    11    2
     3     6     8    1
     4     6     5    1
     5    11    10    1
     6     2     5    1
     7     2     3    1
     8    23    24    2
     9    23    22    1
    10     5     7    1
    11    18    17    1
    12    18    19    2
    13    16    17    1
    14    21    22    1
    15     9    10    1
    16    10    13    1
    17     3     4    2
    18    17    20    1
    19   104   102   ar
    20   104   105   ar
    21   102   101   ar
    22    22    25    1
    23   101   100    1
    24   101   103   ar
    25   105   107   ar
    26   105   103   ar
    27   107   109   ar
    28   100    97    1
    29   103   106   ar
    30    72    73    1
    31   109   108   ar
    32   106   108   ar
    33    75    74    2
    34    74    73    1
    35    13    14    1
    36    13    15    1
    37    83    82    2
    38    73    76    1
    39    97    96    1
    40    97    98    1
    41    96    89   am
    42    25    26    1
    43    80    81    1
    44    82    81    1
    45    82    87   am
    46    26    27    1
    47    89    88    1
    48    89    90    2
    49    98    99    2
    50    98   110   am
    51    76    77    1
    52    76    78    1
    53    88    87    1
    54    88    91    1
    55    81    84    1
    56    79    77    1
    57   113   112    2
    58    85    84    1
    59   110   111    1
    60    27    28    1
    61   112   111    1
    62    71    69   ar
    63    71    70   ar
    64    91    92    1
    65    84    86    1
    66    69    67   ar
    67   111   114    1
    68    70    68   ar
    69   116   117    1
    70    63    64    2
    71    63    62    1
    72    28    29    1
    73    67    66   ar
    74   119   118    2
    75   165   163    1
    76    92    93    1
    77    68    66   ar
    78    66    65    1
    79   114   115    1
    80   117   118    1
    81    62    65    1
    82    62    61    1
    83   164   163    1
    84    95    93   am
    85   130   128   ar
    86   130   129   ar
    87   163   162    1
    88    93    94    2
    89    36    35    1
    90   128   126   ar
    91   129   127   ar
    92    60    58    1
    93   162   159    1
    94    59    58    1
    95    58    57    1
    96   126   125   ar
    97   127   125   ar
    98    35    34    1
    99    35    37    1
   100   142   140   ar
   101    34    31    1
   102   125   124    1
   103   159   158    1
   104   159   160    1
   105    55    56    2
   106    55    54    1
   107    57    54    1
   108   158   156   am
   109   140   141   ar
   110   140   139    1
   111   161   160    2
   112    32    31    1
   113    32    33    2
   114    31    30    1
   115    54    53    1
   116   124   121    1
   117   155   156    1
   118   155   154    1
   119   139   136    1
   120   156   157    2
   121   136   135    1
   122   136   137    1
   123   135   133   am
   124   154   145   am
   125    41    40    2
   126   121   122    1
   127   121   120    1
   128   132   133    1
   129   132   131    1
   130    53    47   am
   131    48    47    2
   132   133   134    2
   133   122   123    2
   134    43    42    1
   135   137   138    2
   136   137   143   am
   137    47    46    1
   138   143   144    1
   139    40    39    1
   140   145   144    1
   141   145   146    2
   142    38    39    1
   143   153   151   ar
   144   153   152   ar
   145   151   149   ar
   146    42    39    1
   147    42    44    1
   148   144   147    1
   149    51    49    1
   150   152   150   ar
   151   149   148   ar
   152    46    49    1
   153    46    45    1
   154   150   148   ar
   155   148   147    1
   156    49    50    1
   157    50    52    1
