@<TRIPOS>MOLECULE
tmp/4ehgA00.pdb
 176 169 0 0 0
SMALL
GASTEIGER

@<TRIPOS>ATOM
      1  N         -5.4480   13.5290   14.5450 N.3    16  ILE16      -0.1245
      2  CA        -6.2650   12.8300   13.5400 C.3    16  ILE16       0.1561
      3  C         -5.5450   12.1450   12.3660 C.2    16  ILE16       0.2260
      4  O         -6.0910   11.2010   11.7910 O.2    16  ILE16      -0.2867
      5  CB        -7.5270   13.5970   13.0670 C.3    16  ILE16       0.0252
      6  CG1       -7.1740   14.6420   12.0160 C.3    16  ILE16       0.0019
      7  CG2       -8.3060   14.1450   14.2660 C.3    16  ILE16       0.0019
      8  CD1       -7.3940   16.0350   12.4640 C.3    16  ILE16       0.0001
      9  N         -1.8610   16.3130   12.0030 N.3    24  VAL24      -0.1245
     10  CA        -3.1120   17.0720   12.0270 C.3    24  VAL24       0.1561
     11  C         -3.9930   16.7000   13.2270 C.2    24  VAL24       0.2260
     12  O         -4.1950   15.5250   13.5350 O.2    24  VAL24      -0.2867
     13  CB        -3.8760   16.9430   10.6850 C.3    24  VAL24       0.0252
     14  CG1       -5.0430   17.8890   10.6400 C.3    24  VAL24       0.0019
     15  CG2       -2.9520   17.2470    9.5120 C.3    24  VAL24       0.0019
     16  N         -9.2130   22.7840   12.6350 N.3    34  ALA34      -0.1231
     17  CA        -8.2100   21.7810   12.3270 C.3    34  ALA34       0.1694
     18  C         -6.8540   22.4400   12.4330 C.2    34  ALA34       0.2592
     19  O         -6.7110   23.6120   12.1060 O.2    34  ALA34      -0.2718
     20  CB        -8.4230   21.2530   10.9480 C.3    34  ALA34       0.0304
     21  N         -5.8580   21.6940   12.8940 N.am   35  VAL35      -0.1966
     22  CA        -4.5250   22.2480   13.0930 C.3    35  VAL35       0.1727
     23  C         -3.4530   21.3280   12.5790 C.2    35  VAL35       0.2616
     24  O         -3.2480   20.2630   13.1370 O.2    35  VAL35      -0.2715
     25  CB        -4.2240   22.4420   14.5640 C.3    35  VAL35       0.0290
     26  CG1       -3.0380   23.3770   14.7260 C.3    35  VAL35       0.0023
     27  CG2       -5.4470   22.9750   15.2950 C.3    35  VAL35       0.0023
     28  N         -2.7670   21.7360   11.5200 N.am   36  LYS36      -0.1977
     29  CA        -1.6190   20.9800   11.0550 C.3    36  LYS36       0.1596
     30  C         -0.3850   21.5090   11.7430 C.2    36  LYS36       0.2287
     31  O         -0.0540   22.6830   11.6190 O.2    36  LYS36      -0.2864
     32  CB        -1.4450   21.0400    9.5380 C.3    36  LYS36       0.0298
     33  CG        -0.0920   20.4770    9.0580 C.3    36  LYS36       0.0038
     34  CD        -0.2200   19.6180    7.8150 C.3    36  LYS36       0.0206
     35  CE        -0.3480   20.4580    6.5480 C.3    36  LYS36       0.1093
     36  NZ        -1.0620   19.6990    5.4750 N.3    36  LYS36      -0.1314
     37  N         -1.8440   30.9020    0.7710 N.3    58  LEU58      -0.1245
     38  CA        -3.1230   30.4600    1.3190 C.3    58  LEU58       0.1561
     39  C         -4.1080   31.5980    1.4450 C.2    58  LEU58       0.2260
     40  O         -5.1850   31.5500    0.8550 O.2    58  LEU58      -0.2867
     41  CB        -2.9330   29.7880    2.6740 C.3    58  LEU58       0.0270
     42  CG        -1.8680   28.7010    2.7210 C.3    58  LEU58       0.0019
     43  CD1       -1.6790   28.2670    4.1410 C.3    58  LEU58       0.0001
     44  CD2       -2.2340   27.5200    1.8580 C.3    58  LEU58       0.0001
     45  N         -6.6940   32.7550   -1.0590 N.3    61  THR61      -0.1218
     46  CA        -7.8870   31.9880   -1.4120 C.3    61  THR61       0.1862
     47  C         -9.0480   32.2220   -0.4570 C.2    61  THR61       0.2287
     48  O         -8.9230   32.0670    0.7610 O.2    61  THR61      -0.2866
     49  CB        -7.5990   30.4780   -1.4550 C.3    61  THR61       0.1770
     50  OG1       -7.2000   30.0290   -0.1570 O.3    61  THR61      -0.2211
     51  CG2       -6.4930   30.1780   -2.4340 C.3    61  THR61       0.0375
     52  N        -12.9170   25.7080   -1.2370 N.3    66  ILE66      -0.1231
     53  CA       -11.5550   25.6410   -0.6640 C.3    66  ILE66       0.1692
     54  C        -11.5810   25.6500    0.8690 C.2    66  ILE66       0.2591
     55  O        -12.1060   26.5840    1.4930 O.2    66  ILE66      -0.2718
     56  CB       -10.6250   26.7690   -1.2030 C.3    66  ILE66       0.0266
     57  CG1      -10.4850   26.6720   -2.7210 C.3    66  ILE66       0.0019
     58  CG2       -9.2560   26.7350   -0.5460 C.3    66  ILE66       0.0020
     59  CD1      -10.1680   25.2940   -3.2260 C.3    66  ILE66       0.0001
     60  N        -11.0140   24.5950    1.4520 N.am   67  LEU67      -0.1980
     61  CA       -10.8660   24.4630    2.8890 C.3    67  LEU67       0.1596
     62  C        -10.4250   25.7810    3.4970 C.2    67  LEU67       0.2287
     63  O         -9.3690   26.2970    3.1700 O.2    67  LEU67      -0.2864
     64  CB        -9.8460   23.3790    3.1940 C.3    67  LEU67       0.0297
     65  CG        -9.6620   23.0460    4.6620 C.3    67  LEU67       0.0022
     66  CD1      -10.9300   22.4170    5.1820 C.3    67  LEU67       0.0001
     67  CD2       -8.4790   22.1230    4.8470 C.3    67  LEU67       0.0001
     68  N         -8.7780   28.5360    5.1390 N.3    69  PHE69      -0.1241
     69  CA        -7.6320   28.9980    5.9090 C.3    69  PHE69       0.1605
     70  C         -8.1080   29.9380    7.0020 C.2    69  PHE69       0.2264
     71  O         -8.9140   30.8280    6.7500 O.2    69  PHE69      -0.2867
     72  CB        -6.6230   29.7210    5.0040 C.3    69  PHE69       0.0534
     73  CG        -5.5460   30.4250    5.7600 C.ar   69  PHE69      -0.0203
     74  CD1       -4.4430   29.7250    6.2250 C.ar   69  PHE69      -0.0042
     75  CD2       -5.6560   31.7790    6.0410 C.ar   69  PHE69      -0.0042
     76  CE1       -3.4630   30.3550    6.9500 C.ar   69  PHE69      -0.0003
     77  CE2       -4.6810   32.4210    6.7640 C.ar   69  PHE69      -0.0003
     78  CZ        -3.5740   31.7040    7.2190 C.ar   69  PHE69      -0.0000
     79  N         -0.6750   25.3730   10.7470 N.3    80  ILE80      -0.1245
     80  CA        -1.7260   26.0070    9.9580 C.3    80  ILE80       0.1561
     81  C         -3.0850   25.6810   10.5530 C.2    80  ILE80       0.2260
     82  O         -3.3900   24.5250   10.8500 O.2    80  ILE80      -0.2867
     83  CB        -1.6730   25.6190    8.4570 C.3    80  ILE80       0.0252
     84  CG1       -0.4530   26.2510    7.7990 C.3    80  ILE80       0.0019
     85  CG2       -2.9260   26.1010    7.7180 C.3    80  ILE80       0.0019
     86  CD1        0.0690   25.4670    6.6440 C.3    80  ILE80       0.0001
     87  N         -7.0950   25.7490   10.0890 N.3    82  THR82      -0.1203
     88  CA        -8.2200   25.9190    9.1930 C.3    82  THR82       0.1994
     89  C         -9.4690   25.4060    9.8560 C.2    82  THR82       0.2618
     90  O         -9.4050   24.8020   10.9230 O.2    82  THR82      -0.2717
     91  CB        -8.0540   25.1500    7.8760 C.3    82  THR82       0.1784
     92  OG1       -8.2770   23.7550    8.1060 O.3    82  THR82      -0.2211
     93  CG2       -6.6820   25.3620    7.2760 C.3    82  THR82       0.0376
     94  N        -10.6040   25.6270    9.1990 N.am   83  GLN83      -0.1965
     95  CA       -11.8910   25.1140    9.6610 C.3    83  GLN83       0.1733
     96  C        -11.9050   23.6000    9.8380 C.2    83  GLN83       0.2616
     97  O        -11.2780   22.8620    9.0790 O.2    83  GLN83      -0.2715
     98  CB       -13.0130   25.5180    8.7030 C.3    83  GLN83       0.0408
     99  CG       -12.8970   24.9230    7.3150 C.3    83  GLN83       0.0908
    100  CD       -14.1160   25.1900    6.4680 C.2    83  GLN83       0.2608
    101  OE1      -14.0030   25.6370    5.3260 O.2    83  GLN83      -0.2717
    102  NE2      -15.2940   24.9100    7.0200 N.am   83  GLN83      -0.0878
    103  N        -12.6250   23.1600   10.8620 N.am   84  TRP84      -0.1960
    104  CA       -12.9390   21.7620   11.0630 C.3    84  TRP84       0.1771
    105  C        -14.0070   21.2850   10.0620 C.2    84  TRP84       0.2619
    106  O        -14.7370   22.1040    9.4990 O.2    84  TRP84      -0.2715
    107  CB       -13.4340   21.5740   12.4880 C.3    84  TRP84       0.0590
    108  CG       -13.6880   20.1800   12.7620 C.ar   84  TRP84       0.0006
    109  CD1      -14.8830   19.6040   13.0560 C.ar   84  TRP84       0.0946
    110  CD2      -12.7290   19.1290   12.7120 C.ar   84  TRP84       0.0152
    111  NE1      -14.7260   18.2440   13.2220 N.ar   84  TRP84      -0.2442
    112  CE2      -13.4110   17.9280   13.0110 C.ar   84  TRP84       0.0810
    113  CE3      -11.3480   19.0850   12.4590 C.ar   84  TRP84       0.0012
    114  CZ2      -12.7670   16.7030   13.0590 C.ar   84  TRP84       0.0191
    115  CZ3      -10.7080   17.8700   12.4980 C.ar   84  TRP84       0.0001
    116  CH2      -11.4150   16.6910   12.7990 C.ar   84  TRP84       0.0015
    117  N        -14.0980   19.9760    9.8280 N.am   85  CYS85      -0.1968
    118  CA       -15.1950   19.4250    9.0110 C.3    85  CYS85       0.1712
    119  C        -15.9480   18.2710    9.6300 C.2    85  CYS85       0.2296
    120  O        -15.3930   17.1740    9.8690 O.2    85  CYS85      -0.2864
    121  CB       -14.7170   18.9630    7.6520 C.3    85  CYS85       0.0983
    122  SG       -13.8830   20.2250    6.7980 S.3    85  CYS85      -0.0798
    123  N        -17.6930   15.5070    8.8180 N.3    87  GLY87      -0.1210
    124  CA       -17.7160   14.7390    7.5960 C.3    87  GLY87       0.1956
    125  C        -16.4410   13.9410    7.5510 C.2    87  GLY87       0.2613
    126  O        -15.6580   13.9640    8.5070 O.2    87  GLY87      -0.2717
    127  N        -16.2490   13.2320    6.4410 N.am   88  SER88      -0.1938
    128  CA       -15.0520   12.4510    6.1980 C.3    88  SER88       0.2055
    129  C        -14.4550   12.8210    4.8660 C.2    88  SER88       0.2643
    130  O        -15.0840   13.5180    4.0620 O.2    88  SER88      -0.2714
    131  CB       -15.3990   10.9800    6.1820 C.3    88  SER88       0.2130
    132  OG       -15.7480   10.5780    7.4820 O.3    88  SER88      -0.2179
    133  N        -13.2360   12.3510    4.6290 N.am   89  SER89      -0.1949
    134  CA       -12.6070   12.5530    3.3390 C.3    89  SER89       0.1924
    135  C        -13.3530   11.8000    2.2500 C.2    89  SER89       0.2314
    136  O        -13.9990   10.7920    2.5110 O.2    89  SER89      -0.2863
    137  CB       -11.1780   12.0570    3.3750 C.3    89  SER89       0.2116
    138  OG       -10.7350   11.8510    2.0470 O.3    89  SER89      -0.2180
    139  N        -12.3220   17.0540    0.8990 N.3   136  PHE136     -0.1241
    140  CA       -13.0860   16.7300    2.0940 C.3   136  PHE136      0.1605
    141  C        -14.5410   17.0070    1.8190 C.2   136  PHE136      0.2264
    142  O        -14.8780   17.9620    1.1120 O.2   136  PHE136     -0.2867
    143  CB       -12.6330   17.5650    3.2920 C.3   136  PHE136      0.0534
    144  CG       -11.2400   17.2690    3.7490 C.ar  136  PHE136     -0.0203
    145  CD1      -10.1790   18.0340    3.3080 C.ar  136  PHE136     -0.0042
    146  CD2      -10.9930   16.2350    4.6260 C.ar  136  PHE136     -0.0042
    147  CE1       -8.8940   17.7720    3.7230 C.ar  136  PHE136     -0.0003
    148  CE2       -9.7120   15.9600    5.0430 C.ar  136  PHE136     -0.0003
    149  CZ        -8.6580   16.7330    4.5920 C.ar  136  PHE136     -0.0000
    150  N         -8.5330   20.7250    0.4190 N.3   146  GLY146     -0.1210
    151  CA        -7.4720   21.1590    1.3140 C.3   146  GLY146      0.1956
    152  C         -6.1170   20.7020    0.8200 C.2   146  GLY146      0.2612
    153  O         -6.0350   19.9980   -0.1850 O.2   146  GLY146     -0.2717
    154  N         -5.0570   21.1220    1.5140 N.am  147  ASP147     -0.1959
    155  CA        -3.7210   20.5230    1.3680 C.3   147  ASP147      0.1840
    156  C         -3.0020   20.8970    0.0710 C.2   147  ASP147      0.2622
    157  O         -2.8440   20.0590   -0.8110 O.2   147  ASP147     -0.2715
    158  CB        -3.8160   18.9960    1.5150 C.3   147  ASP147      0.1450
    159  CG        -2.4730   18.3320    1.7380 C.2   147  ASP147      0.3671
    160  OD1       -2.1710   17.3670    1.0020 O.co2 147  ASP147     -0.2456
    161  OD2       -1.7380   18.7510    2.6570 O.co2 147  ASP147     -0.2456
    162  N         -2.5730   22.1550   -0.0360 N.am  148  PHE148     -0.1960
    163  CA        -1.7270   22.6050   -1.1510 C.3   148  PHE148      0.1771
    164  C         -0.6770   23.6260   -0.7290 C.2   148  PHE148      0.2620
    165  O          0.2080   23.9830   -1.5100 O.2   148  PHE148     -0.2715
    166  CB        -2.5550   23.1180   -2.3380 C.3   148  PHE148      0.0574
    167  CG        -3.6390   24.0700   -1.9540 C.ar  148  PHE148     -0.0200
    168  CD1       -4.9570   23.6550   -1.9310 C.ar  148  PHE148     -0.0042
    169  CD2       -3.3440   25.3810   -1.6160 C.ar  148  PHE148     -0.0042
    170  CE1       -5.9640   24.5320   -1.5740 C.ar  148  PHE148     -0.0003
    171  CE2       -4.3440   26.2640   -1.2590 C.ar  148  PHE148     -0.0003
    172  CZ        -5.6560   25.8410   -1.2360 C.ar  148  PHE148     -0.0000
    173  N         -0.7900   24.0970    0.5080 N.am  149  GLY149     -0.1954
    174  CA         0.2790   24.8640    1.1470 C.3   149  GLY149      0.1869
    175  C          1.5300   24.0090    1.2880 C.2   149  GLY149      0.2309
    176  O          1.4430   22.7740    1.3920 O.2   149  GLY149     -0.2863
@<TRIPOS>BOND
     1    59    57    1
     2    57    56    1
     3    51    49    1
     4   166   167    1
     5   166   163    1
     6   167   168   ar
     7   167   169   ar
     8   168   170   ar
     9   169   171   ar
    10   170   172   ar
    11   165   164    2
    12    49    46    1
    13    49    50    1
    14    46    45    1
    15    46    47    1
    16   171   172   ar
    17    52    53    1
    18    56    53    1
    19    56    58    1
    20   163   164    1
    21   163   162    1
    22   157   156    2
    23   164   173   am
    24    53    54    1
    25    47    48    2
    26   153   152    2
    27   162   156   am
    28   156   155    1
    29   150   151    1
    30   173   174    1
    31    37    38    1
    32   152   151    1
    33   152   154   am
    34    40    39    2
    35    54    60   am
    36    54    55    2
    37   139   140    1
    38   160   159   ar
    39   142   141    2
    40   174   175    1
    41   175   176    2
    42    38    39    1
    43    38    41    1
    44   155   154    1
    45   155   158    1
    46    60    61    1
    47   158   159    1
    48   159   161   ar
    49   141   140    1
    50    44    42    1
    51   138   137    1
    52   140   143    1
    53   135   136    2
    54   135   134    1
    55    41    42    1
    56    42    43    1
    57    61    64    1
    58    61    62    1
    59    63    62    2
    60    64    65    1
    61   143   144    1
    62   145   147   ar
    63   145   144   ar
    64   134   137    1
    65   134   133    1
    66   147   149   ar
    67   144   146   ar
    68   130   129    2
    69   149   148   ar
    70   146   148   ar
    71   133   129   am
    72    65    67    1
    73    65    66    1
    74   129   128    1
    75    72    73    1
    76    72    69    1
    77    68    69    1
    78   101   100    2
    79    36    35    1
    80    73    75   ar
    81    73    74   ar
    82    69    70    1
    83    75    77   ar
    84   131   128    1
    85   131   132    1
    86   128   127    1
    87    74    76   ar
    88   127   125   am
    89   100   102   am
    90   100    99    1
    91    35    34    1
    92    86    84    1
    93    71    70    2
    94    77    78   ar
    95   122   121    1
    96    76    78   ar
    97    93    91    1
    98    99    98    1
    99   125   124    1
   100   125   126    2
   101   124   123    1
   102   121   118    1
   103    85    83    1
   104    84    83    1
   105    34    33    1
   106    91    92    1
   107    91    88    1
   108    83    80    1
   109    98    95    1
   110   118   119    1
   111   118   117    1
   112    33    32    1
   113    97    96    2
   114    88    89    1
   115    88    87    1
   116    94    95    1
   117    94    89   am
   118   106   105    2
   119    15    13    1
   120    32    29    1
   121   119   120    2
   122    95    96    1
   123   117   105   am
   124    96   103   am
   125    89    90    2
   126    80    81    1
   127    80    79    1
   128   105   104    1
   129    81    82    2
   130    14    13    1
   131    13    10    1
   132   103   104    1
   133    20    17    1
   134    29    28    1
   135    29    30    1
   136   104   107    1
   137    28    23   am
   138    31    30    2
   139     4     3    2
   140     9    10    1
   141     6     8    1
   142     6     5    1
   143    10    11    1
   144    19    18    2
   145    17    18    1
   146    17    16    1
   147     3     2    1
   148    18    21   am
   149   113   115   ar
   150   113   110   ar
   151   107   108    1
   152   115   116   ar
   153    23    22    1
   154    23    24    2
   155   110   108   ar
   156   110   112   ar
   157   108   109   ar
   158   116   114   ar
   159    21    22    1
   160   112   114   ar
   161   112   111   ar
   162   109   111   ar
   163     5     2    1
   164     5     7    1
   165    22    25    1
   166    11    12    2
   167     2     1    1
   168    25    26    1
   169    25    27    1
