@<TRIPOS>MOLECULE
tmp/4ehiA00.pdb
 116 107 0 0 0
SMALL
GASTEIGER

@<TRIPOS>ATOM
      1  N         39.3090   11.0670  -23.7510 N.3     4  THR4       -0.1218
      2  CA        40.0400   11.4820  -22.5420 C.3     4  THR4        0.1862
      3  C         40.2220   10.2790  -21.5780 C.2     4  THR4        0.2287
      4  O         41.1850   10.2550  -20.8200 O.2     4  THR4       -0.2866
      5  CB        39.3460   12.6790  -21.8690 C.3     4  THR4        0.1770
      6  OG1       37.9670   12.3710  -21.6560 O.3     4  THR4       -0.2211
      7  CG2       39.4610   13.9570  -22.6870 C.3     4  THR4        0.0375
      8  N         47.1420   18.4290  -23.0610 N.3    16  LEU16      -0.1245
      9  CA        45.6890   18.3530  -23.2310 C.3    16  LEU16       0.1561
     10  C         45.1030   19.7270  -22.8910 C.2    16  LEU16       0.2260
     11  O         45.2880   20.2410  -21.7770 O.2    16  LEU16      -0.2867
     12  CB        45.0100   17.2480  -22.4120 C.3    16  LEU16       0.0270
     13  CG        43.4480   17.2970  -22.4400 C.3    16  LEU16       0.0019
     14  CD1       42.8590   16.9770  -23.8310 C.3    16  LEU16       0.0001
     15  CD2       42.8600   16.4250  -21.3960 C.3    16  LEU16       0.0001
     16  N         41.5860   21.7410  -22.8610 N.3    18  SER18      -0.1202
     17  CA        40.1280   21.6410  -22.8870 C.3    18  SER18       0.2020
     18  C         39.5540   22.6520  -21.8810 C.2    18  SER18       0.2619
     19  O         39.4910   22.3710  -20.6770 O.2    18  SER18      -0.2717
     20  CB        39.7150   20.2080  -22.5760 C.3    18  SER18       0.2103
     21  OG        38.3240   20.0400  -22.7800 O.3    18  SER18      -0.2182
     22  N         39.2000   23.8570  -22.3770 N.am   19  VAL19      -0.1965
     23  CA        38.7880   24.9730  -21.5180 C.3    19  VAL19       0.1727
     24  C         37.3970   25.5900  -21.8470 C.2    19  VAL19       0.2616
     25  O         37.0090   25.6780  -23.0210 O.2    19  VAL19      -0.2715
     26  CB        39.8750   26.0870  -21.5330 C.3    19  VAL19       0.0290
     27  CG1       41.1410   25.6300  -20.8310 C.3    19  VAL19       0.0023
     28  CG2       40.1990   26.5530  -22.9630 C.3    19  VAL19       0.0023
     29  N         36.6830   26.0640  -20.7820 N.am   20  SER20      -0.1950
     30  CA        35.4070   26.7960  -20.8870 C.3    20  SER20       0.1924
     31  C         35.7350   28.2550  -21.1650 C.2    20  SER20       0.2314
     32  O         35.1370   28.8720  -22.0400 O.2    20  SER20      -0.2863
     33  CB        34.5690   26.6710  -19.6100 C.3    20  SER20       0.2116
     34  OG        34.4390   25.3160  -19.2170 O.3    20  SER20      -0.2180
     35  N         38.1260   30.3590  -22.8140 N.3    22  LYS22      -0.1245
     36  CA        39.0570   30.2140  -23.9410 C.3    22  LYS22       0.1561
     37  C         40.0190   31.4070  -24.1290 C.2    22  LYS22       0.2260
     38  O         40.7930   31.4050  -25.0830 O.2    22  LYS22      -0.2867
     39  CB        38.2490   29.9690  -25.2240 C.3    22  LYS22       0.0271
     40  CG        37.6930   28.5490  -25.2700 C.3    22  LYS22       0.0035
     41  CD        36.5280   28.3920  -26.2220 C.3    22  LYS22       0.0206
     42  CE        36.0660   26.9520  -26.2660 C.3    22  LYS22       0.1093
     43  NZ        35.3090   26.5580  -25.0400 N.3    22  LYS22      -0.1314
     44  N         39.6870   19.0580  -27.2290 N.3    42  THR42      -0.1218
     45  CA        38.2960   18.5940  -27.3650 C.3    42  THR42       0.1862
     46  C         37.3570   19.7250  -27.8040 C.2    42  THR42       0.2287
     47  O         37.6610   20.8890  -27.5450 O.2    42  THR42      -0.2866
     48  CB        37.7790   18.0450  -26.0100 C.3    42  THR42       0.1770
     49  OG1       37.6790   19.1250  -25.0830 O.3    42  THR42      -0.2211
     50  CG2       38.6540   16.9450  -25.4230 C.3    42  THR42       0.0375
     51  N         37.3900   23.9970  -28.1690 N.3    45  THR45      -0.1218
     52  CA        38.8020   24.3330  -27.9880 C.3    45  THR45       0.1862
     53  C         39.5950   23.7890  -29.1910 C.2    45  THR45       0.2287
     54  O         40.3970   24.5250  -29.7620 O.2    45  THR45      -0.2866
     55  CB        39.3500   23.8180  -26.6210 C.3    45  THR45       0.1770
     56  OG1       38.4930   24.2550  -25.5630 O.3    45  THR45      -0.2211
     57  CG2       40.7650   24.3040  -26.3400 C.3    45  THR45       0.0375
     58  N         35.2680   13.7360  -25.6590 N.3    61  ASP61      -0.1239
     59  CA        34.8660   13.8980  -24.2660 C.3    61  ASP61       0.1674
     60  C         34.1270   12.6570  -23.8270 C.2    61  ASP61       0.2266
     61  O         33.3110   12.1360  -24.5930 O.2    61  ASP61      -0.2867
     62  CB        33.9480   15.1200  -24.0950 C.3    61  ASP61       0.1410
     63  CG        34.6140   16.4480  -24.3510 C.2    61  ASP61       0.3668
     64  OD1       35.6940   16.6900  -23.7660 O.co2  61  ASP61      -0.2456
     65  OD2       34.0260   17.2730  -25.0910 O.co2  61  ASP61      -0.2456
     66  N         42.9940   22.8460  -18.1120 N.3    72  VAL72      -0.1231
     67  CA        41.5350   22.7320  -18.0090 C.3    72  VAL72       0.1692
     68  C         40.9840   23.8010  -17.0420 C.2    72  VAL72       0.2592
     69  O         41.5570   24.0220  -15.9780 O.2    72  VAL72      -0.2718
     70  CB        41.1080   21.2810  -17.5810 C.3    72  VAL72       0.0266
     71  CG1       39.6160   21.1910  -17.2760 C.3    72  VAL72       0.0020
     72  CG2       41.4840   20.2550  -18.6550 C.3    72  VAL72       0.0020
     73  N         39.8800   24.4700  -17.4260 N.am   73  ASN73      -0.1974
     74  CA        39.1810   25.4310  -16.5620 C.3    73  ASN73       0.1688
     75  C         37.6510   25.1920  -16.7150 C.2    73  ASN73       0.2292
     76  O         37.2010   24.5440  -17.6690 O.2    73  ASN73      -0.2864
     77  CB        39.6200   26.8890  -16.7710 C.3    73  ASN73       0.1181
     78  CG        39.3560   27.4410  -18.1400 C.2    73  ASN73       0.2629
     79  OD1       38.2570   27.3030  -18.6810 O.2    73  ASN73      -0.2716
     80  ND2       40.3370   28.1530  -18.6880 N.am   73  ASN73      -0.0877
     81  N         33.1500   25.6440  -16.2220 N.3    75  TYR75      -0.1241
     82  CA        31.8720   26.3180  -16.5590 C.3    75  TYR75       0.1605
     83  C         31.6450   27.5180  -15.6260 C.2    75  TYR75       0.2264
     84  O         31.8690   27.3770  -14.4200 O.2    75  TYR75      -0.2867
     85  CB        30.6520   25.3920  -16.4450 C.3    75  TYR75       0.0534
     86  CG        30.5380   24.2530  -17.4370 C.ar   75  TYR75      -0.0201
     87  CD1       31.3100   24.2270  -18.5940 C.ar   75  TYR75      -0.0009
     88  CD2       29.6180   23.2280  -17.2440 C.ar   75  TYR75      -0.0009
     89  CE1       31.2190   23.1740  -19.4950 C.ar   75  TYR75       0.0417
     90  CE2       29.5140   22.1720  -18.1420 C.ar   75  TYR75       0.0417
     91  CZ        30.3170   22.1480  -19.2660 C.ar   75  TYR75       0.1957
     92  OH        30.1900   21.1240  -20.1690 O.3    75  TYR75      -0.2866
     93  N         30.1060   22.4960  -13.5300 N.3    94  ASP94      -0.1225
     94  CA        31.0450   21.6690  -14.2720 C.3    94  ASP94       0.1805
     95  C         31.2670   20.3060  -13.5910 C.2    94  ASP94       0.2598
     96  O         31.6100   20.2330  -12.3980 O.2    94  ASP94      -0.2718
     97  CB        32.3920   22.3980  -14.4290 C.3    94  ASP94       0.1424
     98  CG        33.1870   21.9190  -15.6240 C.2    94  ASP94       0.3668
     99  OD1       33.3850   20.6950  -15.7520 O.co2  94  ASP94      -0.2456
    100  OD2       33.6160   22.7690  -16.4250 O.co2  94  ASP94      -0.2456
    101  N         31.0780   19.2250  -14.3600 N.am   95  ILE95      -0.1966
    102  CA        31.3720   17.8720  -13.8950 C.3    95  ILE95       0.1727
    103  C         32.3450   17.2540  -14.9270 C.2    95  ILE95       0.2617
    104  O         32.1650   17.4360  -16.1290 O.2    95  ILE95      -0.2715
    105  CB        30.1100   17.0120  -13.5890 C.3    95  ILE95       0.0290
    106  CG1       29.2090   16.8390  -14.8270 C.3    95  ILE95       0.0022
    107  CG2       29.3280   17.5790  -12.3470 C.3    95  ILE95       0.0023
    108  CD1       28.2430   15.7140  -14.7170 C.3    95  ILE95       0.0001
    109  N         33.4060   16.6120  -14.4530 N.am   96  GLY96      -0.1940
    110  CA        34.4470   16.0870  -15.3370 C.3    96  GLY96       0.2014
    111  C         35.6790   16.9680  -15.2740 C.2    96  GLY96       0.2639
    112  O         36.7710   16.4780  -14.9910 O.2    96  GLY96      -0.2714
    113  N         35.4870   18.2740  -15.4840 N.am   97  GLY97      -0.1954
    114  CA        36.5170   19.3090  -15.3760 C.3    97  GLY97       0.1869
    115  C         37.2250   19.2860  -14.0220 C.2    97  GLY97       0.2309
    116  O         38.4440   19.1000  -13.9850 O.2    97  GLY97      -0.2863
@<TRIPOS>BOND
     1    54    53    2
     2    53    52    1
     3    51    52    1
     4    52    55    1
     5    46    47    2
     6    46    45    1
     7    45    44    1
     8    45    48    1
     9    55    57    1
    10    55    56    1
    11    42    41    1
    12    42    43    1
    13    41    40    1
    14    48    50    1
    15    48    49    1
    16    58    59    1
    17    40    39    1
    18    39    36    1
    19    65    63   ar
    20    38    37    2
    21    61    60    2
    22    63    62    1
    23    63    64   ar
    24    59    62    1
    25    59    60    1
    26    37    36    1
    27    36    35    1
    28    14    13    1
    29     1     2    1
    30     9     8    1
    31     9    10    1
    32     9    12    1
    33    25    24    2
    34    28    26    1
    35    10    11    2
    36    17    16    1
    37    17    20    1
    38    17    18    1
    39    21    20    1
    40     7     5    1
    41     2     5    1
    42     2     3    1
    43    13    12    1
    44    13    15    1
    45    22    18   am
    46    22    23    1
    47    32    31    2
    48    18    19    2
    49     5     6    1
    50    24    23    1
    51    24    29   am
    52     3     4    2
    53    26    23    1
    54    26    27    1
    55    31    30    1
    56    30    29    1
    57    30    33    1
    58    92    91    1
    59    33    34    1
    60    89    91   ar
    61    89    87   ar
    62    91    90   ar
    63    80    78   am
    64    79    78    2
    65    72    70    1
    66    87    86   ar
    67    90    88   ar
    68    78    77    1
    69    66    67    1
    70    67    70    1
    71    67    68    1
    72    76    75    2
    73    70    71    1
    74    86    88   ar
    75    86    85    1
    76    73    68   am
    77    73    74    1
    78    68    69    2
    79    77    74    1
    80    75    74    1
    81    82    85    1
    82    82    81    1
    83    82    83    1
    84   100    98   ar
    85   104   103    2
    86    99    98   ar
    87    83    84    2
    88    98    97    1
    89   113   114    1
    90   113   111   am
    91   114   115    1
    92   110   111    1
    93   110   109    1
    94   111   112    2
    95   103   109   am
    96   103   102    1
    97   106   108    1
    98   106   105    1
    99    97    94    1
   100   101   102    1
   101   101    95   am
   102    94    95    1
   103    94    93    1
   104   115   116    2
   105   102   105    1
   106    95    96    2
   107   105   107    1
