@<TRIPOS>MOLECULE
tmp/4ehmB00.pdb
 160 159 0 0 0
SMALL
GASTEIGER

@<TRIPOS>ATOM
      1  N          8.0770   27.4770   35.2910 N.3    38  TYR38      -0.1227
      2  CA         9.1900   27.3380   34.3300 C.3    38  TYR38       0.1736
      3  C          8.7830   27.4930   32.8460 C.2    38  TYR38       0.2595
      4  O          9.6410   27.5530   31.9770 O.2    38  TYR38      -0.2718
      5  CB         9.8920   25.9740   34.5410 C.3    38  TYR38       0.0548
      6  CG         9.0870   24.8120   34.0240 C.ar   38  TYR38      -0.0200
      7  CD1        8.0490   24.2760   34.7680 C.ar   38  TYR38      -0.0009
      8  CD2        9.3470   24.2670   32.7760 C.ar   38  TYR38      -0.0009
      9  CE1        7.2910   23.2220   34.2870 C.ar   38  TYR38       0.0417
     10  CE2        8.5930   23.2110   32.2820 C.ar   38  TYR38       0.0417
     11  CZ         7.5750   22.6900   33.0460 C.ar   38  TYR38       0.1957
     12  OH         6.8200   21.6560   32.5640 O.3    38  TYR38      -0.2866
     13  N          7.4860   27.5050   32.5570 N.am   39  LEU39      -0.1980
     14  CA         6.9960   27.7670   31.2020 C.3    39  LEU39       0.1596
     15  C          5.9960   28.9050   31.1070 C.2    39  LEU39       0.2287
     16  O          5.3100   29.0320   30.0950 O.2    39  LEU39      -0.2864
     17  CB         6.4020   26.4900   30.6090 C.3    39  LEU39       0.0297
     18  CG         5.3030   25.7620   31.3640 C.3    39  LEU39       0.0022
     19  CD1        4.0150   26.5380   31.2960 C.3    39  LEU39       0.0001
     20  CD2        5.1540   24.4010   30.7070 C.3    39  LEU39       0.0001
     21  N          5.0600   30.9320   27.9500 N.3    42  SER42      -0.1217
     22  CA         4.4390   30.1740   26.8590 C.3    42  SER42       0.1889
     23  C          2.9940   29.8600   27.1670 C.2    42  SER42       0.2288
     24  O          2.1640   29.8910   26.2750 O.2    42  SER42      -0.2866
     25  CB         5.2250   28.8920   26.5840 C.3    42  SER42       0.2089
     26  OG         6.4410   29.1970   25.9380 O.3    42  SER42      -0.2183
     27  N         -0.1210   30.8580   25.0530 N.3    46  TRP46      -0.1241
     28  CA        -1.2310   29.9540   24.7010 C.3    46  TRP46       0.1605
     29  C         -2.5970   30.5780   25.0250 C.2    46  TRP46       0.2264
     30  O         -3.4880   30.6070   24.1930 O.2    46  TRP46      -0.2867
     31  CB        -1.1420   28.5820   25.3990 C.3    46  TRP46       0.0550
     32  CG         0.1500   27.8580   25.2420 C.ar   46  TRP46       0.0003
     33  CD1        0.9720   27.8920   24.1650 C.ar   46  TRP46       0.0946
     34  CD2        0.7720   26.9890   26.1970 C.ar   46  TRP46       0.0152
     35  NE1        2.0650   27.0940   24.3800 N.ar   46  TRP46      -0.2442
     36  CE2        1.9710   26.5320   25.6220 C.ar   46  TRP46       0.0810
     37  CE3        0.4320   26.5550   27.4810 C.ar   46  TRP46       0.0012
     38  CZ2        2.8460   25.6750   26.2930 C.ar   46  TRP46       0.0191
     39  CZ3        1.2890   25.7020   28.1470 C.ar   46  TRP46       0.0001
     40  CH2        2.4820   25.2650   27.5450 C.ar   46  TRP46       0.0015
     41  N         12.8750   29.4720   23.4460 N.3    90  LEU90      -0.1231
     42  CA        11.4660   29.0970   23.4910 C.3    90  LEU90       0.1693
     43  C         10.6250   30.2580   24.0150 C.2    90  LEU90       0.2592
     44  O          9.5950   30.5900   23.4360 O.2    90  LEU90      -0.2718
     45  CB        11.2680   27.8630   24.3810 C.3    90  LEU90       0.0284
     46  CG        11.7380   26.5220   23.8340 C.3    90  LEU90       0.0019
     47  CD1       11.9180   25.5000   24.9960 C.3    90  LEU90       0.0001
     48  CD2       10.7850   25.9440   22.7550 C.3    90  LEU90       0.0001
     49  N         11.0910   30.8690   25.1090 N.am   91  TYR91      -0.1976
     50  CA        10.3640   31.9380   25.7840 C.3    91  TYR91       0.1639
     51  C         10.6290   33.2450   25.1020 C.2    91  TYR91       0.2290
     52  O          9.7710   34.1340   25.1460 O.2    91  TYR91      -0.2864
     53  CB        10.7070   31.9600   27.2730 C.3    91  TYR91       0.0560
     54  CG        10.5500   30.5680   27.7920 C.ar   91  TYR91      -0.0198
     55  CD1        9.3340   29.9190   27.6570 C.ar   91  TYR91      -0.0009
     56  CD2       11.6400   29.8470   28.3110 C.ar   91  TYR91      -0.0009
     57  CE1        9.1690   28.6270   28.0570 C.ar   91  TYR91       0.0417
     58  CE2       11.4840   28.5360   28.7120 C.ar   91  TYR91       0.0417
     59  CZ        10.2340   27.9400   28.5820 C.ar   91  TYR91       0.1957
     60  OH        10.0120   26.6590   28.9400 O.3    91  TYR91      -0.2866
     61  N         13.8680   22.4530   16.6980 N.3   138  ARG138     -0.1245
     62  CA        12.8520   23.2970   17.3950 C.3   138  ARG138      0.1563
     63  C         13.3860   24.7030   17.5210 C.2   138  ARG138      0.2260
     64  O         12.6460   25.6730   17.3390 O.2   138  ARG138     -0.2867
     65  CB        12.5670   22.8370   18.8250 C.3   138  ARG138      0.0307
     66  CG        11.4180   21.9440   19.0370 C.3   138  ARG138      0.0489
     67  CD        11.2160   21.7060   20.5780 C.3   138  ARG138      0.2205
     68  NE        12.4420   21.1190   21.1240 N.pl3 138  ARG138     -0.0865
     69  CZ        12.7170   20.9440   22.4050 C.cat 138  ARG138      0.5346
     70  NH1       11.8340   21.2620   23.3410 N.pl3 138  ARG138      0.1354
     71  NH2       13.8880   20.4350   22.7400 N.pl3 138  ARG138      0.1354
     72  N          9.1340   12.9420   13.8590 N.3   184  HIS184     -0.1241
     73  CA         7.8430   12.9290   14.5540 C.3   184  HIS184      0.1621
     74  C          7.1250   14.2380   14.3790 C.2   184  HIS184      0.2264
     75  O          7.7360   15.2040   14.0300 O.2   184  HIS184     -0.2867
     76  CB         7.9940   12.6010   16.0390 C.3   184  HIS184      0.0745
     77  CG         8.9670   13.4700   16.7690 C.ar  184  HIS184      0.0817
     78  ND1       10.3290   13.2580   16.7300 N.ar  184  HIS184     -0.2268
     79  CD2        8.7720   14.5060   17.6210 C.ar  184  HIS184      0.1154
     80  CE1       10.9330   14.1540   17.5000 C.ar  184  HIS184      0.1986
     81  NE2       10.0090   14.9220   18.0520 N.ar  184  HIS184     -0.2212
     82  N          5.9250   16.8280   16.0320 N.3   186  GLY186     -0.1210
     83  CA         6.2910   18.1290   16.6150 C.3   186  GLY186      0.1956
     84  C          7.4940   18.6860   15.8950 C.2   186  GLY186      0.2611
     85  O          7.5710   19.8700   15.6080 O.2   186  GLY186     -0.2717
     86  N          8.3980   17.7890   15.5440 N.am  187  GLN187     -0.1979
     87  CA         9.6270   18.1390   14.8370 C.3   187  GLN187      0.1601
     88  C          9.3860   18.5090   13.4100 C.2   187  GLN187      0.2287
     89  O          9.9710   19.4480   12.8950 O.2   187  GLN187     -0.2864
     90  CB        10.5470   16.9340   14.8720 C.3   187  GLN187      0.0394
     91  CG        11.9800   17.3260   15.0680 C.3   187  GLN187      0.0908
     92  CD        12.2090   17.9310   16.3920 C.2   187  GLN187      0.2608
     93  OE1       11.7960   17.3780   17.4280 O.2   187  GLN187     -0.2717
     94  NE2       12.8090   19.1100   16.3890 N.am  187  GLN187     -0.0878
     95  N          6.5620   19.7530   12.3000 N.3   189  TYR189     -0.1227
     96  CA         5.9510   21.0970   12.3810 C.3   189  TYR189      0.1736
     97  C          7.0100   22.1920   12.4490 C.2   189  TYR189      0.2595
     98  O          7.0020   23.1590   11.6720 O.2   189  TYR189     -0.2718
     99  CB         5.0090   21.1810   13.5890 C.3   189  TYR189      0.0548
    100  CG         4.5610   22.5790   13.8750 C.ar  189  TYR189     -0.0200
    101  CD1        3.5590   23.1650   13.1330 C.ar  189  TYR189     -0.0009
    102  CD2        5.1500   23.3130   14.8920 C.ar  189  TYR189     -0.0009
    103  CE1        3.1370   24.4740   13.4100 C.ar  189  TYR189      0.0417
    104  CE2        4.7660   24.6040   15.1670 C.ar  189  TYR189      0.0417
    105  CZ         3.7650   25.1850   14.4150 C.ar  189  TYR189      0.1957
    106  OH         3.3780   26.4570   14.7050 O.3   189  TYR189     -0.2866
    107  N          7.9560   22.0450   13.3530 N.am  190  CYS190     -0.1970
    108  CA         9.0290   23.0290   13.4960 C.3   190  CYS190      0.1712
    109  C          9.7950   23.2030   12.1960 C.2   190  CYS190      0.2296
    110  O         10.0800   24.3110   11.7480 O.2   190  CYS190     -0.2864
    111  CB         9.9710   22.6000   14.6200 C.3   190  CYS190      0.0983
    112  SG         9.2810   22.7280   16.2760 S.3   190  CYS190     -0.0798
    113  N         -0.4440   16.7130   18.9400 N.3   235  TYR235     -0.1241
    114  CA        -0.0380   15.9760   17.7150 C.3   235  TYR235      0.1605
    115  C         -0.9320   16.2780   16.5400 C.2   235  TYR235      0.2264
    116  O         -0.4620   16.3900   15.4180 O.2   235  TYR235     -0.2867
    117  CB        -0.0690   14.4690   17.9180 C.3   235  TYR235      0.0534
    118  CG         0.7400   13.9550   19.0850 C.ar  235  TYR235     -0.0201
    119  CD1        1.8920   14.6050   19.5090 C.ar  235  TYR235     -0.0009
    120  CD2        0.3600   12.7760   19.7390 C.ar  235  TYR235     -0.0009
    121  CE1        2.6300   14.1410   20.5780 C.ar  235  TYR235      0.0417
    122  CE2        1.0890   12.2820   20.8030 C.ar  235  TYR235      0.0417
    123  CZ         2.2260   12.9670   21.2190 C.ar  235  TYR235      0.1957
    124  OH         2.9570   12.4870   22.2790 O.3   235  TYR235     -0.2866
    125  N         -0.0480   19.8500   15.1660 N.3   238  TRP238     -0.1241
    126  CA         1.2540   19.7850   14.4380 C.3   238  TRP238      0.1605
    127  C          1.1550   19.1260   13.0800 C.2   238  TRP238      0.2264
    128  O          1.6710   19.6580   12.0750 O.2   238  TRP238     -0.2867
    129  CB         2.3270   19.1070   15.2820 C.3   238  TRP238      0.0550
    130  CG         2.7120   19.9660   16.4060 C.ar  238  TRP238      0.0003
    131  CD1        2.7390   21.3490   16.4370 C.ar  238  TRP238      0.0946
    132  CD2        3.0580   19.5310   17.7230 C.ar  238  TRP238      0.0152
    133  NE1        3.0930   21.7780   17.6950 N.ar  238  TRP238     -0.2442
    134  CE2        3.3170   20.6790   18.4890 C.ar  238  TRP238      0.0810
    135  CE3        3.2200   18.2770   18.3060 C.ar  238  TRP238      0.0012
    136  CZ2        3.7160   20.6050   19.8160 C.ar  238  TRP238      0.0191
    137  CZ3        3.6130   18.2030   19.6130 C.ar  238  TRP238      0.0001
    138  CH2        3.8600   19.3540   20.3560 C.ar  238  TRP238      0.0015
    139  N         -2.8060   24.3990   26.9970 N.3   283  PHE283     -0.1241
    140  CA        -1.9260   24.0460   25.8940 C.3   283  PHE283      0.1605
    141  C         -2.8270   23.3740   24.8450 C.2   283  PHE283      0.2264
    142  O         -2.9460   23.8470   23.6960 O.2   283  PHE283     -0.2867
    143  CB        -0.8040   23.1380   26.4370 C.3   283  PHE283      0.0534
    144  CG         0.0890   22.5130   25.4050 C.ar  283  PHE283     -0.0203
    145  CD1       -0.0360   21.1690   25.0850 C.ar  283  PHE283     -0.0042
    146  CD2        1.1080   23.2320   24.8150 C.ar  283  PHE283     -0.0042
    147  CE1        0.8020   20.5690   24.1700 C.ar  283  PHE283     -0.0003
    148  CE2        1.9600   22.6310   23.8740 C.ar  283  PHE283     -0.0003
    149  CZ         1.8100   21.2960   23.5700 C.ar  283  PHE283     -0.0000
    150  N         -4.4560   24.4330   20.9240 N.3   287  PHE287     -0.1241
    151  CA        -4.3100   23.5220   19.7870 C.3   287  PHE287      0.1605
    152  C         -5.6310   22.9350   19.2550 C.2   287  PHE287      0.2264
    153  O         -5.8170   22.8290   18.0290 O.2   287  PHE287     -0.2867
    154  CB        -3.2730   22.4510   20.1290 C.3   287  PHE287      0.0534
    155  CG        -1.8500   22.9840   20.1740 C.ar  287  PHE287     -0.0203
    156  CD1       -1.5050   24.1700   19.5290 C.ar  287  PHE287     -0.0042
    157  CD2       -0.8550   22.2760   20.8110 C.ar  287  PHE287     -0.0042
    158  CE1       -0.2360   24.6480   19.5620 C.ar  287  PHE287     -0.0003
    159  CE2        0.4590   22.7450   20.8140 C.ar  287  PHE287     -0.0003
    160  CZ         0.7600   23.9330   20.1960 C.ar  287  PHE287     -0.0000
@<TRIPOS>BOND
     1    98    97    2
     2   110   109    2
     3   128   127    2
     4   109   108    1
     5    95    96    1
     6    96    97    1
     7    96    99    1
     8    97   107   am
     9    89    88    2
    10   127   126    1
    11   101   103   ar
    12   101   100   ar
    13   107   108    1
    14    88    87    1
    15   103   105   ar
    16   108   111    1
    17    99   100    1
    18    72    73    1
    19   100   102   ar
    20    75    74    2
    21    74    73    1
    22   105   106    1
    23   105   104   ar
    24   126   125    1
    25   126   129    1
    26    73    76    1
    27   111   112    1
    28    87    90    1
    29    87    86    1
    30    90    91    1
    31   102   104   ar
    32    91    92    1
    33   129   130    1
    34   116   115    2
    35    86    84   am
    36    85    84    2
    37    84    83    1
    38    82    83    1
    39    76    77    1
    40    94    92   am
    41    92    93    2
    42   130   131   ar
    43   130   132   ar
    44   131   133   ar
    45   115   114    1
    46    61    62    1
    47    78    77   ar
    48    78    80   ar
    49    77    79   ar
    50    64    63    2
    51    62    63    1
    52    62    65    1
    53    80    81   ar
    54    79    81   ar
    55   133   134   ar
    56   114   117    1
    57   114   113    1
    58   132   135   ar
    59   132   134   ar
    60   117   118    1
    61   153   152    2
    62   135   137   ar
    63   134   136   ar
    64    65    66    1
    65    66    67    1
    66   118   119   ar
    67   118   120   ar
    68   152   151    1
    69   119   121   ar
    70   156   158   ar
    71   156   155   ar
    72   158   160   ar
    73   137   138   ar
    74   120   122   ar
    75   151   154    1
    76   151   150    1
    77   136   138   ar
    78   154   155    1
    79   155   157   ar
    80   160   159   ar
    81    67    68    1
    82   121   123   ar
    83   122   123   ar
    84   157   159   ar
    85    68    69    2
    86   123   124    1
    87    69    71    1
    88    69    70    1
    89    48    46    1
    90    44    43    2
    91    41    42    1
    92    42    43    1
    93    42    45    1
    94   149   148   ar
    95   149   147   ar
    96   142   141    2
    97    46    45    1
    98    46    47    1
    99   148   146   ar
   100    43    49   am
   101    33    35   ar
   102    33    32   ar
   103   147   145   ar
   104    30    29    2
   105    35    36   ar
   106    28    29    1
   107    28    27    1
   108    28    31    1
   109   146   144   ar
   110   141   140    1
   111   145   144   ar
   112    51    52    2
   113    51    50    1
   114    49    50    1
   115    32    31    1
   116    32    34   ar
   117   144   143    1
   118    36    34   ar
   119    36    38   ar
   120    50    53    1
   121   140   143    1
   122   140   139    1
   123    26    25    1
   124    34    37   ar
   125    24    23    2
   126    38    40   ar
   127    25    22    1
   128    22    23    1
   129    22    21    1
   130    53    54    1
   131    37    39   ar
   132    40    39   ar
   133    55    54   ar
   134    55    57   ar
   135    54    56   ar
   136    57    59   ar
   137    56    58   ar
   138    59    58   ar
   139    59    60    1
   140    16    15    2
   141    17    14    1
   142    17    18    1
   143    20    18    1
   144    15    14    1
   145    14    13    1
   146    19    18    1
   147     4     3    2
   148    10     8   ar
   149    10    11   ar
   150    13     3   am
   151    12    11    1
   152     8     6   ar
   153     3     2    1
   154    11     9   ar
   155     6     5    1
   156     6     7   ar
   157     9     7   ar
   158     2     5    1
   159     2     1    1
