@<TRIPOS>MOLECULE
tmp/4ehrA00.pdb
 154 147 0 0 0
SMALL
GASTEIGER

@<TRIPOS>ATOM
      1  N         24.9020   35.9100    0.7000 N.3    36  ALA36      -0.1245
      2  CA        23.8880   35.6640    1.7560 C.3    36  ALA36       0.1562
      3  C         23.0140   34.4540    1.3480 C.2    36  ALA36       0.2260
      4  O         22.7550   33.5920    2.1530 O.2    36  ALA36      -0.2867
      5  CB        23.0300   36.9160    1.9890 C.3    36  ALA36       0.0290
      6  N         24.9990   31.2630    1.9220 N.3    39  GLU39      -0.1231
      7  CA        25.0360   31.0220    3.3820 C.3    39  GLU39       0.1699
      8  C         23.7110   30.4920    3.9020 C.2    39  GLU39       0.2592
      9  O         23.7160   29.5320    4.6520 O.2    39  GLU39      -0.2718
     10  CB        25.4470   32.3200    4.1200 C.3    39  GLU39       0.0402
     11  CG        25.4040   32.2770    5.6250 C.3    39  GLU39       0.1161
     12  CD        26.3830   31.3190    6.2710 C.2    39  GLU39       0.3649
     13  OE1       27.4240   30.9910    5.6740 O.co2  39  GLU39      -0.2457
     14  OE2       26.1220   30.8720    7.4140 O.co2  39  GLU39      -0.2457
     15  N         22.5760   31.0500    3.4440 N.am   40  PHE40      -0.1976
     16  CA        21.2410   30.5900    3.8580 C.3    40  PHE40       0.1639
     17  C         21.0150   29.1520    3.4470 C.2    40  PHE40       0.2290
     18  O         20.5680   28.3340    4.2360 O.2    40  PHE40      -0.2864
     19  CB        20.1370   31.4820    3.2560 C.3    40  PHE40       0.0560
     20  CG        18.7630   31.1350    3.7940 C.ar   40  PHE40      -0.0200
     21  CD1       18.3370   31.6190    5.0310 C.ar   40  PHE40      -0.0042
     22  CD2       17.9180   30.2790    3.0940 C.ar   40  PHE40      -0.0042
     23  CE1       17.0800   31.2670    5.5370 C.ar   40  PHE40      -0.0003
     24  CE2       16.6610   29.9360    3.6010 C.ar   40  PHE40      -0.0003
     25  CZ        16.2510   30.4290    4.8170 C.ar   40  PHE40      -0.0000
     26  N         23.2370   26.8240    5.4310 N.3    43  ARG43      -0.1231
     27  CA        22.7730   26.7470    6.8570 C.3    43  ARG43       0.1694
     28  C         21.6150   25.7700    7.0290 C.2    43  ARG43       0.2592
     29  O         21.6200   24.9630    7.9590 O.2    43  ARG43      -0.2718
     30  CB        22.3230   28.1440    7.3390 C.3    43  ARG43       0.0321
     31  CG        21.7340   28.1100    8.7520 C.3    43  ARG43       0.0489
     32  CD        21.5210   29.4860    9.3140 C.3    43  ARG43       0.2205
     33  NE        22.7920   30.1340    9.6290 N.pl3  43  ARG43      -0.0865
     34  CZ        22.9070   31.2760   10.2900 C.cat  43  ARG43       0.5346
     35  NH1       21.8250   31.8960   10.7530 N.pl3  43  ARG43       0.1354
     36  NH2       24.1020   31.8050   10.5020 N.pl3  43  ARG43       0.1354
     37  N         20.6320   25.8340    6.1160 N.am   44  TYR44      -0.1976
     38  CA        19.4170   25.0030    6.1410 C.3    44  TYR44       0.1639
     39  C         19.3540   23.9800    5.0040 C.2    44  TYR44       0.2290
     40  O         18.2580   23.5800    4.5800 O.2    44  TYR44      -0.2864
     41  CB        18.1680   25.8890    6.1270 C.3    44  TYR44       0.0560
     42  CG        18.1430   26.8390    7.3030 C.ar   44  TYR44      -0.0198
     43  CD1       17.9460   26.3700    8.6000 C.ar   44  TYR44      -0.0009
     44  CD2       18.3250   28.2070    7.1220 C.ar   44  TYR44      -0.0009
     45  CE1       17.9610   27.2410    9.6920 C.ar   44  TYR44       0.0417
     46  CE2       18.2870   29.0950    8.2020 C.ar   44  TYR44       0.0417
     47  CZ        18.0990   28.6050    9.4820 C.ar   44  TYR44       0.1957
     48  OH        18.0780   29.4740   10.5300 O.3    44  TYR44      -0.2866
     49  N         16.6350   20.8390    5.2180 N.3    47  ALA47      -0.1231
     50  CA        15.2590   21.3170    5.3170 C.3    47  ALA47       0.1694
     51  C         14.8850   22.1510    4.0870 C.2    47  ALA47       0.2592
     52  O         13.7620   22.0260    3.5880 O.2    47  ALA47      -0.2718
     53  CB        15.0840   22.1380    6.5890 C.3    47  ALA47       0.0304
     54  N         15.8440   22.9700    3.5680 N.am   48  PHE48      -0.1976
     55  CA        15.6250   23.7870    2.3630 C.3    48  PHE48       0.1639
     56  C         15.3880   22.8830    1.1570 C.2    48  PHE48       0.2290
     57  O         14.4580   23.1160    0.3890 O.2    48  PHE48      -0.2864
     58  CB        16.8340   24.7160    2.1090 C.3    48  PHE48       0.0560
     59  CG        16.6930   25.6690    0.9480 C.ar   48  PHE48      -0.0200
     60  CD1       15.8730   26.8010    1.0480 C.ar   48  PHE48      -0.0042
     61  CD2       17.4110   25.4670   -0.2310 C.ar   48  PHE48      -0.0042
     62  CE1       15.7520   27.6960   -0.0190 C.ar   48  PHE48      -0.0003
     63  CE2       17.3060   26.3720   -1.2910 C.ar   48  PHE48      -0.0003
     64  CZ        16.4840   27.4880   -1.1710 C.ar   48  PHE48      -0.0000
     65  N         11.9570   21.1320    1.5190 N.3    51  LEU51      -0.1245
     66  CA        10.8790   22.0660    1.2340 C.3    51  LEU51       0.1561
     67  C         10.6260   22.1800   -0.2720 C.2    51  LEU51       0.2260
     68  O          9.4900   22.0000   -0.7120 O.2    51  LEU51      -0.2867
     69  CB        11.1780   23.4460    1.8470 C.3    51  LEU51       0.0270
     70  CG        10.2330   24.6200    1.4700 C.3    51  LEU51       0.0019
     71  CD1        8.8060   24.3820    1.9780 C.3    51  LEU51       0.0001
     72  CD2       10.7040   25.8790    2.0890 C.3    51  LEU51       0.0001
     73  N          4.4180   29.7770    0.3970 N.3    69  VAL69      -0.1245
     74  CA         5.6820   29.8500    1.1230 C.3    69  VAL69       0.1561
     75  C          5.9940   31.3200    1.4380 C.2    69  VAL69       0.2260
     76  O          6.1900   31.6490    2.6040 O.2    69  VAL69      -0.2867
     77  CB         6.8230   29.1420    0.3580 C.3    69  VAL69       0.0252
     78  CG1        8.1940   29.5090    0.9350 C.3    69  VAL69       0.0019
     79  CG2        6.6190   27.6230    0.3650 C.3    69  VAL69       0.0019
     80  N          3.6200   32.7850    4.1270 N.3    72  GLU72      -0.1231
     81  CA         3.9910   32.2300    5.4260 C.3    72  GLU72       0.1699
     82  C          5.3210   32.8070    5.9020 C.2    72  GLU72       0.2592
     83  O          5.4860   33.0550    7.0990 O.2    72  GLU72      -0.2718
     84  CB         4.0440   30.6810    5.3400 C.3    72  GLU72       0.0402
     85  CG         4.4660   29.9410    6.6110 C.3    72  GLU72       0.1161
     86  CD         3.6960   30.2000    7.8930 C.2    72  GLU72       0.3649
     87  OE1        2.4540   30.3640    7.8350 O.co2  72  GLU72      -0.2457
     88  OE2        4.3370   30.1910    8.9680 O.co2  72  GLU72      -0.2457
     89  N          6.2750   33.0020    4.9620 N.am   73  LEU73      -0.1980
     90  CA         7.6140   33.5300    5.2520 C.3    73  LEU73       0.1596
     91  C          7.5280   34.9280    5.8900 C.2    73  LEU73       0.2287
     92  O          8.0950   35.1540    6.9570 O.2    73  LEU73      -0.2864
     93  CB         8.4590   33.5600    3.9570 C.3    73  LEU73       0.0297
     94  CG         9.8250   34.2450    3.9900 C.3    73  LEU73       0.0022
     95  CD1       10.7810   33.5270    4.9210 C.3    73  LEU73       0.0001
     96  CD2       10.4000   34.3130    2.6330 C.3    73  LEU73       0.0001
     97  N         12.2190   41.2600    7.5580 N.3    79  ASN79      -0.1240
     98  CA        13.5680   41.4380    8.1120 C.3    79  ASN79       0.1653
     99  C         14.5690   41.0020    7.0370 C.2    79  ASN79       0.2266
    100  O         14.1680   40.2770    6.1220 O.2    79  ASN79      -0.2867
    101  CB        13.7770   40.7530    9.4780 C.3    79  ASN79       0.1155
    102  CG        13.7980   39.2500    9.4830 C.2    79  ASN79       0.2627
    103  OD1       14.4020   38.5900    8.6300 O.2    79  ASN79      -0.2716
    104  ND2       13.1750   38.6750   10.4920 N.am   79  ASN79      -0.0877
    105  N         16.9310   38.7320    6.9640 N.3    81  GLY81      -0.1210
    106  CA        17.0360   37.2720    6.8820 C.3    81  GLY81       0.1956
    107  C         15.9610   36.6520    6.0200 C.2    81  GLY81       0.2611
    108  O         16.2570   35.8500    5.1240 O.2    81  GLY81      -0.2717
    109  N         14.6980   37.0690    6.2490 N.am   82  ARG82      -0.1979
    110  CA        13.5570   36.5710    5.4700 C.3    82  ARG82       0.1597
    111  C         13.6210   36.9880    4.0140 C.2    82  ARG82       0.2287
    112  O         13.1850   36.2280    3.1550 O.2    82  ARG82      -0.2864
    113  CB        12.2200   36.9900    6.1080 C.3    82  ARG82       0.0334
    114  CG        12.0310   36.4680    7.5080 C.3    82  ARG82       0.0492
    115  CD        10.7280   37.0060    8.1040 C.3    82  ARG82       0.2205
    116  NE        10.4510   36.4050    9.4060 N.pl3  82  ARG82      -0.0865
    117  CZ         9.9330   37.0590   10.4420 C.cat  82  ARG82       0.5346
    118  NH1        9.6170   38.3440   10.3370 N.pl3  82  ARG82       0.1354
    119  NH2        9.7090   36.4310   11.5810 N.pl3  82  ARG82       0.1354
    120  N         16.4710   37.3380    2.3560 N.3    84  VAL84      -0.1231
    121  CA        17.4700   36.3820    1.8710 C.3    84  VAL84       0.1692
    122  C         16.8020   35.0320    1.5760 C.2    84  VAL84       0.2591
    123  O         16.9550   34.4810    0.4750 O.2    84  VAL84      -0.2718
    124  CB        18.6980   36.2780    2.8190 C.3    84  VAL84       0.0266
    125  CG1       19.6410   35.1620    2.3630 C.3    84  VAL84       0.0020
    126  CG2       19.4550   37.6060    2.8510 C.3    84  VAL84       0.0020
    127  N         15.9430   34.5700    2.5000 N.am   85  ALA85      -0.1980
    128  CA        15.1960   33.3160    2.3000 C.3    85  ALA85       0.1597
    129  C         14.3270   33.3730    1.0360 C.2    85  ALA85       0.2287
    130  O         14.2760   32.3970    0.2810 O.2    85  ALA85      -0.2864
    131  CB        14.3420   33.0250    3.5240 C.3    85  ALA85       0.0319
    132  N         14.6110   30.9310   -1.9880 N.3    89  PHE89      -0.1241
    133  CA        13.4360   30.1490   -2.3450 C.3    89  PHE89       0.1605
    134  C         13.1530   30.2620   -3.8000 C.2    89  PHE89       0.2264
    135  O         13.0620   29.2510   -4.4830 O.2    89  PHE89      -0.2867
    136  CB        12.2110   30.5550   -1.4980 C.3    89  PHE89       0.0534
    137  CG        10.9810   29.7590   -1.8610 C.ar   89  PHE89      -0.0203
    138  CD1       10.9640   28.3740   -1.7270 C.ar   89  PHE89      -0.0042
    139  CD2        9.8630   30.3850   -2.3980 C.ar   89  PHE89      -0.0042
    140  CE1        9.8330   27.6380   -2.0810 C.ar   89  PHE89      -0.0003
    141  CE2        8.7370   29.6460   -2.7580 C.ar   89  PHE89      -0.0003
    142  CZ         8.7250   28.2780   -2.5850 C.ar   89  PHE89      -0.0000
    143  N         25.4700   41.8600    5.8000 N.3   138  TYR138     -0.1241
    144  CA        25.5080   40.4850    5.2610 C.3   138  TYR138      0.1605
    145  C         26.5810   40.2160    4.2090 C.2   138  TYR138      0.2264
    146  O         26.8950   39.0560    3.9620 O.2   138  TYR138     -0.2867
    147  CB        24.1100   40.0980    4.7020 C.3   138  TYR138      0.0534
    148  CG        23.0520   39.9790    5.7750 C.ar  138  TYR138     -0.0201
    149  CD1       22.3380   41.0940    6.2070 C.ar  138  TYR138     -0.0009
    150  CD2       22.8180   38.7650    6.4190 C.ar  138  TYR138     -0.0009
    151  CE1       21.4260   41.0070    7.2560 C.ar  138  TYR138      0.0417
    152  CE2       21.8950   38.6640    7.4570 C.ar  138  TYR138      0.0417
    153  CZ        21.1900   39.7840    7.8620 C.ar  138  TYR138      0.1957
    154  OH        20.2760   39.6770    8.8820 O.3   138  TYR138     -0.2866
@<TRIPOS>BOND
     1   135   134    2
     2   134   133    1
     3   141   142   ar
     4   141   139   ar
     5   142   140   ar
     6   139   137   ar
     7   133   132    1
     8   133   136    1
     9   140   138   ar
    10   137   138   ar
    11   137   136    1
    12    63    64   ar
    13    63    61   ar
    14    64    62   ar
    15    68    67    2
    16    67    66    1
    17    61    59   ar
    18    62    60   ar
    19   130   129    2
    20    77    79    1
    21    77    78    1
    22    77    74    1
    23    57    56    2
    24    73    74    1
    25   123   122    2
    26     1     2    1
    27    59    60   ar
    28    59    58    1
    29   129   128    1
    30    74    75    1
    31    56    55    1
    32    66    65    1
    33    66    69    1
    34     3     2    1
    35     3     4    2
    36    75    76    2
    37    70    69    1
    38    70    71    1
    39    70    72    1
    40   122   121    1
    41   122   127   am
    42     2     5    1
    43   121   120    1
    44   121   124    1
    45     6     7    1
    46    58    55    1
    47   128   127    1
    48   128   131    1
    49    55    54    1
    50   125   124    1
    51    96    94    1
    52   124   126    1
    53    22    24   ar
    54    22    20   ar
    55   112   111    2
    56    19    20    1
    57    19    16    1
    58     7     8    1
    59     7    10    1
    60    15    16    1
    61    15     8   am
    62    17    16    1
    63    17    18    2
    64    54    51   am
    65    52    51    2
    66    24    25   ar
    67    20    21   ar
    68     8     9    2
    69    93    94    1
    70    93    90    1
    71   146   145    2
    72    94    95    1
    73   111   110    1
    74    51    50    1
    75    10    11    1
    76    80    81    1
    77   145   144    1
    78    40    39    2
    79   147   144    1
    80   147   148    1
    81    25    23   ar
    82    89    90    1
    83    89    82   am
    84    39    38    1
    85    21    23   ar
    86   108   107    2
    87    49    50    1
    88    90    91    1
    89   144   143    1
    90    50    53    1
    91    84    81    1
    92    84    85    1
    93    81    82    1
    94    26    27    1
    95   110   113    1
    96   110   109    1
    97    11    12    1
    98    13    12   ar
    99   148   149   ar
   100   148   150   ar
   101    91    92    2
   102    82    83    2
   103   107   109   am
   104   107   106    1
   105   113   114    1
   106    37    38    1
   107    37    28   am
   108   100    99    2
   109    41    38    1
   110    41    42    1
   111   149   151   ar
   112    12    14   ar
   113   150   152   ar
   114    85    86    1
   115    27    28    1
   116    27    30    1
   117   106   105    1
   118    28    29    2
   119    99    98    1
   120    44    42   ar
   121    44    46   ar
   122   151   153   ar
   123    42    43   ar
   124    30    31    1
   125   152   153   ar
   126   114   115    1
   127    97    98    1
   128    87    86   ar
   129   153   154    1
   130    86    88   ar
   131   115   116    1
   132    98   101    1
   133    46    47   ar
   134    43    45   ar
   135   103   102    2
   136    31    32    1
   137    32    33    1
   138   116   117    2
   139   101   102    1
   140    47    45   ar
   141    47    48    1
   142   102   104   am
   143    33    34    2
   144    34    36    1
   145    34    35    1
   146   118   117    1
   147   117   119    1
