@<TRIPOS>MOLECULE
tmp/4ehtA00.pdb
 182 168 0 0 0
SMALL
GASTEIGER

@<TRIPOS>ATOM
      1  N         10.4700   54.0620   15.8780 N.3     7  ASP7       -0.1239
      2  CA        10.9610   55.3130   16.4270 C.3     7  ASP7        0.1674
      3  C          9.9720   56.3600   15.9490 C.2     7  ASP7        0.2266
      4  O          9.9760   56.7360   14.7750 O.2     7  ASP7       -0.2867
      5  CB        12.3810   55.5900   15.9090 C.3     7  ASP7        0.1410
      6  CG        12.9220   56.9410   16.3520 C.2     7  ASP7        0.3668
      7  OD1       12.1950   57.7060   17.0220 O.co2   7  ASP7       -0.2456
      8  OD2       14.0850   57.2420   16.0130 O.co2   7  ASP7       -0.2456
      9  N          9.0070   59.9610   16.2150 N.3     9  GLY9       -0.1210
     10  CA         9.3660   61.3220   16.5980 C.3     9  GLY9        0.1956
     11  C          8.2200   62.2920   16.3400 C.2     9  GLY9        0.2613
     12  O          7.1380   61.8970   15.9050 O.2     9  GLY9       -0.2717
     13  N          8.4450   63.5720   16.5960 N.am   10  SER10      -0.1938
     14  CA         7.3960   64.5520   16.3700 C.3    10  SER10       0.2055
     15  C          7.3510   64.9730   14.9030 C.2    10  SER10       0.2644
     16  O          6.4180   65.6570   14.4910 O.2    10  SER10      -0.2714
     17  CB         7.5960   65.7700   17.2660 C.3    10  SER10       0.2130
     18  OG         8.9020   66.2940   17.0970 O.3    10  SER10      -0.2179
     19  N          8.3430   64.5540   14.1140 N.am   11  THR11      -0.1936
     20  CA         8.3710   64.8960   12.6900 C.3    11  THR11       0.2028
     21  C          8.2140   63.6850   11.7690 C.2    11  THR11       0.2642
     22  O          7.5210   63.7630   10.7570 O.2    11  THR11      -0.2714
     23  CB         9.6920   65.6180   12.3150 C.3    11  THR11       0.1808
     24  OG1        9.8750   66.7460   13.1740 O.3    11  THR11      -0.2208
     25  CG2        9.6560   66.0970   10.8680 C.3    11  THR11       0.0379
     26  N          8.8600   62.5730   12.1170 N.am   12  ALA12      -0.1977
     27  CA         8.8880   61.4010   11.2480 C.3    12  ALA12       0.1597
     28  C          8.7640   60.0980   12.0510 C.2    12  ALA12       0.2287
     29  O          9.2100   60.0080   13.1980 O.2    12  ALA12      -0.2864
     30  CB        10.1600   61.3950   10.4360 C.3    12  ALA12       0.0319
     31  N          9.7470   56.0340   12.0150 N.3    14  LYS14      -0.1245
     32  CA        10.7680   55.1730   11.4210 C.3    14  LYS14       0.1561
     33  C         10.6290   53.7750   11.9760 C.2    14  LYS14       0.2260
     34  O         10.4440   53.6120   13.1780 O.2    14  LYS14      -0.2867
     35  CB        12.1740   55.6720   11.7630 C.3    14  LYS14       0.0271
     36  CG        12.6270   56.9430   11.0260 C.3    14  LYS14       0.0035
     37  CD        12.0040   58.2150   11.6140 C.3    14  LYS14       0.0206
     38  CE        12.5620   58.5660   12.9770 C.3    14  LYS14       0.1093
     39  NZ        12.1210   59.9450   13.3790 N.3    14  LYS14      -0.1314
     40  N          7.2630   60.5210    6.6840 N.3    31  SER31      -0.1217
     41  CA         7.3910   61.8890    7.1790 C.3    31  SER31       0.1889
     42  C          6.1550   62.3880    7.9070 C.2    31  SER31       0.2288
     43  O          5.7730   63.5510    7.7520 O.2    31  SER31      -0.2866
     44  CB         7.7040   62.8420    6.0230 C.3    31  SER31       0.2089
     45  OG         8.8320   62.3970    5.2990 O.3    31  SER31      -0.2183
     46  N         14.8250   57.2270   23.6850 N.3    79  GLU79      -0.1245
     47  CA        15.4730   57.3860   22.3790 C.3    79  GLU79       0.1567
     48  C         16.9600   57.6620   22.5360 C.2    79  GLU79       0.2260
     49  O         17.7200   57.3980   21.6190 O.2    79  GLU79      -0.2867
     50  CB        14.8080   58.4810   21.5490 C.3    79  GLU79       0.0388
     51  CG        14.9870   59.9080   22.0980 C.3    79  GLU79       0.1160
     52  CD        14.0660   60.8980   21.3990 C.2    79  GLU79       0.3649
     53  OE1       12.8390   60.8660   21.6750 O.co2  79  GLU79      -0.2457
     54  OE2       14.5600   61.6990   20.5710 O.co2  79  GLU79      -0.2457
     55  N         19.2790   55.4150   20.2100 N.3    83  HIS83      -0.1241
     56  CA        20.2300   55.8900   19.2120 C.3    83  HIS83       0.1621
     57  C         21.6430   55.3960   19.5250 C.2    83  HIS83       0.2264
     58  O         22.3800   55.0330   18.6310 O.2    83  HIS83      -0.2867
     59  CB        20.2010   57.4200   19.0520 C.3    83  HIS83       0.0745
     60  CG        19.1200   57.9050   18.1390 C.ar   83  HIS83       0.0817
     61  ND1       19.1910   57.7730   16.7700 N.ar   83  HIS83      -0.2268
     62  CD2       17.9520   58.5460   18.3960 C.ar   83  HIS83       0.1154
     63  CE1       18.1040   58.2840   16.2210 C.ar   83  HIS83       0.1986
     64  NE2       17.3360   58.7600   17.1870 N.ar   83  HIS83      -0.2212
     65  N         22.4290   64.1660   17.2660 N.3    99  ASP99      -0.1239
     66  CA        21.1530   63.7820   16.6770 C.3    99  ASP99       0.1674
     67  C         20.4160   65.0760   16.3500 C.2    99  ASP99       0.2266
     68  O         19.9230   65.7500   17.2420 O.2    99  ASP99      -0.2867
     69  CB        20.3850   62.9190   17.7110 C.3    99  ASP99       0.1410
     70  CG        18.9010   62.7180   17.3820 C.2    99  ASP99       0.3668
     71  OD1       18.4640   63.0220   16.2600 O.co2  99  ASP99      -0.2456
     72  OD2       18.1620   62.2110   18.2730 O.co2  99  ASP99      -0.2456
     73  N         17.1810   66.4240   14.7360 N.3   101  GLY101     -0.1210
     74  CA        15.8940   66.0080   14.2240 C.3   101  GLY101      0.1956
     75  C         15.0410   67.1740   13.7550 C.2   101  GLY101      0.2612
     76  O         15.5430   68.2730   13.5050 O.2   101  GLY101     -0.2717
     77  N         13.7400   66.9300   13.6410 N.am  102  GLY102     -0.1942
     78  CA        12.8340   67.9000   13.0630 C.3   102  GLY102      0.2014
     79  C         12.6190   69.1190   13.9390 C.2   102  GLY102      0.2639
     80  O         12.3420   70.2010   13.4300 O.2   102  GLY102     -0.2714
     81  N         12.7540   68.9570   15.2510 N.am  103  GLN103     -0.1963
     82  CA        12.4070   70.0350   16.1720 C.3   103  GLN103      0.1733
     83  C         13.3750   70.1780   17.3160 C.2   103  GLN103      0.2616
     84  O         13.1520   70.9910   18.2170 O.2   103  GLN103     -0.2715
     85  CB        10.9900   69.8330   16.7370 C.3   103  GLN103      0.0408
     86  CG         9.9280   69.8660   15.6680 C.3   103  GLN103      0.0908
     87  CD         8.5160   69.8270   16.2350 C.2   103  GLN103      0.2608
     88  OE1        8.3010   70.0340   17.4290 O.2   103  GLN103     -0.2717
     89  NE2        7.5500   69.5580   15.3740 N.am  103  GLN103     -0.0878
     90  N         14.4450   69.4000   17.3120 N.am  104  ASP104     -0.1971
     91  CA        15.4660   69.6170   18.3330 C.3   104  ASP104      0.1709
     92  C         16.8150   69.0580   17.9230 C.2   104  ASP104      0.2293
     93  O         16.9260   68.3380   16.9290 O.2   104  ASP104     -0.2864
     94  CB        15.0160   69.0110   19.6670 C.3   104  ASP104      0.1436
     95  CG        14.8020   67.5110   19.5770 C.2   104  ASP104      0.3671
     96  OD1       13.6450   67.0700   19.4280 O.co2 104  ASP104     -0.2456
     97  OD2       15.7980   66.7780   19.6390 O.co2 104  ASP104     -0.2456
     98  N         20.3430   67.1760   19.7730 N.3   106  LYS106     -0.1245
     99  CA        20.8220   66.5310   20.9880 C.3   106  LYS106      0.1561
    100  C         22.2860   66.1670   20.7960 C.2   106  LYS106      0.2260
    101  O         22.6450   65.7210   19.7330 O.2   106  LYS106     -0.2867
    102  CB        20.0550   65.2130   21.2190 C.3   106  LYS106      0.0271
    103  CG        18.5480   65.3140   21.2020 C.3   106  LYS106      0.0035
    104  CD        17.8930   64.0070   21.6820 C.3   106  LYS106      0.0206
    105  CE        16.3770   64.0610   21.5420 C.3   106  LYS106      0.1093
    106  NZ        15.9790   64.0550   20.1110 N.3   106  LYS106     -0.1314
    107  N         15.9740   70.7950   12.2010 N.3   130  GLY130     -0.1225
    108  CA        15.3630   70.5820   10.9000 C.3   130  GLY130      0.1811
    109  C         14.2860   71.5930   10.5320 C.2   130  GLY130      0.2280
    110  O         14.0750   71.8730    9.3490 O.2   130  GLY130     -0.2866
    111  N         15.6210   74.4610    8.6480 N.3   133  LEU133     -0.1231
    112  CA        15.9400   74.0960    7.2730 C.3   133  LEU133      0.1693
    113  C         14.6720   73.9630    6.4480 C.2   133  LEU133      0.2592
    114  O         14.6340   74.3410    5.2730 O.2   133  LEU133     -0.2718
    115  CB        16.7570   72.7850    7.2350 C.3   133  LEU133      0.0284
    116  CG        18.1570   72.9100    7.8360 C.3   133  LEU133      0.0019
    117  CD1       18.8270   71.5370    8.0420 C.3   133  LEU133      0.0001
    118  CD2       19.0540   73.8320    6.9530 C.3   133  LEU133      0.0001
    119  N         13.6330   73.4220    7.0740 N.am  134  ASP134     -0.1974
    120  CA        12.3520   73.2280    6.4160 C.3   134  ASP134      0.1709
    121  C         11.7450   74.5820    6.0520 C.2   134  ASP134      0.2293
    122  O         11.2950   74.7810    4.9200 O.2   134  ASP134     -0.2864
    123  CB        11.4190   72.3740    7.3000 C.3   134  ASP134      0.1436
    124  CG        11.9960   70.9650    7.5830 C.2   134  ASP134      0.3671
    125  OD1       12.9650   70.5310    6.8940 O.co2 134  ASP134     -0.2456
    126  OD2       11.4790   70.2870    8.5040 O.co2 134  ASP134     -0.2456
    127  N         14.1980   70.0650    0.7320 N.3   144  VAL144     -0.1231
    128  CA        15.2370   69.9560    1.7520 C.3   144  VAL144      0.1692
    129  C         16.2600   68.8930    1.3600 C.2   144  VAL144      0.2592
    130  O         17.4310   68.9670    1.7520 O.2   144  VAL144     -0.2718
    131  CB        14.6640   69.6440    3.1670 C.3   144  VAL144      0.0266
    132  CG1       13.7310   70.7550    3.6160 C.3   144  VAL144      0.0020
    133  CG2       13.9560   68.3100    3.1960 C.3   144  VAL144      0.0020
    134  N         15.8250   67.9180    0.5660 N.am  145  SER145     -0.1952
    135  CA        16.7200   66.8470    0.1120 C.3   145  SER145      0.1924
    136  C         17.7490   67.3430   -0.9290 C.2   145  SER145      0.2314
    137  O         18.7330   66.6600   -1.2350 O.2   145  SER145     -0.2863
    138  CB        15.9000   65.6810   -0.4540 C.3   145  SER145      0.2116
    139  OG        15.2860   66.0250   -1.6840 O.3   145  SER145     -0.2180
    140  N         19.9260   61.2120   12.7450 N.3   214  GLY214     -0.1210
    141  CA        18.7660   62.0700   12.5800 C.3   214  GLY214      0.1956
    142  C         18.5540   62.3470   11.1090 C.2   214  GLY214      0.2612
    143  O         19.4670   62.1660   10.3010 O.2   214  GLY214     -0.2717
    144  N         17.3420   62.7520   10.7540 N.am  215  GLY215     -0.1942
    145  CA        17.0060   62.9810    9.3650 C.3   215  GLY215      0.2014
    146  C         17.8000   64.1270    8.7640 C.2   215  GLY215      0.2638
    147  O         18.0010   64.1630    7.5520 O.2   215  GLY215     -0.2714
    148  N         18.2400   65.0690    9.5940 N.am  216  VAL216     -0.1977
    149  CA        19.0090   66.2220    9.0910 C.3   216  VAL216      0.1596
    150  C         20.4360   65.8070    8.7230 C.2   216  VAL216      0.2287
    151  O         21.0610   66.4490    7.8880 O.2   216  VAL216     -0.2864
    152  CB        19.0320   67.3930   10.0820 C.3   216  VAL216      0.0276
    153  CG1       20.1070   68.4470    9.6890 C.3   216  VAL216      0.0022
    154  CG2       17.6520   68.0390   10.1600 C.3   216  VAL216      0.0022
    155  N         21.0810   63.5310    6.8410 N.3   218  ARG218     -0.1231
    156  CA        21.0200   63.1520    5.4230 C.3   218  ARG218      0.1694
    157  C         21.4450   64.3140    4.5080 C.2   218  ARG218      0.2592
    158  O         21.6620   64.1400    3.3180 O.2   218  ARG218     -0.2718
    159  CB        19.6070   62.7060    5.0580 C.3   218  ARG218      0.0321
    160  CG        19.1650   61.4500    5.8120 C.3   218  ARG218      0.0489
    161  CD        17.7120   61.0900    5.5070 C.3   218  ARG218      0.2205
    162  NE        17.5450   60.5730    4.1550 N.pl3 218  ARG218     -0.0865
    163  CZ        16.3760   60.2050    3.6370 C.cat 218  ARG218      0.5346
    164  NH1       15.2650   60.2990    4.3610 N.pl3 218  ARG218      0.1354
    165  NH2       16.3170   59.7420    2.3950 N.pl3 218  ARG218      0.1354
    166  N         21.5020   65.5070    5.0810 N.am  219  ASN219     -0.1974
    167  CA        21.9820   66.7020    4.3790 C.3   219  ASN219      0.1688
    168  C         23.5060   66.8130    4.5030 C.2   219  ASN219      0.2292
    169  O         24.0330   67.2170    5.5430 O.2   219  ASN219     -0.2864
    170  CB        21.2730   67.9500    4.9490 C.3   219  ASN219      0.1181
    171  CG        21.7280   69.2480    4.2860 C.2   219  ASN219      0.2629
    172  OD1       22.8290   69.3410    3.7540 O.2   219  ASN219     -0.2716
    173  ND2       20.8800   70.2630    4.3510 N.am  219  ASN219     -0.0877
    174  N         18.8610   58.3810    9.6310 N.3   241  GLN241     -0.1245
    175  CA        17.5550   58.6940   10.2150 C.3   241  GLN241      0.1566
    176  C         16.9440   57.4820   10.9470 C.2   241  GLN241      0.2260
    177  O         15.9690   57.6340   11.6910 O.2   241  GLN241     -0.2867
    178  CB        16.5930   59.2080    9.1430 C.3   241  GLN241      0.0367
    179  CG        15.3700   59.9140    9.7110 C.3   241  GLN241      0.0905
    180  CD        14.4790   60.4930    8.6330 C.2   241  GLN241      0.2608
    181  OE1       14.7130   60.2840    7.4490 O.2   241  GLN241     -0.2717
    182  NE2       13.4530   61.2210    9.0380 N.am  241  GLN241     -0.0878
@<TRIPOS>BOND
     1   139   138    1
     2   137   136    2
     3   136   135    1
     4   138   135    1
     5   135   134    1
     6   134   129   am
     7   127   128    1
     8   129   128    1
     9   129   130    2
    10   128   131    1
    11   165   163    1
    12   131   133    1
    13   131   132    1
    14   158   157    2
    15   163   162    2
    16   163   164    1
    17   172   171    2
    18   162   161    1
    19   171   173   am
    20   171   170    1
    21   167   168    1
    22   167   170    1
    23   167   166    1
    24   168   169    2
    25   157   166   am
    26   157   156    1
    27   122   121    2
    28   159   156    1
    29   159   160    1
    30   114   113    2
    31    45    44    1
    32   156   155    1
    33   161   160    1
    34    44    41    1
    35   121   120    1
    36   120   119    1
    37   120   123    1
    38   113   119   am
    39   113   112    1
    40    40    41    1
    41   125   124   ar
    42   118   116    1
    43    41    42    1
    44   115   112    1
    45   115   116    1
    46   112   111    1
    47   123   124    1
    48   181   180    2
    49   147   146    2
    50   124   126   ar
    51    43    42    2
    52   116   117    1
    53   151   150    2
    54   180   182   am
    55   180   179    1
    56   150   149    1
    57   146   145    1
    58   146   148   am
    59   149   148    1
    60   149   152    1
    61   178   179    1
    62   178   175    1
    63   110   109    2
    64   145   144    1
    65   174   175    1
    66   153   152    1
    67   152   154    1
    68   175   176    1
    69   143   142    2
    70    30    27    1
    71   109   108    1
    72   144   142   am
    73    22    21    2
    74    25    23    1
    75   108   107    1
    76   176   177    2
    77    36    37    1
    78    36    35    1
    79   142   141    1
    80    27    28    1
    81    27    26    1
    82    32    35    1
    83    32    33    1
    84    32    31    1
    85    37    38    1
    86    21    26   am
    87    21    20    1
    88    33    34    2
    89    28    29    2
    90    23    20    1
    91    23    24    1
    92   141   140    1
    93    20    19    1
    94    38    39    1
    95    78    77    1
    96    78    79    1
    97    80    79    2
    98    76    75    2
    99    77    75   am
   100    75    74    1
   101    79    81   am
   102    19    15   am
   103    74    73    1
   104    16    15    2
   105     4     3    2
   106    15    14    1
   107    81    82    1
   108    89    87   am
   109    86    87    1
   110    86    85    1
   111     1     2    1
   112    12    11    2
   113     5     6    1
   114     5     2    1
   115     3     2    1
   116     8     6   ar
   117    82    85    1
   118    82    83    1
   119     9    10    1
   120    63    61   ar
   121    63    64   ar
   122    87    88    2
   123    71    70   ar
   124    11    13   am
   125    11    10    1
   126    67    66    1
   127    67    68    2
   128     6     7   ar
   129    14    13    1
   130    14    17    1
   131    66    65    1
   132    66    69    1
   133    61    60   ar
   134    93    92    2
   135    18    17    1
   136    64    62   ar
   137    90    83   am
   138    90    91    1
   139    83    84    2
   140    70    69    1
   141    70    72   ar
   142    92    91    1
   143    60    62   ar
   144    60    59    1
   145    91    94    1
   146    58    57    2
   147    59    56    1
   148    56    57    1
   149    56    55    1
   150    96    95   ar
   151    95    97   ar
   152    95    94    1
   153   101   100    2
   154    98    99    1
   155   106   105    1
   156    54    52   ar
   157   100    99    1
   158    99   102    1
   159   103   102    1
   160   103   104    1
   161    52    53   ar
   162    52    51    1
   163   105   104    1
   164    50    51    1
   165    50    47    1
   166    49    48    2
   167    47    48    1
   168    47    46    1
