@<TRIPOS>MOLECULE
tmp/4ehuB00.pdb
 185 172 0 0 0
SMALL
GASTEIGER

@<TRIPOS>ATOM
      1  N         21.8390   30.0580  -14.3630 N.3     7  ASP7       -0.1239
      2  CA        21.4140   28.7760  -14.9210 C.3     7  ASP7        0.1674
      3  C         21.6010   27.7310  -13.8290 C.2     7  ASP7        0.2266
      4  O         22.7230   27.3520  -13.5050 O.2     7  ASP7       -0.2867
      5  CB        22.2760   28.4490  -16.1510 C.3     7  ASP7        0.1410
      6  CG        22.0320   27.0450  -16.7140 C.2     7  ASP7        0.3668
      7  OD1       21.1650   26.2750  -16.2210 O.co2   7  ASP7       -0.2456
      8  OD2       22.7390   26.7150  -17.6860 O.co2   7  ASP7       -0.2456
      9  N         21.1130   24.1750  -12.9100 N.3     9  GLY9       -0.1210
     10  CA        20.8630   22.8980  -13.5470 C.3     9  GLY9        0.1956
     11  C         20.7840   21.8210  -12.4980 C.2     9  GLY9        0.2613
     12  O         20.8030   22.1100  -11.3030 O.2     9  GLY9       -0.2717
     13  N         20.7060   20.5790  -12.9520 N.am   10  SER10      -0.1938
     14  CA        20.5920   19.4390  -12.0500 C.3    10  SER10       0.2055
     15  C         21.8300   19.3300  -11.1870 C.2    10  SER10       0.2644
     16  O         21.7870   18.7850  -10.0850 O.2    10  SER10      -0.2714
     17  CB        20.4750   18.1580  -12.8560 C.3    10  SER10       0.2130
     18  OG        21.6530   17.9070  -13.6140 O.3    10  SER10      -0.2179
     19  N         22.9420   19.8470  -11.7020 N.am   11  THR11      -0.1936
     20  CA        24.2440   19.4300  -11.2100 C.3    11  THR11       0.2028
     21  C         25.1190   20.6070  -10.8170 C.2    11  THR11       0.2642
     22  O         25.8740   20.5390   -9.8420 O.2    11  THR11      -0.2714
     23  CB        24.9520   18.5800  -12.2840 C.3    11  THR11       0.1808
     24  OG1       24.1400   17.4330  -12.5900 O.3    11  THR11      -0.2208
     25  CG2       26.3350   18.1110  -11.7950 C.3    11  THR11       0.0379
     26  N         25.0110   21.6930  -11.5700 N.am   12  ALA12      -0.1977
     27  CA        25.7930   22.8960  -11.2790 C.3    12  ALA12       0.1597
     28  C         24.9740   24.1580  -11.4790 C.2    12  ALA12       0.2287
     29  O         24.0460   24.1830  -12.2840 O.2    12  ALA12      -0.2864
     30  CB        27.0310   22.9390  -12.1480 C.3    12  ALA12       0.0319
     31  N         25.3510   28.1100  -12.6140 N.3    14  LYS14      -0.1245
     32  CA        26.2280   28.9820  -13.3810 C.3    14  LYS14       0.1561
     33  C         25.6500   30.3910  -13.3780 C.2    14  LYS14       0.2260
     34  O         24.4400   30.5600  -13.4720 O.2    14  LYS14      -0.2867
     35  CB        26.3170   28.4920  -14.8310 C.3    14  LYS14       0.0271
     36  CG        27.1350   27.1990  -15.0740 C.3    14  LYS14       0.0035
     37  CD        26.4220   25.9070  -14.6030 C.3    14  LYS14       0.0206
     38  CE        25.1670   25.6140  -15.4140 C.3    14  LYS14       0.1093
     39  NZ        24.6790   24.2290  -15.0870 N.3    14  LYS14      -0.1314
     40  N         29.6580   23.6140   -8.5360 N.3    31  SER31      -0.1217
     41  CA        29.1630   22.2690   -8.8310 C.3    31  SER31       0.1889
     42  C         28.1250   21.7890   -7.8250 C.2    31  SER31       0.2288
     43  O         28.1970   20.6620   -7.3300 O.2    31  SER31      -0.2866
     44  CB        30.3180   21.2660   -8.8880 C.3    31  SER31       0.2089
     45  OG        31.1030   21.4570  -10.0480 O.3    31  SER31      -0.2183
     46  N         16.9510   23.6470  -14.8100 N.3    65  TYR65      -0.1241
     47  CA        16.0460   22.7350  -14.1160 C.3    65  TYR65       0.1605
     48  C         15.4670   23.3710  -12.8590 C.2    65  TYR65       0.2264
     49  O         14.2900   23.1860  -12.5560 O.2    65  TYR65      -0.2867
     50  CB        16.8060   21.4400  -13.7710 C.3    65  TYR65       0.0534
     51  CG        16.0120   20.4090  -12.9770 C.ar   65  TYR65      -0.0201
     52  CD1       14.9610   19.7150  -13.5600 C.ar   65  TYR65      -0.0009
     53  CD2       16.3330   20.1330  -11.6570 C.ar   65  TYR65      -0.0009
     54  CE1       14.2450   18.7740  -12.8460 C.ar   65  TYR65       0.0417
     55  CE2       15.6210   19.1940  -10.9320 C.ar   65  TYR65       0.0417
     56  CZ        14.5800   18.5190  -11.5330 C.ar   65  TYR65       0.1957
     57  OH        13.8700   17.5860  -10.8130 O.3    65  TYR65      -0.2866
     58  N         15.5850   26.8720  -20.6990 N.3    79  GLU79      -0.1245
     59  CA        17.0020   26.6970  -20.9960 C.3    79  GLU79       0.1567
     60  C         17.2170   26.3960  -22.4710 C.2    79  GLU79       0.2260
     61  O         18.3300   26.5440  -22.9810 O.2    79  GLU79      -0.2867
     62  CB        17.6170   25.5880  -20.1310 C.3    79  GLU79       0.0388
     63  CG        17.2630   24.1490  -20.5240 C.3    79  GLU79       0.1160
     64  CD        17.4250   23.2150  -19.3280 C.2    79  GLU79       0.3649
     65  OE1       18.3380   22.3630  -19.3320 O.co2  79  GLU79      -0.2457
     66  OE2       16.6380   23.3610  -18.3690 O.co2  79  GLU79      -0.2457
     67  N         20.1690   28.7040  -23.8810 N.3    83  HIS83      -0.1241
     68  CA        21.3560   28.1560  -24.5440 C.3    83  HIS83       0.1621
     69  C         21.4080   28.6040  -25.9880 C.2    83  HIS83       0.2264
     70  O         22.4780   28.9510  -26.4810 O.2    83  HIS83      -0.2867
     71  CB        21.3830   26.6250  -24.4860 C.3    83  HIS83       0.0745
     72  CG        21.9470   26.0790  -23.2150 C.ar   83  HIS83       0.0817
     73  ND1       23.2480   26.2960  -22.8260 N.ar   83  HIS83      -0.2268
     74  CD2       21.3890   25.3070  -22.2520 C.ar   83  HIS83       0.1154
     75  CE1       23.4710   25.6890  -21.6730 C.ar   83  HIS83       0.1986
     76  NE2       22.3590   25.0810  -21.3030 N.ar   83  HIS83      -0.2212
     77  N         23.7450   20.0280  -26.0730 N.3    99  ASP99      -0.1239
     78  CA        23.9320   20.4340  -24.6910 C.3    99  ASP99       0.1674
     79  C         24.0060   19.1680  -23.8570 C.2    99  ASP99       0.2266
     80  O         22.9970   18.5480  -23.6000 O.2    99  ASP99      -0.2867
     81  CB        22.7520   21.3020  -24.2240 C.3    99  ASP99       0.1410
     82  CG        22.6660   21.4290  -22.7160 C.2    99  ASP99       0.3668
     83  OD1       23.7190   21.4210  -22.0560 O.co2  99  ASP99      -0.2456
     84  OD2       21.5420   21.5400  -22.1900 O.co2  99  ASP99      -0.2456
     85  N         24.5190   17.9310  -20.2900 N.3   101  GLY101     -0.1210
     86  CA        24.5830   18.3600  -18.9130 C.3   101  GLY101      0.1956
     87  C         24.7000   17.2090  -17.9480 C.2   101  GLY101      0.2612
     88  O         25.0420   16.0950  -18.3490 O.2   101  GLY101     -0.2717
     89  N         24.4260   17.4830  -16.6810 N.am  102  GLY102     -0.1942
     90  CA        24.5420   16.4890  -15.6340 C.3   102  GLY102      0.2014
     91  C         23.4200   15.4700  -15.5600 C.2   102  GLY102      0.2639
     92  O         23.6130   14.4150  -14.9610 O.2   102  GLY102     -0.2714
     93  N         22.2420   15.7480  -16.1160 N.am  103  GLN103     -0.1963
     94  CA        21.1830   14.7430  -16.0490 C.3   103  GLN103      0.1733
     95  C         20.4980   14.5130  -17.3800 C.2   103  GLN103      0.2616
     96  O         19.7800   13.5320  -17.5370 O.2   103  GLN103     -0.2715
     97  CB        20.1510   15.0690  -14.9670 C.3   103  GLN103      0.0408
     98  CG        19.1150   16.1150  -15.3560 C.3   103  GLN103      0.0908
     99  CD        18.0590   16.3130  -14.2790 C.2   103  GLN103      0.2608
    100  OE1       18.0390   15.6050  -13.2630 O.2   103  GLN103     -0.2717
    101  NE2       17.1630   17.2660  -14.5010 N.am  103  GLN103     -0.0878
    102  N         20.7330   15.3760  -18.3650 N.am  104  ASP104     -0.1971
    103  CA        20.2010   15.0700  -19.6850 C.3   104  ASP104      0.1709
    104  C         21.0520   15.6150  -20.8250 C.2   104  ASP104      0.2293
    105  O         21.9470   16.4360  -20.6150 O.2   104  ASP104     -0.2864
    106  CB        18.7230   15.4960  -19.8180 C.3   104  ASP104      0.1436
    107  CG        18.5090   16.9970  -19.7350 C.2   104  ASP104      0.3671
    108  OD1       19.0890   17.7330  -20.5740 O.co2 104  ASP104     -0.2456
    109  OD2       17.7200   17.4400  -18.8570 O.co2 104  ASP104     -0.2456
    110  N         26.3760   13.6780  -18.3880 N.3   130  GLY130     -0.1225
    111  CA        27.4290   13.9480  -17.4310 C.3   130  GLY130      0.1811
    112  C         27.3980   12.9960  -16.2460 C.2   130  GLY130      0.2280
    113  O         28.4420   12.7190  -15.6450 O.2   130  GLY130     -0.2866
    114  N         29.7570   10.1080  -16.7080 N.3   133  LEU133     -0.1231
    115  CA        31.1460   10.4960  -16.4630 C.3   133  LEU133      0.1693
    116  C         31.4200   10.6970  -14.9870 C.2   133  LEU133      0.2592
    117  O         32.4920   10.3460  -14.5110 O.2   133  LEU133     -0.2718
    118  CB        31.4780   11.7800  -17.2310 C.3   133  LEU133      0.0284
    119  CG        31.3700   11.5690  -18.7390 C.3   133  LEU133      0.0019
    120  CD1       31.3850   12.8890  -19.4930 C.3   133  LEU133      0.0001
    121  CD2       32.4890   10.6460  -19.2210 C.3   133  LEU133      0.0001
    122  N         30.4610   11.2490  -14.2570 N.am  134  ASP134     -0.1974
    123  CA        30.6560   11.4800  -12.8330 C.3   134  ASP134      0.1709
    124  C         30.8070   10.1380  -12.1270 C.2   134  ASP134      0.2293
    125  O         31.6620    9.9850  -11.2470 O.2   134  ASP134     -0.2864
    126  CB        29.4830   12.2680  -12.2300 C.3   134  ASP134      0.1436
    127  CG        29.4360   13.7000  -12.7080 C.2   134  ASP134      0.3671
    128  OD1       30.4770   14.2230  -13.1390 O.co2 134  ASP134     -0.2456
    129  OD2       28.3480   14.3000  -12.6440 O.co2 134  ASP134     -0.2456
    130  N         36.5040   14.7130  -12.7790 N.3   144  VAL144     -0.1231
    131  CA        35.9840   14.7930  -14.1420 C.3   144  VAL144      0.1692
    132  C         36.7720   15.7990  -14.9640 C.2   144  VAL144      0.2592
    133  O         36.8420   15.6850  -16.1860 O.2   144  VAL144     -0.2718
    134  CB        34.4840   15.1660  -14.1880 C.3   144  VAL144      0.0266
    135  CG1       33.6360   13.9890  -13.7340 C.3   144  VAL144      0.0020
    136  CG2       34.2020   16.4120  -13.3540 C.3   144  VAL144      0.0020
    137  N         37.4040   16.7590  -14.2910 N.am  145  SER145     -0.1952
    138  CA        38.1420   17.8150  -14.9720 C.3   145  SER145      0.1924
    139  C         39.4410   17.2900  -15.5790 C.2   145  SER145      0.2314
    140  O         40.0610   17.9570  -16.4070 O.2   145  SER145     -0.2863
    141  CB        38.4610   18.9440  -13.9940 C.3   145  SER145      0.2116
    142  OG        39.5060   18.5660  -13.1130 O.3   145  SER145     -0.2180
    143  N         27.4420   22.9030  -22.4430 N.3   214  GLY214     -0.1210
    144  CA        27.2490   22.1180  -21.2310 C.3   214  GLY214      0.1956
    145  C         28.5900   21.8290  -20.5790 C.2   214  GLY214      0.2612
    146  O         29.6380   22.0190  -21.2040 O.2   214  GLY214     -0.2717
    147  N         28.5570   21.3460  -19.3400 N.am  215  GLY215     -0.1942
    148  CA        29.7690   21.1340  -18.5710 C.3   215  GLY215      0.2014
    149  C         30.5850   20.0120  -19.1670 C.2   215  GLY215      0.2638
    150  O         31.8100   20.0090  -19.0790 O.2   215  GLY215     -0.2714
    151  N         29.9100   19.0420  -19.7700 N.am  216  VAL216     -0.1977
    152  CA        30.6110   17.9200  -20.3990 C.3   216  VAL216      0.1596
    153  C         31.4650   18.3770  -21.5970 C.2   216  VAL216      0.2287
    154  O         32.4870   17.7480  -21.9120 O.2   216  VAL216     -0.2864
    155  CB        29.6160   16.8010  -20.8250 C.3   216  VAL216      0.0276
    156  CG1       30.3630   15.6480  -21.5420 C.3   216  VAL216      0.0022
    157  CG2       28.8810   16.2700  -19.6140 C.3   216  VAL216      0.0022
    158  N         33.3740   20.7460  -21.6030 N.3   218  ARG218     -0.1231
    159  CA        34.6880   21.1150  -21.0750 C.3   218  ARG218      0.1694
    160  C         35.6810   19.9660  -21.1760 C.2   218  ARG218      0.2592
    161  O         36.8900   20.1760  -21.0270 O.2   218  ARG218     -0.2718
    162  CB        34.5920   21.5780  -19.6260 C.3   218  ARG218      0.0321
    163  CG        33.7230   22.8120  -19.4460 C.3   218  ARG218      0.0489
    164  CD        33.5840   23.1480  -17.9810 C.3   218  ARG218      0.2205
    165  NE        34.8620   23.5630  -17.3990 N.pl3 218  ARG218     -0.0865
    166  CZ        35.0270   23.8570  -16.1150 C.cat 218  ARG218      0.5346
    167  NH1       33.9920   23.7780  -15.2800 N.pl3 218  ARG218      0.1354
    168  NH2       36.2220   24.2320  -15.6670 N.pl3 218  ARG218      0.1354
    169  N         35.1700   18.7560  -21.4200 N.am  219  ASN219     -0.1974
    170  CA        35.9980   17.5720  -21.5700 C.3   219  ASN219      0.1688
    171  C         36.4510   17.4230  -23.0190 C.2   219  ASN219      0.2292
    172  O         35.6800   17.0420  -23.9000 O.2   219  ASN219     -0.2864
    173  CB        35.2040   16.3280  -21.1140 C.3   219  ASN219      0.1181
    174  CG        36.0200   15.0590  -21.1850 C.2   219  ASN219      0.2629
    175  OD1       36.8400   14.8970  -22.0730 O.2   219  ASN219     -0.2716
    176  ND2       35.7830   14.1480  -20.2560 N.am  219  ASN219     -0.0877
    177  N         30.0850   25.7210  -20.5740 N.3   241  GLN241     -0.1245
    178  CA        29.1680   25.4510  -19.4630 C.3   241  GLN241      0.1566
    179  C         28.2970   26.6570  -19.1300 C.2   241  GLN241      0.2260
    180  O         27.2890   26.5190  -18.4220 O.2   241  GLN241     -0.2867
    181  CB        29.9390   25.0360  -18.2120 C.3   241  GLN241      0.0367
    182  CG        29.0980   24.2650  -17.1840 C.3   241  GLN241      0.0905
    183  CD        29.9400   23.7850  -16.0130 C.2   241  GLN241      0.2608
    184  OE1       31.1260   24.1080  -15.9320 O.2   241  GLN241     -0.2717
    185  NE2       29.3400   22.9880  -15.1200 N.am  241  GLN241     -0.0878
@<TRIPOS>BOND
     1    70    69    2
     2    77    78    1
     3    69    68    1
     4    78    81    1
     5    78    79    1
     6    68    71    1
     7    68    67    1
     8    71    72    1
     9    81    82    1
    10   172   171    2
    11    79    80    2
    12    72    73   ar
    13    72    74   ar
    14   171   170    1
    15    61    60    2
    16    73    75   ar
    17    82    84   ar
    18    82    83   ar
    19    60    59    1
    20   143   144    1
    21    74    76   ar
    22   175   174    2
    23   154   153    2
    24    75    76   ar
    25   158   159    1
    26   153   152    1
    27   170   169    1
    28   170   173    1
    29   156   155    1
    30   169   160   am
    31   144   145    1
    32   146   145    2
    33   174   173    1
    34   174   176   am
    35   160   159    1
    36   160   161    2
    37   159   162    1
    38    59    58    1
    39    59    62    1
    40   155   152    1
    41   155   157    1
    42   104   105    2
    43   104   103    1
    44   145   147   am
    45   108   107   ar
    46   177   178    1
    47    63    62    1
    48    63    64    1
    49   152   151    1
    50    85    86    1
    51   106   107    1
    52   106   103    1
    53   151   149   am
    54   107   109   ar
    55   103   102    1
    56   162   163    1
    57   120   119    1
    58   178   179    1
    59   178   181    1
    60   163   164    1
    61   147   148    1
    62    65    64   ar
    63    64    66   ar
    64   121   119    1
    65   149   150    2
    66   149   148    1
    67   179   180    2
    68    86    87    1
    69   119   118    1
    70   110   111    1
    71   102    95   am
    72    88    87    2
    73   181   182    1
    74   164   165    1
    75    87    89   am
    76     8     6   ar
    77    96    95    2
    78   111   112    1
    79   165   166    2
    80    95    94    1
    81   118   115    1
    82   182   183    1
    83     6     7   ar
    84     6     5    1
    85   114   115    1
    86    89    90    1
    87   115   116    1
    88   140   139    2
    89   112   113    2
    90   133   132    2
    91     5     2    1
    92    93    94    1
    93    93    91   am
    94   166   168    1
    95   166   167    1
    96    94    97    1
    97   183   184    2
    98   183   185   am
    99    90    91    1
   100   139   138    1
   101    91    92    2
   102    38    39    1
   103    38    37    1
   104    98    97    1
   105    98    99    1
   106    36    35    1
   107    36    37    1
   108   116   117    2
   109   116   122   am
   110   138   137    1
   111   138   141    1
   112   132   137   am
   113   132   131    1
   114     2     1    1
   115     2     3    1
   116    35    32    1
   117    46    47    1
   118   101    99   am
   119    99   100    2
   120   122   123    1
   121   134   131    1
   122   134   135    1
   123   134   136    1
   124   131   130    1
   125    47    50    1
   126    47    48    1
   127   141   142    1
   128     3     4    2
   129    50    51    1
   130    18    17    1
   131    52    51   ar
   132    52    54   ar
   133    10     9    1
   134    10    11    1
   135    34    33    2
   136    32    33    1
   137    32    31    1
   138   128   127   ar
   139    51    53   ar
   140    13    11   am
   141    13    14    1
   142    48    49    2
   143    17    14    1
   144    54    56   ar
   145   123   126    1
   146   123   124    1
   147   127   129   ar
   148   127   126    1
   149    24    23    1
   150    11    12    2
   151    23    25    1
   152    23    20    1
   153    29    28    2
   154    30    27    1
   155   124   125    2
   156    14    15    1
   157    19    20    1
   158    19    15   am
   159    53    55   ar
   160    26    27    1
   161    26    21   am
   162    56    55   ar
   163    56    57    1
   164    28    27    1
   165    20    21    1
   166    15    16    2
   167    21    22    2
   168    45    44    1
   169    44    41    1
   170    41    40    1
   171    41    42    1
   172    42    43    2
