@<TRIPOS>MOLECULE
tmp/4ehvA00.pdb
 189 181 0 0 0
SMALL
GASTEIGER

@<TRIPOS>ATOM
      1  N          3.7030  -10.9990   19.8350 N.3    31  TYR31      -0.1241
      2  CA         4.5430  -10.9320   18.6450 C.3    31  TYR31       0.1605
      3  C          5.9010  -10.2600   18.8560 C.2    31  TYR31       0.2264
      4  O          6.7120  -10.1990   17.9340 O.2    31  TYR31      -0.2867
      5  CB         3.7650  -10.2920   17.4860 C.3    31  TYR31       0.0534
      6  CG         2.4180  -10.9510   17.2400 C.ar   31  TYR31      -0.0201
      7  CD1        2.3080  -12.3410   17.1270 C.ar   31  TYR31      -0.0009
      8  CD2        1.2580  -10.1900   17.1310 C.ar   31  TYR31      -0.0009
      9  CE1        1.0760  -12.9550   16.9110 C.ar   31  TYR31       0.0417
     10  CE2        0.0210  -10.7940   16.9100 C.ar   31  TYR31       0.0417
     11  CZ        -0.0620  -12.1740   16.7970 C.ar   31  TYR31       0.1957
     12  OH        -1.2840  -12.7730   16.5770 O.3    31  TYR31      -0.2866
     13  N          3.8670  -13.7900    8.9740 N.3    63  ARG63      -0.1245
     14  CA         3.3270  -12.8310    9.9580 C.3    63  ARG63       0.1563
     15  C          4.2040  -11.5890   10.0940 C.2    63  ARG63       0.2260
     16  O          3.7000  -10.4730   10.1940 O.2    63  ARG63      -0.2867
     17  CB         3.1590  -13.4990   11.3190 C.3    63  ARG63       0.0307
     18  CG         2.6250  -12.5700   12.4030 C.3    63  ARG63       0.0489
     19  CD         1.7300  -13.3010   13.3920 C.3    63  ARG63       0.2205
     20  NE         2.3560  -14.4050   14.1290 N.pl3  63  ARG63      -0.0865
     21  CZ         3.5680  -14.3960   14.6860 C.cat  63  ARG63       0.5346
     22  NH1        4.3480  -13.3290   14.6140 N.pl3  63  ARG63       0.1354
     23  NH2        3.9970  -15.4720   15.3330 N.pl3  63  ARG63       0.1354
     24  N          3.6280   -9.5690    6.9900 N.3    66  ARG66      -0.1231
     25  CA         2.3200   -8.9260    7.1180 C.3    66  ARG66       0.1694
     26  C          2.3750   -7.6940    8.0150 C.2    66  ARG66       0.2591
     27  O          1.8370   -6.6370    7.6730 O.2    66  ARG66      -0.2718
     28  CB         1.2910   -9.9130    7.6790 C.3    66  ARG66       0.0321
     29  CG        -0.0670   -9.2820    7.9860 C.3    66  ARG66       0.0489
     30  CD        -1.0440  -10.2710    8.6440 C.3    66  ARG66       0.2205
     31  NE        -1.1950  -11.4420    7.7840 N.pl3  66  ARG66      -0.0865
     32  CZ        -0.8220  -12.6770    8.0980 C.cat  66  ARG66       0.5346
     33  NH1       -0.3000  -12.9570    9.2890 N.pl3  66  ARG66       0.1354
     34  NH2       -0.9840  -13.6480    7.2050 N.pl3  66  ARG66       0.1354
     35  N          2.9990   -7.8640    9.1750 N.am   67  GLU67      -0.1979
     36  CA         3.1330   -6.7960   10.1540 C.3    67  GLU67       0.1602
     37  C          3.8460   -5.5840    9.5460 C.2    67  GLU67       0.2287
     38  O          3.3760   -4.4350    9.6750 O.2    67  GLU67      -0.2864
     39  CB         3.8680   -7.3290   11.3910 C.3    67  GLU67       0.0415
     40  CG         4.4150   -6.2510   12.3150 C.3    67  GLU67       0.1163
     41  CD         3.4060   -5.6190   13.2610 C.2    67  GLU67       0.3649
     42  OE1        2.1700   -5.7710   13.1010 O.co2  67  GLU67      -0.2457
     43  OE2        3.8740   -4.9320   14.1930 O.co2  67  GLU67      -0.2457
     44  N          1.6490   -3.9520    6.6790 N.3    70  LEU70      -0.1231
     45  CA         0.5550   -3.1650    7.2420 C.3    70  LEU70       0.1693
     46  C          1.0570   -1.8760    7.8960 C.2    70  LEU70       0.2591
     47  O          0.5010   -0.8090    7.6560 O.2    70  LEU70      -0.2718
     48  CB        -0.2890   -4.0050    8.2140 C.3    70  LEU70       0.0284
     49  CG        -1.1800   -5.0620    7.5370 C.3    70  LEU70       0.0019
     50  CD1       -1.6400   -6.1070    8.5400 C.3    70  LEU70       0.0001
     51  CD2       -2.3840   -4.4320    6.8160 C.3    70  LEU70       0.0001
     52  N          2.1190   -1.9690    8.6920 N.am   71  LEU71      -0.1980
     53  CA         2.6490   -0.7740    9.3610 C.3    71  LEU71       0.1596
     54  C          3.1620    0.2590    8.3640 C.2    71  LEU71       0.2287
     55  O          2.9430    1.4640    8.5590 O.2    71  LEU71      -0.2864
     56  CB         3.7320   -1.1330   10.3890 C.3    71  LEU71       0.0297
     57  CG         3.2370   -1.5960   11.7610 C.3    71  LEU71       0.0022
     58  CD1        4.4100   -2.1350   12.5420 C.3    71  LEU71       0.0001
     59  CD2        2.5620   -0.4630   12.5460 C.3    71  LEU71       0.0001
     60  N          0.1050    2.3430    6.9370 N.3    74  MET74      -0.1245
     61  CA        -0.7780    3.1960    7.7370 C.3    74  MET74       0.1570
     62  C         -0.2810    4.6240    7.8700 C.2    74  MET74       0.2261
     63  O          0.7430    4.8780    8.5030 O.2    74  MET74      -0.2867
     64  CB        -1.0350    2.5970    9.1200 C.3    74  MET74       0.0387
     65  CG        -1.6330    1.1870    9.0950 C.3    74  MET74       0.0595
     66  SD        -3.1890    1.0650    8.1970 S.3    74  MET74      -0.1393
     67  CE        -3.5570   -0.6720    8.4450 C.3    74  MET74       0.0692
     68  N         -4.4160    5.8750   13.5120 N.3    79  VAL79      -0.1231
     69  CA        -3.8470    4.5370   13.3160 C.3    79  VAL79       0.1692
     70  C         -2.3520    4.5960   13.6060 C.2    79  VAL79       0.2591
     71  O         -1.6810    5.5490   13.2040 O.2    79  VAL79      -0.2718
     72  CB        -4.0900    4.0040   11.8800 C.3    79  VAL79       0.0266
     73  CG1       -3.6440    2.5430   11.7820 C.3    79  VAL79       0.0020
     74  CG2       -5.5660    4.1100   11.5010 C.3    79  VAL79       0.0020
     75  N         -1.8210    3.5860   14.2940 N.am   80  ILE80      -0.1980
     76  CA        -0.3890    3.5270   14.5440 C.3    80  ILE80       0.1595
     77  C          0.3600    3.5640   13.2090 C.2    80  ILE80       0.2287
     78  O         -0.0610    2.9370   12.2330 O.2    80  ILE80      -0.2864
     79  CB         0.0130    2.2980   15.4310 C.3    80  ILE80       0.0276
     80  CG1        1.4170    2.4960   16.0240 C.3    80  ILE80       0.0022
     81  CG2       -0.1330    0.9660   14.6820 C.3    80  ILE80       0.0022
     82  CD1        1.4570    3.5800   17.1150 C.3    80  ILE80       0.0001
     83  N         -8.8120    2.4330    7.4930 N.3   137  ILE137     -0.1245
     84  CA        -8.3520    1.0440    7.3490 C.3   137  ILE137      0.1561
     85  C         -9.2550    0.2620    6.3810 C.2   137  ILE137      0.2260
     86  O         -8.7720   -0.4250    5.4710 O.2   137  ILE137     -0.2867
     87  CB        -8.2410    0.3330    8.7420 C.3   137  ILE137      0.0252
     88  CG1       -7.1320    0.9730    9.5830 C.3   137  ILE137      0.0019
     89  CG2       -7.9850   -1.1630    8.5940 C.3   137  ILE137      0.0019
     90  CD1       -7.1490    0.5140   11.0240 C.3   137  ILE137      0.0001
     91  N         -8.7430   -3.4560    4.1460 N.3   142  ILE142     -0.1231
     92  CA        -8.0930   -4.1160    5.2740 C.3   142  ILE142      0.1692
     93  C         -9.1230   -4.2860    6.3820 C.2   142  ILE142      0.2592
     94  O         -9.8900   -3.3640    6.6610 O.2   142  ILE142     -0.2718
     95  CB        -6.8910   -3.2860    5.8120 C.3   142  ILE142      0.0266
     96  CG1       -5.8090   -3.1300    4.7370 C.3   142  ILE142      0.0019
     97  CG2       -6.2880   -3.9400    7.0670 C.3   142  ILE142      0.0020
     98  CD1       -4.7760   -2.0420    5.0290 C.3   142  ILE142      0.0001
     99  N         -9.1490   -5.4730    6.9760 N.am  143  ILE143     -0.1966
    100  CA        -9.9410   -5.7410    8.1840 C.3   143  ILE143      0.1727
    101  C         -8.9520   -5.9190    9.3340 C.2   143  ILE143      0.2616
    102  O         -7.9780   -6.6720    9.2190 O.2   143  ILE143     -0.2715
    103  CB       -10.8130   -7.0090    8.0200 C.3   143  ILE143      0.0290
    104  CG1      -11.7430   -6.8760    6.8080 C.3   143  ILE143      0.0022
    105  CG2      -11.6280   -7.2920    9.3060 C.3   143  ILE143      0.0023
    106  CD1      -12.5090   -8.1500    6.4860 C.3   143  ILE143      0.0001
    107  N         -9.1870   -5.2240   10.4420 N.am  144  HIS144     -0.1959
    108  CA        -8.2530   -5.2850   11.5520 C.3   144  HIS144      0.1787
    109  C         -8.2720   -6.6530   12.2230 C.2   144  HIS144      0.2620
    110  O         -7.2210   -7.2740   12.4160 O.2   144  HIS144     -0.2715
    111  CB        -8.5260   -4.1640   12.5580 C.3   144  HIS144      0.0785
    112  CG        -7.6100   -4.2010   13.7340 C.ar  144  HIS144      0.0821
    113  ND1       -6.5810   -3.3000   13.9170 N.ar  144  HIS144     -0.2267
    114  CD2       -7.5510   -5.0610   14.7750 C.ar  144  HIS144      0.1154
    115  CE1       -5.9340   -3.6040   15.0290 C.ar  144  HIS144      0.1986
    116  NE2       -6.5000   -4.6700   15.5660 N.ar  144  HIS144     -0.2212
    117  N         -9.4780   -7.1170   12.5500 N.am  145  ARG145     -0.1963
    118  CA        -9.7580   -8.4640   13.0790 C.3   145  ARG145      0.1729
    119  C         -9.5560   -8.6470   14.5740 C.2   145  ARG145      0.2616
    120  O         -9.9890   -9.6460   15.1320 O.2   145  ARG145     -0.2715
    121  CB        -8.9960   -9.5760   12.3270 C.3   145  ARG145      0.0348
    122  CG        -9.3400   -9.7100   10.8580 C.3   145  ARG145      0.0492
    123  CD        -8.4530  -10.7690   10.2150 C.3   145  ARG145      0.2205
    124  NE        -8.9080  -11.1050    8.8660 N.pl3 145  ARG145     -0.0865
    125  CZ        -8.5750  -10.4300    7.7710 C.cat 145  ARG145      0.5346
    126  NH1       -7.7630   -9.3800    7.8540 N.pl3 145  ARG145      0.1354
    127  NH2       -9.0430  -10.8120    6.5840 N.pl3 145  ARG145      0.1354
    128  N         -8.9000   -7.6970   15.2360 N.am  146  ASP146     -0.1971
    129  CA        -8.6570   -7.8740   16.6560 C.3   146  ASP146      0.1709
    130  C         -8.7520   -6.5760   17.4340 C.2   146  ASP146      0.2293
    131  O         -7.8740   -6.2420   18.2360 O.2   146  ASP146     -0.2864
    132  CB        -7.3160   -8.5740   16.9130 C.3   146  ASP146      0.1436
    133  CG        -7.2440   -9.1820   18.3080 C.2   146  ASP146      0.3671
    134  OD1       -6.1260   -9.4200   18.7940 O.co2 146  ASP146     -0.2456
    135  OD2       -8.3080   -9.3880   18.9270 O.co2 146  ASP146     -0.2456
    136  N         -5.7290   -2.9830   22.3370 N.3   151  ASN151     -0.1240
    137  CA        -5.2200   -2.6530   21.0050 C.3   151  ASN151      0.1653
    138  C         -5.5770   -1.2200   20.5840 C.2   151  ASN151      0.2266
    139  O         -5.4940   -0.8520   19.4070 O.2   151  ASN151     -0.2867
    140  CB        -5.6860   -3.6900   19.9730 C.3   151  ASN151      0.1155
    141  CG        -4.8560   -4.9730   20.0160 C.2   151  ASN151      0.2627
    142  OD1       -3.7300   -4.9920   20.5340 O.2   151  ASN151     -0.2716
    143  ND2       -5.4120   -6.0510   19.4780 N.am  151  ASN151     -0.0877
    144  N         -5.3600    3.3250   16.7490 N.3   162  ILE162     -0.1231
    145  CA        -5.5770    1.8900   16.6470 C.3   162  ILE162      0.1692
    146  C         -4.2060    1.2340   16.4840 C.2   162  ILE162      0.2592
    147  O         -3.4090    1.6470   15.6370 O.2   162  ILE162     -0.2718
    148  CB        -6.4820    1.5630   15.4420 C.3   162  ILE162      0.0266
    149  CG1       -7.8700    2.1860   15.6350 C.3   162  ILE162      0.0019
    150  CG2       -6.5430    0.0360   15.1710 C.3   162  ILE162      0.0020
    151  CD1       -8.7350    2.1880   14.3700 C.3   162  ILE162      0.0001
    152  N         -3.9400    0.2000   17.2830 N.am  163  LEU163     -0.1966
    153  CA        -2.6290   -0.4570   17.2590 C.3   163  LEU163      0.1728
    154  C         -2.6040   -1.7370   16.4510 C.2   163  LEU163      0.2616
    155  O         -3.6530   -2.3250   16.1790 O.2   163  LEU163     -0.2715
    156  CB        -2.1590   -0.7910   18.6750 C.3   163  LEU163      0.0311
    157  CG        -2.1040    0.3450   19.6880 C.3   163  LEU163      0.0022
    158  CD1       -1.7780   -0.2500   21.0540 C.3   163  LEU163      0.0001
    159  CD2       -1.0700    1.3850   19.2490 C.3   163  LEU163      0.0001
    160  N         -1.3830   -2.1500   16.1050 N.am  164  ASP164     -0.1957
    161  CA        -1.0920   -3.4580   15.5180 C.3   164  ASP164      0.1840
    162  C         -1.2960   -4.5540   16.5530 C.2   164  ASP164      0.2622
    163  O         -2.0590   -5.4890   16.3220 O.2   164  ASP164     -0.2715
    164  CB         0.3330   -3.5070   14.9300 C.3   164  ASP164      0.1450
    165  CG         1.4070   -2.9690   15.8880 C.2   164  ASP164      0.3671
    166  OD1        1.0840   -2.2230   16.8380 O.co2 164  ASP164     -0.2456
    167  OD2        2.5960   -3.2850   15.6720 O.co2 164  ASP164     -0.2456
    168  N         -0.6050   -4.4380   17.6880 N.am  165  PHE165     -0.1974
    169  CA        -0.8530   -5.2940   18.8460 C.3   165  PHE165      0.1639
    170  C         -0.4650   -4.5810   20.1350 C.2   165  PHE165      0.2290
    171  O          0.3350   -3.6430   20.1190 O.2   165  PHE165     -0.2864
    172  CB        -0.1440   -6.6580   18.7280 C.3   165  PHE165      0.0560
    173  CG         1.3590   -6.5770   18.6670 C.ar  165  PHE165     -0.0200
    174  CD1        2.1200   -6.6510   19.8330 C.ar  165  PHE165     -0.0042
    175  CD2        2.0170   -6.4680   17.4450 C.ar  165  PHE165     -0.0042
    176  CE1        3.5140   -6.5930   19.7850 C.ar  165  PHE165     -0.0003
    177  CE2        3.4050   -6.4130   17.3820 C.ar  165  PHE165     -0.0003
    178  CZ         4.1570   -6.4770   18.5540 C.ar  165  PHE165     -0.0000
    179  N        -15.1150  -10.4080   19.7200 N.3   174  ARG174     -0.1245
    180  CA       -15.2230  -11.0380   18.3980 C.3   174  ARG174      0.1563
    181  C        -16.6650  -11.1650   17.8960 C.2   174  ARG174      0.2260
    182  O        -17.5480  -11.6100   18.6400 O.2   174  ARG174     -0.2867
    183  CB       -14.5980  -12.4340   18.4530 C.3   174  ARG174      0.0307
    184  CG       -13.1130  -12.4830   18.2530 C.3   174  ARG174      0.0489
    185  CD       -12.7650  -13.0400   16.8730 C.3   174  ARG174      0.2205
    186  NE       -11.5630  -12.4040   16.3590 N.pl3 174  ARG174     -0.0865
    187  CZ       -10.4040  -13.0160   16.1470 C.cat 174  ARG174      0.5346
    188  NH1      -10.2710  -14.3180   16.3720 N.pl3 174  ARG174      0.1354
    189  NH2       -9.3750  -12.3190   15.6920 N.pl3 174  ARG174      0.1354
@<TRIPOS>BOND
     1    91    92    1
     2    96    98    1
     3    96    95    1
     4    92    95    1
     5    92    93    1
     6    86    85    2
     7    95    97    1
     8    85    84    1
     9    93    94    2
    10    93    99   am
    11   106   104    1
    12   127   125    1
    13    44    45    1
    14   104   103    1
    15    51    49    1
    16    60    61    1
    17    99   100    1
    18    24    25    1
    19    25    28    1
    20    25    26    1
    21    34    32    1
    22    45    46    1
    23    45    48    1
    24    84    83    1
    25    84    87    1
    26    49    48    1
    27    49    50    1
    28    47    46    2
    29    27    26    2
    30    28    29    1
    31    61    62    1
    32    61    64    1
    33   125   126    1
    34   125   124    2
    35    31    32    2
    36    31    30    1
    37    62    63    2
    38    46    52   am
    39    29    30    1
    40    26    35   am
    41   103   100    1
    42   103   105    1
    43    32    33    1
    44   100   101    1
    45    66    67    1
    46    66    65    1
    47    54    55    2
    48    54    53    1
    49    89    87    1
    50    52    53    1
    51    87    88    1
    52   124   123    1
    53    13    14    1
    54    65    64    1
    55    35    36    1
    56   102   101    2
    57   101   107   am
    58    53    56    1
    59    37    38    2
    60    37    36    1
    61    88    90    1
    62    14    15    1
    63    14    17    1
    64    15    16    2
    65    36    39    1
    66   123   122    1
    67    56    57    1
    68   107   108    1
    69   122   121    1
    70    17    18    1
    71    39    40    1
    72    74    72    1
    73   108   109    1
    74   108   111    1
    75    57    58    1
    76    57    59    1
    77    73    72    1
    78    72    69    1
    79   109   110    2
    80   109   117   am
    81    78    77    2
    82    40    41    1
    83   121   118    1
    84    18    19    1
    85   117   118    1
    86   111   112    1
    87   118   119    1
    88    42    41   ar
    89    71    70    2
    90    77    76    1
    91    41    43   ar
    92    69    68    1
    93    69    70    1
    94    19    20    1
    95    70    75   am
    96   112   113   ar
    97   112   114   ar
    98   113   115   ar
    99    20    21    2
   100    75    76    1
   101   151   149    1
   102    76    79    1
   103   119   120    2
   104   119   128   am
   105    22    21    1
   106    81    79    1
   107    21    23    1
   108   114   116   ar
   109   164   161    1
   110   164   165    1
   111   115   116   ar
   112   150   148    1
   113   128   129    1
   114    79    80    1
   115   148   149    1
   116   148   145    1
   117   161   160    1
   118   161   162    1
   119   147   146    2
   120   167   165   ar
   121   189   187    1
   122   165   166   ar
   123    80    82    1
   124   160   154   am
   125   187   186    2
   126   187   188    1
   127   155   154    2
   128   163   162    2
   129   186   185    1
   130   154   153    1
   131   146   145    1
   132   146   152   am
   133   162   168   am
   134    12    11    1
   135   145   144    1
   136   129   132    1
   137   129   130    1
   138    11    10   ar
   139    11     9   ar
   140   185   184    1
   141    10     8   ar
   142     9     7   ar
   143   132   133    1
   144     7     6   ar
   145     8     6   ar
   146     6     5    1
   147   153   152    1
   148   153   156    1
   149   177   175   ar
   150   177   178   ar
   151   130   131    2
   152   175   173   ar
   153     5     2    1
   154   168   169    1
   155   181   180    1
   156   181   182    2
   157     4     3    2
   158   184   183    1
   159   133   134   ar
   160   133   135   ar
   161   180   183    1
   162   180   179    1
   163   178   176   ar
   164     2     3    1
   165     2     1    1
   166   173   172    1
   167   173   174   ar
   168   156   157    1
   169   172   169    1
   170   169   170    1
   171   159   157    1
   172   139   138    2
   173   143   141   am
   174   157   158    1
   175   176   174   ar
   176   140   141    1
   177   140   137    1
   178   141   142    2
   179   171   170    2
   180   138   137    1
   181   137   136    1
