@<TRIPOS>MOLECULE
tmp/4ehvA03.pdb
 83 82 0 0 0
SMALL
GASTEIGER

@<TRIPOS>ATOM
      1  N        -17.9090  -14.9830   13.3290 N.3   178  ILE178     -0.1231
      2  CA       -16.6000  -15.6390   13.3550 C.3   178  ILE178      0.1692
      3  C        -16.6960  -16.9710   14.1080 C.2   178  ILE178      0.2592
      4  O        -15.6860  -17.6370   14.3640 O.2   178  ILE178     -0.2718
      5  CB       -15.5000  -14.7350   13.9510 C.3   178  ILE178      0.0266
      6  CG1      -15.5100  -13.3650   13.2660 C.3   178  ILE178      0.0019
      7  CG2      -14.1350  -15.3830   13.7870 C.3   178  ILE178      0.0020
      8  CD1      -14.4200  -12.4280   13.7450 C.3   178  ILE178      0.0001
      9  N        -17.9290  -17.3400   14.4570 N.am  179  MET179     -0.1965
     10  CA       -18.2410  -18.6350   15.0460 C.3   179  MET179      0.1736
     11  C        -19.2250  -19.4070   14.1750 C.2   179  MET179      0.2616
     12  O        -19.3450  -20.6220   14.2990 O.2   179  MET179     -0.2715
     13  CB       -18.8670  -18.4680   16.4330 C.3   179  MET179      0.0427
     14  CG       -17.9530  -17.8750   17.4840 C.3   179  MET179      0.0599
     15  SD       -18.7000  -17.9550   19.1260 S.3   179  MET179     -0.1393
     16  CE       -17.4000  -17.2160   20.1160 C.3   179  MET179      0.0692
     17  N        -19.9390  -18.6970   13.3070 N.am  180  LEU180     -0.1963
     18  CA       -21.0540  -19.2980   12.5730 C.3   180  LEU180      0.1728
     19  C        -20.7390  -19.5860   11.1140 C.2   180  LEU180      0.2616
     20  O        -21.2740  -20.5220   10.5270 O.2   180  LEU180     -0.2715
     21  CB       -22.3020  -18.4240   12.6870 C.3   180  LEU180      0.0311
     22  CG       -22.8690  -18.3950   14.1040 C.3   180  LEU180      0.0022
     23  CD1      -24.1350  -17.5640   14.1650 C.3   180  LEU180      0.0001
     24  CD2      -23.1210  -19.8180   14.5880 C.3   180  LEU180      0.0001
     25  N        -19.8780  -18.7690   10.5240 N.am  181  ASN181     -0.1958
     26  CA       -19.4120  -19.0490    9.1850 C.3   181  ASN181      0.1819
     27  C        -17.9480  -18.6530    9.0600 C.2   181  ASN181      0.2621
     28  O        -17.2660  -18.4130   10.0570 O.2   181  ASN181     -0.2715
     29  CB       -20.2460  -18.2830    8.1650 C.3   181  ASN181      0.1195
     30  CG       -19.6030  -16.9730    7.7710 C.2   181  ASN181      0.2630
     31  OD1      -18.4170  -16.7760    7.9970 O.2   181  ASN181     -0.2716
     32  ND2      -20.3800  -16.0760    7.1750 N.am  181  ASN181     -0.0877
     33  N        -17.4710  -18.6050    7.8260 N.am  182  TRP182     -0.1960
     34  CA       -16.1580  -18.0750    7.5160 C.3   182  TRP182      0.1771
     35  C        -16.1640  -17.6970    6.0490 C.2   182  TRP182      0.2619
     36  O        -15.2020  -17.1270    5.5350 O.2   182  TRP182     -0.2715
     37  CB       -15.0570  -19.0980    7.7940 C.3   182  TRP182      0.0590
     38  CG       -14.7370  -19.2680    9.2450 C.ar  182  TRP182      0.0006
     39  CD1      -15.2050  -18.5160   10.2840 C.ar  182  TRP182      0.0946
     40  CD2      -13.8440  -20.2310    9.8170 C.ar  182  TRP182      0.0152
     41  NE1      -14.6750  -18.9670   11.4700 N.ar  182  TRP182     -0.2442
     42  CE2      -13.8340  -20.0170   11.2100 C.ar  182  TRP182      0.0810
     43  CE3      -13.0610  -21.2600    9.2860 C.ar  182  TRP182      0.0012
     44  CZ2      -13.0720  -20.7950   12.0790 C.ar  182  TRP182      0.0191
     45  CZ3      -12.3060  -22.0340   10.1520 C.ar  182  TRP182      0.0001
     46  CH2      -12.3170  -21.7960   11.5310 C.ar  182  TRP182      0.0015
     47  N        -17.2640  -18.0300    5.3830 N.am  183  MET183     -0.1977
     48  CA       -17.4390  -17.6950    3.9810 C.3   183  MET183      0.1605
     49  C        -18.3490  -16.4780    3.8240 C.2   183  MET183      0.2287
     50  O        -18.5090  -15.9540    2.7250 O.2   183  MET183     -0.2864
     51  CB       -18.0190  -18.8880    3.2160 C.3   183  MET183      0.0413
     52  CG       -17.2570  -20.1920    3.4130 C.3   183  MET183      0.0598
     53  SD       -17.6180  -21.4300    2.1430 S.3   183  MET183     -0.1393
     54  CE       -16.4290  -20.9950    0.8850 C.3   183  MET183      0.0692
     55  N        -23.4110  -23.5920    6.6340 N.3   237  SER237     -0.1217
     56  CA       -22.9650  -24.7730    7.3700 C.3   237  SER237      0.1889
     57  C        -24.1310  -25.4170    8.1050 C.2   237  SER237      0.2288
     58  O        -24.7670  -24.7770    8.9340 O.2   237  SER237     -0.2866
     59  CB       -21.8570  -24.3930    8.3560 C.3   237  SER237      0.2089
     60  OG       -21.6860  -25.3820    9.3580 O.3   237  SER237     -0.2183
     61  N        -24.0360  -27.8120   10.3950 N.3   239  SER239     -0.1202
     62  CA       -23.7250  -27.9350   11.8150 C.3   239  SER239      0.2020
     63  C        -23.9050  -26.6140   12.5590 C.2   239  SER239      0.2618
     64  O        -24.4250  -26.5970   13.6730 O.2   239  SER239     -0.2717
     65  CB       -22.3150  -28.4980   12.0290 C.3   239  SER239      0.2103
     66  OG       -21.3560  -27.8100   11.2480 O.3   239  SER239     -0.2182
     67  N        -23.4900  -25.5100   11.9350 N.am  240  ALA240     -0.1979
     68  CA       -23.6450  -24.1820   12.5300 C.3   240  ALA240      0.1597
     69  C        -25.1170  -23.8040   12.6340 C.2   240  ALA240      0.2287
     70  O        -25.5630  -23.2770   13.6520 O.2   240  ALA240     -0.2864
     71  CB       -22.8850  -23.1320   11.7180 C.3   240  ALA240      0.0319
     72  N        -26.6960  -25.9290   15.2690 N.3   243  TYR243     -0.1241
     73  CA       -26.2260  -25.4550   16.5680 C.3   243  TYR243      0.1605
     74  C        -27.1010  -24.3210   17.0890 C.2   243  TYR243      0.2264
     75  O        -27.6010  -24.3870   18.2090 O.2   243  TYR243     -0.2867
     76  CB       -24.7590  -24.9880   16.5000 C.3   243  TYR243      0.0534
     77  CG       -24.2350  -24.4060   17.8020 C.ar  243  TYR243     -0.0201
     78  CD1      -23.3470  -25.1220   18.5990 C.ar  243  TYR243     -0.0009
     79  CD2      -24.6400  -23.1420   18.2440 C.ar  243  TYR243     -0.0009
     80  CE1      -22.8690  -24.6000   19.7950 C.ar  243  TYR243      0.0417
     81  CE2      -24.1770  -22.6180   19.4440 C.ar  243  TYR243      0.0417
     82  CZ       -23.2880  -23.3480   20.2080 C.ar  243  TYR243      0.1957
     83  OH       -22.8220  -22.8220   21.3880 O.3   243  TYR243     -0.2866
@<TRIPOS>BOND
     1    54    53    1
     2    53    52    1
     3    50    49    2
     4    51    52    1
     5    51    48    1
     6    49    48    1
     7    48    47    1
     8    47    35   am
     9    36    35    2
    10    35    34    1
    11    55    56    1
    12    32    30   am
    13    56    57    1
    14    56    59    1
    15    34    37    1
    16    34    33    1
    17    30    31    2
    18    30    29    1
    19    37    38    1
    20    33    27   am
    21    57    58    2
    22    29    26    1
    23    59    60    1
    24    27    26    1
    25    27    28    2
    26    26    25    1
    27    38    40   ar
    28    38    39   ar
    29    43    40   ar
    30    43    45   ar
    31    40    42   ar
    32    45    46   ar
    33    39    41   ar
    34    61    62    1
    35    25    19   am
    36    20    19    2
    37    19    18    1
    38    42    41   ar
    39    42    44   ar
    40    66    65    1
    41    46    44   ar
    42    71    68    1
    43    62    65    1
    44    62    63    1
    45    67    68    1
    46    67    63   am
    47    68    69    1
    48    63    64    2
    49    18    21    1
    50    18    17    1
    51    69    70    2
    52    21    22    1
    53     6     8    1
    54     6     5    1
    55    17    11   am
    56     1     2    1
    57     2     5    1
    58     2     3    1
    59     7     5    1
    60    22    23    1
    61    22    24    1
    62     3     4    2
    63     3     9   am
    64    11    12    2
    65    11    10    1
    66     9    10    1
    67    10    13    1
    68    72    73    1
    69    13    14    1
    70    76    73    1
    71    76    77    1
    72    73    74    1
    73    74    75    2
    74    14    15    1
    75    77    79   ar
    76    77    78   ar
    77    79    81   ar
    78    78    80   ar
    79    15    16    1
    80    81    82   ar
    81    80    82   ar
    82    82    83    1
