@<TRIPOS>MOLECULE
tmp/4ehxA00.pdb
 108 101 0 0 0
SMALL
GASTEIGER

@<TRIPOS>ATOM
      1  N         -1.9190  -12.7960  -25.3130 N.3    13  TYR13      -0.1241
      2  CA        -2.3040  -11.5240  -24.7270 C.3    13  TYR13       0.1605
      3  C         -1.3980  -10.3870  -25.1980 C.2    13  TYR13       0.2264
      4  O         -1.8660   -9.2670  -25.4340 O.2    13  TYR13      -0.2867
      5  CB        -2.2730  -11.6300  -23.1970 C.3    13  TYR13       0.0534
      6  CG        -2.7490  -10.3960  -22.4800 C.ar   13  TYR13      -0.0201
      7  CD1       -4.0700   -9.9760  -22.5800 C.ar   13  TYR13      -0.0009
      8  CD2       -1.8830   -9.6590  -21.6840 C.ar   13  TYR13      -0.0009
      9  CE1       -4.5140   -8.8470  -21.9090 C.ar   13  TYR13       0.0417
     10  CE2       -2.3110   -8.5270  -21.0160 C.ar   13  TYR13       0.0417
     11  CZ        -3.6280   -8.1230  -21.1310 C.ar   13  TYR13       0.1957
     12  OH        -4.0540   -6.9930  -20.4620 O.3    13  TYR13      -0.2866
     13  N         -2.4850   -9.1220  -28.6180 N.3    16  ILE16      -0.1231
     14  CA        -3.7140   -8.3270  -28.5200 C.3    16  ILE16       0.1692
     15  C         -3.4460   -6.9110  -27.9960 C.2    16  ILE16       0.2591
     16  O         -3.9070   -5.9210  -28.5760 O.2    16  ILE16      -0.2718
     17  CB        -4.7670   -9.0340  -27.6280 C.3    16  ILE16       0.0266
     18  CG1       -5.2020  -10.3590  -28.2660 C.3    16  ILE16       0.0019
     19  CG2       -5.9740   -8.1170  -27.3760 C.3    16  ILE16       0.0020
     20  CD1       -5.8590  -11.3330  -27.2990 C.3    16  ILE16       0.0001
     21  N         -2.6990   -6.8240  -26.8980 N.am   17  ILE17      -0.1980
     22  CA        -2.3490   -5.5370  -26.2950 C.3    17  ILE17       0.1595
     23  C         -1.5060   -4.6760  -27.2320 C.2    17  ILE17       0.2287
     24  O         -1.7780   -3.4810  -27.3980 O.2    17  ILE17      -0.2864
     25  CB        -1.5980   -5.7210  -24.9540 C.3    17  ILE17       0.0276
     26  CG1       -2.5130   -6.3670  -23.9170 C.3    17  ILE17       0.0022
     27  CG2       -1.1170   -4.3700  -24.4020 C.3    17  ILE17       0.0022
     28  CD1       -3.6970   -5.5020  -23.5360 C.3    17  ILE17       0.0001
     29  N         -3.6440   -3.2390  -30.0850 N.3    20  ARG20      -0.1245
     30  CA        -4.4620   -2.1060  -29.6490 C.3    20  ARG20       0.1563
     31  C         -3.5870   -0.8740  -29.4590 C.2    20  ARG20       0.2260
     32  O         -3.9440    0.2400  -29.8670 O.2    20  ARG20      -0.2867
     33  CB        -5.2010   -2.4410  -28.3410 C.3    20  ARG20       0.0307
     34  CG        -6.0340   -1.2600  -27.7800 C.3    20  ARG20       0.0489
     35  CD        -6.9590   -1.6900  -26.6190 C.3    20  ARG20       0.2205
     36  NE        -7.5390   -0.5290  -25.9390 N.pl3  20  ARG20      -0.0865
     37  CZ        -6.8950    0.1420  -24.9980 C.cat  20  ARG20       0.5346
     38  NH1       -5.6850   -0.2640  -24.6310 N.pl3  20  ARG20       0.1354
     39  NH2       -7.4510    1.1930  -24.4140 N.pl3  20  ARG20       0.1354
     40  N        -13.1140    4.1760  -12.6840 N.3    72  ARG72      -0.1245
     41  CA       -13.7650    3.1600  -13.5160 C.3    72  ARG72       0.1563
     42  C        -15.0290    2.6210  -12.8990 C.2    72  ARG72       0.2260
     43  O        -16.0510    2.4960  -13.5790 O.2    72  ARG72      -0.2867
     44  CB       -12.8220    1.9850  -13.7950 C.3    72  ARG72       0.0307
     45  CG       -13.3870    0.9990  -14.8200 C.3    72  ARG72       0.0489
     46  CD       -12.3790   -0.0910  -15.1610 C.3    72  ARG72       0.2205
     47  NE       -12.8490   -0.9440  -16.2510 N.pl3  72  ARG72      -0.0865
     48  CZ       -12.1490   -1.9500  -16.7720 C.cat  72  ARG72       0.5346
     49  NH1      -12.6580   -2.6670  -17.7660 N.pl3  72  ARG72       0.1354
     50  NH2      -10.9410   -2.2410  -16.3030 N.pl3  72  ARG72       0.1354
     51  N        -17.2110    3.7390  -16.6810 N.3   117  GLU117     -0.1245
     52  CA       -16.2930    2.9510  -17.5040 C.3   117  GLU117      0.1567
     53  C        -15.6490    3.8310  -18.5830 C.2   117  GLU117      0.2260
     54  O        -14.4260    3.7990  -18.8100 O.2   117  GLU117     -0.2867
     55  CB       -17.0800    1.8220  -18.1740 C.3   117  GLU117      0.0388
     56  CG       -16.2310    0.8230  -18.9280 C.3   117  GLU117      0.1160
     57  CD       -15.6040   -0.2010  -18.0080 C.2   117  GLU117      0.3649
     58  OE1      -16.1360   -0.4070  -16.8930 O.co2 117  GLU117     -0.2457
     59  OE2      -14.5790   -0.7980  -18.4000 O.co2 117  GLU117     -0.2457
     60  N        -14.3390    7.1300  -19.3600 N.3   119  ARG119     -0.1245
     61  CA       -13.9270    8.2780  -18.5450 C.3   119  ARG119      0.1563
     62  C        -14.3760    9.6090  -19.1520 C.2   119  ARG119      0.2260
     63  O        -14.7790   10.5300  -18.4370 O.2   119  ARG119     -0.2867
     64  CB       -12.4080    8.2700  -18.3200 C.3   119  ARG119      0.0307
     65  CG       -11.9350    7.4970  -17.0740 C.3   119  ARG119      0.0489
     66  CD       -12.2900    6.0340  -17.1130 C.3   119  ARG119      0.2205
     67  NE       -11.3030    5.2290  -16.3850 N.pl3 119  ARG119     -0.0865
     68  CZ       -11.1380    3.9200  -16.5340 C.cat 119  ARG119      0.5346
     69  NH1      -11.9160    3.2230  -17.3800 N.pl3 119  ARG119      0.1354
     70  NH2      -10.1910    3.3110  -15.8240 N.pl3 119  ARG119      0.1354
     71  N         -6.2280    5.3010  -12.0240 N.3   139  ASP139     -0.1239
     72  CA        -6.0710    4.1280  -12.8440 C.3   139  ASP139      0.1674
     73  C         -6.4320    4.3940  -14.3130 C.2   139  ASP139      0.2266
     74  O         -7.2720    3.7130  -14.9040 O.2   139  ASP139     -0.2867
     75  CB        -6.8800    2.9620  -12.2700 C.3   139  ASP139      0.1410
     76  CG        -6.3510    1.6360  -12.7500 C.2   139  ASP139      0.3668
     77  OD1       -5.1350    1.5940  -13.0250 O.co2 139  ASP139     -0.2456
     78  OD2       -7.1240    0.6660  -12.8850 O.co2 139  ASP139     -0.2456
     79  N         -4.1070    2.9430  -19.0660 N.3   142  GLN142     -0.1231
     80  CA        -4.5880    2.1540  -20.2050 C.3   142  GLN142      0.1698
     81  C         -5.7820    2.7810  -20.9510 C.2   142  GLN142      0.2592
     82  O         -6.1470    2.3270  -22.0440 O.2   142  GLN142     -0.2718
     83  CB        -4.9860    0.7500  -19.7290 C.3   142  GLN142      0.0381
     84  CG        -3.8030   -0.1560  -19.3660 C.3   142  GLN142      0.0905
     85  CD        -3.1700    0.1970  -18.0280 C.2   142  GLN142      0.2608
     86  OE1       -3.8660    0.5180  -17.0580 O.2   142  GLN142     -0.2717
     87  NE2       -1.8510    0.1350  -17.9680 N.am  142  GLN142     -0.0878
     88  N         -6.4140    3.7930  -20.3600 N.am  143  HIS143     -0.1976
     89  CA        -7.6260    4.3620  -20.9580 C.3   143  HIS143      0.1656
     90  C         -7.2910    5.4050  -22.0290 C.2   143  HIS143      0.2291
     91  O         -7.5870    6.5940  -21.8710 O.2   143  HIS143     -0.2864
     92  CB        -8.5560    4.9480  -19.8820 C.3   143  HIS143      0.0771
     93  CG        -9.9670    5.1340  -20.3570 C.ar  143  HIS143      0.0820
     94  ND1      -10.8490    4.0810  -20.4910 N.ar  143  HIS143     -0.2267
     95  CD2      -10.6460    6.2430  -20.7420 C.ar  143  HIS143      0.1154
     96  CE1      -12.0080    4.5310  -20.9450 C.ar  143  HIS143      0.1986
     97  NE2      -11.9110    5.8400  -21.1070 N.ar  143  HIS143     -0.2212
     98  N         -0.0810   -5.6490  -17.0040 N.3   171  ARG171     -0.1245
     99  CA        -1.2370   -5.4470  -17.8740 C.3   171  ARG171      0.1563
    100  C         -0.7890   -5.0880  -19.2880 C.2   171  ARG171      0.2260
    101  O         -1.5380   -5.2830  -20.2440 O.2   171  ARG171     -0.2867
    102  CB        -2.1630   -4.3510  -17.3130 C.3   171  ARG171      0.0307
    103  CG        -2.9830   -4.8180  -16.1120 C.3   171  ARG171      0.0489
    104  CD        -4.0230   -3.7830  -15.6830 C.3   171  ARG171      0.2205
    105  NE        -3.4140   -2.6440  -15.0060 N.pl3 171  ARG171     -0.0865
    106  CZ        -4.1020   -1.6630  -14.4330 C.cat 171  ARG171      0.5346
    107  NH1       -5.4310   -1.6780  -14.4480 N.pl3 171  ARG171      0.1354
    108  NH2       -3.4620   -0.6640  -13.8420 N.pl3 171  ARG171      0.1354
@<TRIPOS>BOND
     1    29    30    1
     2    32    31    2
     3    30    31    1
     4    30    33    1
     5    13    14    1
     6    16    15    2
     7    14    15    1
     8    14    17    1
     9    33    34    1
    10    18    17    1
    11    18    20    1
    12    15    21   am
    13    34    35    1
    14    17    19    1
    15    24    23    2
    16    23    22    1
    17    21    22    1
    18    35    36    1
    19    22    25    1
    20    36    37    2
    21     4     3    2
    22     1     2    1
    23     3     2    1
    24    37    38    1
    25    37    39    1
    26    25    27    1
    27    25    26    1
    28     2     5    1
    29    26    28    1
    30     5     6    1
    31     7     6   ar
    32     7     9   ar
    33     6     8   ar
    34    82    81    2
    35    90    91    2
    36    90    89    1
    37     9    11   ar
    38     8    10   ar
    39    11    10   ar
    40    11    12    1
    41    97    96   ar
    42    97    95   ar
    43    89    88    1
    44    89    92    1
    45    81    88   am
    46    81    80    1
    47    96    94   ar
    48    95    93   ar
    49    94    93   ar
    50    93    92    1
    51   101   100    2
    52    80    83    1
    53    80    79    1
    54    83    84    1
    55    84    85    1
    56    60    61    1
    57   100    99    1
    58    62    61    1
    59    62    63    2
    60    56    55    1
    61    56    57    1
    62    54    53    2
    63    53    52    1
    64    61    64    1
    65    59    57   ar
    66    64    65    1
    67    55    52    1
    68    85    87   am
    69    85    86    2
    70    57    58   ar
    71    99   102    1
    72    99    98    1
    73    49    48    1
    74    52    51    1
    75    69    68    1
    76   102   103    1
    77    66    65    1
    78    66    67    1
    79    48    50    1
    80    48    47    2
    81    68    67    2
    82    68    70    1
    83    47    46    1
    84   103   104    1
    85   104   105    1
    86    46    45    1
    87   105   106    2
    88    74    73    2
    89    45    44    1
    90   107   106    1
    91   106   108    1
    92    73    72    1
    93    44    41    1
    94    43    42    2
    95    41    42    1
    96    41    40    1
    97    77    76   ar
    98    78    76   ar
    99    72    75    1
   100    72    71    1
   101    76    75    1
