@<TRIPOS>MOLECULE
tmp/4ehyA00.pdb
 192 183 0 0 0
SMALL
GASTEIGER

@<TRIPOS>ATOM
      1  N          4.3600    0.8020   -3.8840 N.3    40  GLY40      -0.1210
      2  CA         4.0920   -0.5590   -3.4420 C.3    40  GLY40       0.1956
      3  C          2.6700   -1.0300   -3.6760 C.2    40  GLY40       0.2613
      4  O          1.6990   -0.2820   -3.5140 O.2    40  GLY40      -0.2717
      5  N          2.5430   -2.3030   -4.0150 N.am   41  SER41      -0.1938
      6  CA         1.2980   -2.8170   -4.5320 C.3    41  SER41       0.2055
      7  C          1.2600   -4.3140   -4.4780 C.2    41  SER41       0.2644
      8  O          0.4300   -4.9280   -5.1370 O.2    41  SER41      -0.2714
      9  CB         1.1930   -2.3980   -5.9820 C.3    41  SER41       0.2130
     10  OG         2.4880   -2.4850   -6.5480 O.3    41  SER41      -0.2179
     11  N          2.1600   -4.9150   -3.7060 N.am   42  GLY42      -0.1939
     12  CA         2.1670   -6.3620   -3.5710 C.3    42  GLY42       0.2014
     13  C          2.8860   -7.0870   -4.6980 C.2    42  GLY42       0.2639
     14  O          2.7900   -8.3280   -4.8100 O.2    42  GLY42      -0.2714
     15  N          3.6340   -6.3400   -5.5120 N.am   43  LYS43      -0.1963
     16  CA         4.3320   -6.9170   -6.6770 C.3    43  LYS43       0.1728
     17  C          5.3380   -7.9840   -6.2960 C.2    43  LYS43       0.2617
     18  O          5.3240   -9.0920   -6.8370 O.2    43  LYS43      -0.2715
     19  CB         5.0690   -5.8320   -7.4860 C.3    43  LYS43       0.0311
     20  CG         4.1630   -4.8000   -8.1200 C.3    43  LYS43       0.0038
     21  CD         4.9180   -3.9180   -9.1370 C.3    43  LYS43       0.0206
     22  CE         6.1290   -3.2140   -8.5130 C.3    43  LYS43       0.1093
     23  NZ         5.7800   -2.2330   -7.4370 N.3    43  LYS43      -0.1314
     24  N          6.2230   -7.6480   -5.3640 N.am   44  THR44      -0.1937
     25  CA         7.2700   -8.5850   -4.9660 C.3    44  THR44       0.2028
     26  C          6.6170   -9.8230   -4.3720 C.2    44  THR44       0.2642
     27  O          6.9920  -10.9470   -4.7050 O.2    44  THR44      -0.2714
     28  CB         8.2050   -7.9600   -3.9100 C.3    44  THR44       0.1808
     29  OG1        8.6300   -6.6730   -4.3600 O.3    44  THR44      -0.2208
     30  CG2        9.4110   -8.8250   -3.6630 C.3    44  THR44       0.0379
     31  N          5.6310   -9.6200   -3.4950 N.am   45  SER45      -0.1949
     32  CA         4.9500  -10.7570   -2.8810 C.3    45  SER45       0.1924
     33  C          4.2440  -11.5760   -3.9470 C.2    45  SER45       0.2314
     34  O          4.2820  -12.8130   -3.9260 O.2    45  SER45      -0.2863
     35  CB         3.9510  -10.2910   -1.8070 C.3    45  SER45       0.2116
     36  OG         4.6350   -9.6520   -0.7420 O.3    45  SER45      -0.2180
     37  N          6.5930  -13.7490   -5.8960 N.3    48  MET48      -0.1245
     38  CA         6.9920  -14.9250   -5.1160 C.3    48  MET48       0.1570
     39  C          5.8550  -15.9440   -5.0360 C.2    48  MET48       0.2261
     40  O          6.0810  -17.1550   -5.1300 O.2    48  MET48      -0.2867
     41  CB         7.4590  -14.5240   -3.7110 C.3    48  MET48       0.0387
     42  CG         8.6730  -13.6030   -3.7460 C.3    48  MET48       0.0595
     43  SD         9.3550  -13.2290   -2.1220 S.3    48  MET48      -0.1393
     44  CE         8.0260  -12.3090   -1.3800 C.3    48  MET48       0.0692
     45  N         14.8160   -5.9190   -3.3320 N.3    92  GLU92      -0.1245
     46  CA        13.7500   -6.8120   -3.7960 C.3    92  GLU92       0.1567
     47  C         14.2580   -8.0640   -4.5150 C.2    92  GLU92       0.2260
     48  O         13.8400   -9.1710   -4.1840 O.2    92  GLU92      -0.2867
     49  CB        12.7090   -6.0460   -4.6170 C.3    92  GLU92       0.0388
     50  CG        11.9010   -5.0960   -3.7230 C.3    92  GLU92       0.1160
     51  CD        11.3470   -3.9100   -4.4740 C.2    92  GLU92       0.3649
     52  OE1       10.5640   -3.1350   -3.8790 O.co2  92  GLU92      -0.2457
     53  OE2       11.7080   -3.7480   -5.6580 O.co2  92  GLU92      -0.2457
     54  N         15.6840  -10.3010   -1.9230 N.3    95  LEU95      -0.1245
     55  CA        14.6640  -10.9290   -1.0830 C.3    95  LEU95       0.1561
     56  C         14.0260  -12.1010   -1.8080 C.2    95  LEU95       0.2260
     57  O         13.8750  -13.1860   -1.2440 O.2    95  LEU95      -0.2867
     58  CB        13.5760   -9.9310   -0.6800 C.3    95  LEU95       0.0270
     59  CG        12.4450  -10.4930    0.2110 C.3    95  LEU95       0.0019
     60  CD1       12.9380  -10.7740    1.6360 C.3    95  LEU95       0.0001
     61  CD2       11.2590   -9.5420    0.2420 C.3    95  LEU95       0.0001
     62  N         -4.1010   -6.0390   -1.3980 N.3   179  TYR179     -0.1241
     63  CA        -4.3960   -5.5000   -0.0700 C.3   179  TYR179      0.1605
     64  C         -5.8410   -5.6910    0.3580 C.2   179  TYR179      0.2264
     65  O         -6.3900   -4.8520    1.0730 O.2   179  TYR179     -0.2867
     66  CB        -4.0400   -4.0150    0.0240 C.3   179  TYR179      0.0534
     67  CG        -2.5860   -3.6870   -0.2310 C.ar  179  TYR179     -0.0201
     68  CD1       -2.2100   -2.4000   -0.5700 C.ar  179  TYR179     -0.0009
     69  CD2       -1.5970   -4.6560   -0.1440 C.ar  179  TYR179     -0.0009
     70  CE1       -0.9000   -2.0770   -0.8130 C.ar  179  TYR179      0.0417
     71  CE2       -0.2640   -4.3420   -0.3930 C.ar  179  TYR179      0.0417
     72  CZ         0.0720   -3.0430   -0.7230 C.ar  179  TYR179      0.1957
     73  OH         1.3740   -2.6850   -0.9720 O.3   179  TYR179     -0.2866
     74  N         -3.2310  -11.0660    2.0230 N.3   198  ARG198     -0.1245
     75  CA        -2.0220  -11.4600    2.7390 C.3   198  ARG198      0.1563
     76  C         -2.4380  -12.0120    4.1020 C.2   198  ARG198      0.2260
     77  O         -3.1180  -11.3270    4.8820 O.2   198  ARG198     -0.2867
     78  CB        -1.0520  -10.2840    2.8740 C.3   198  ARG198      0.0307
     79  CG        -0.3220   -9.9310    1.5680 C.3   198  ARG198      0.0489
     80  CD         0.5130   -8.6510    1.7000 C.3   198  ARG198      0.2205
     81  NE        -0.2720   -7.5830    2.3020 N.pl3 198  ARG198     -0.0865
     82  CZ         0.1880   -6.3720    2.5780 C.cat 198  ARG198      0.5346
     83  NH1        1.4460   -6.0660    2.3100 N.pl3 198  ARG198      0.1354
     84  NH2       -0.6110   -5.4770    3.1510 N.pl3 198  ARG198      0.1354
     85  N         -1.2990  -12.8900    7.5390 N.3   200  PHE200     -0.1241
     86  CA        -0.2010  -12.6360    8.4650 C.3   200  PHE200      0.1605
     87  C         -0.1950  -13.6810    9.5640 C.2   200  PHE200      0.2264
     88  O         -0.9300  -13.5810   10.5250 O.2   200  PHE200     -0.2867
     89  CB        -0.3120  -11.2230    9.0300 C.3   200  PHE200      0.0534
     90  CG        -0.2260  -10.1710    7.9740 C.ar  200  PHE200     -0.0203
     91  CD1       -1.3760   -9.6270    7.4200 C.ar  200  PHE200     -0.0042
     92  CD2        1.0100   -9.7690    7.4850 C.ar  200  PHE200     -0.0042
     93  CE1       -1.2940   -8.6760    6.4190 C.ar  200  PHE200     -0.0003
     94  CE2        1.1000   -8.8160    6.4880 C.ar  200  PHE200     -0.0003
     95  CZ        -0.0480   -8.2660    5.9530 C.ar  200  PHE200     -0.0000
     96  N          9.6150    0.9050    2.9650 N.3   227  LEU227     -0.1231
     97  CA         8.7970    0.2530    1.9550 C.3   227  LEU227      0.1693
     98  C          8.2690    1.3060    0.9900 C.2   227  LEU227      0.2593
     99  O          8.4420    2.5080    1.2010 O.2   227  LEU227     -0.2718
    100  CB         7.5890   -0.4670    2.5620 C.3   227  LEU227      0.0284
    101  CG         7.8880   -1.3560    3.7670 C.3   227  LEU227      0.0019
    102  CD1        6.6040   -1.8580    4.3920 C.3   227  LEU227      0.0001
    103  CD2        8.7730   -2.5080    3.3500 C.3   227  LEU227      0.0001
    104  N          7.5870    0.8510   -0.0530 N.am  228  GLY228     -0.1942
    105  CA         6.8650    1.7590   -0.9230 C.3   228  GLY228      0.2014
    106  C          5.8280    2.5550   -0.1450 C.2   228  GLY228      0.2638
    107  O          5.6280    3.7400   -0.4030 O.2   228  GLY228     -0.2714
    108  N          5.1560    1.9080    0.8050 N.am  229  ASP229     -0.1971
    109  CA         4.1880    2.6050    1.6570 C.3   229  ASP229      0.1709
    110  C          4.2200    2.0330    3.0740 C.2   229  ASP229      0.2293
    111  O          3.6670    0.9610    3.3230 O.2   229  ASP229     -0.2864
    112  CB         2.7770    2.5090    1.0590 C.3   229  ASP229      0.1436
    113  CG         1.7250    3.2220    1.8970 C.2   229  ASP229      0.3671
    114  OD1        2.0820    3.9910    2.8190 O.co2 229  ASP229     -0.2456
    115  OD2        0.5230    3.0130    1.6280 O.co2 229  ASP229     -0.2456
    116  N          0.7020    1.0500    5.2080 N.3   232  GLN232     -0.1231
    117  CA        -0.0790   -0.1920    5.2510 C.3   232  GLN232      0.1698
    118  C          0.5120   -1.2180    6.2220 C.2   232  GLN232      0.2592
    119  O         -0.2090   -2.0390    6.7850 O.2   232  GLN232     -0.2718
    120  CB        -0.2840   -0.7900    3.8530 C.3   232  GLN232      0.0381
    121  CG         0.9820   -0.9600    3.0370 C.3   232  GLN232      0.0905
    122  CD         1.7210   -2.2410    3.3580 C.2   232  GLN232      0.2608
    123  OE1        1.1260   -3.2330    3.8010 O.2   232  GLN232     -0.2717
    124  NE2        3.0300   -2.2320    3.1290 N.am  232  GLN232     -0.0878
    125  N          1.8230   -1.1610    6.4240 N.am  233  PHE233     -0.1976
    126  CA         2.4710   -2.0280    7.4020 C.3   233  PHE233      0.1639
    127  C          2.0030   -1.6020    8.7830 C.2   233  PHE233      0.2290
    128  O          1.5620   -2.4230    9.5920 O.2   233  PHE233     -0.2864
    129  CB         3.9980   -1.9140    7.2830 C.3   233  PHE233      0.0560
    130  CG         4.7550   -2.7160    8.3050 C.ar  233  PHE233     -0.0200
    131  CD1        4.3950   -4.0330    8.5850 C.ar  233  PHE233     -0.0042
    132  CD2        5.8330   -2.1570    8.9800 C.ar  233  PHE233     -0.0042
    133  CE1        5.1000   -4.7790    9.5170 C.ar  233  PHE233     -0.0003
    134  CE2        6.5460   -2.8950    9.9200 C.ar  233  PHE233     -0.0003
    135  CZ         6.1880   -4.2100   10.1810 C.ar  233  PHE233     -0.0000
    136  N         -1.5160   -2.8110    9.3230 N.3   236  VAL236     -0.1245
    137  CA        -1.5720   -4.2480    9.5490 C.3   236  VAL236      0.1561
    138  C         -1.2380   -4.5510   11.0090 C.2   236  VAL236      0.2260
    139  O         -1.8790   -5.3920   11.6380 O.2   236  VAL236     -0.2867
    140  CB        -0.5980   -5.0120    8.6220 C.3   236  VAL236      0.0252
    141  CG1       -0.4360   -6.4550    9.0790 C.3   236  VAL236      0.0019
    142  CG2       -1.0920   -4.9560    7.1660 C.3   236  VAL236      0.0019
    143  N         11.8140    4.0970    1.1200 N.3   252  ASP252     -0.1239
    144  CA        11.8170    2.8190    0.4240 C.3   252  ASP252      0.1674
    145  C         13.2650    2.4220    0.1380 C.2   252  ASP252      0.2266
    146  O         14.0860    3.2630   -0.2430 O.2   252  ASP252     -0.2867
    147  CB        11.0180    2.9270   -0.8780 C.3   252  ASP252      0.1410
    148  CG        10.6940    1.5780   -1.4770 C.2   252  ASP252      0.3668
    149  OD1       10.0160    1.5470   -2.5270 O.co2 252  ASP252     -0.2456
    150  OD2       11.1130    0.5480   -0.8970 O.co2 252  ASP252     -0.2456
    151  N          9.6760   -5.7630    8.3990 N.3   270  THR270     -0.1204
    152  CA         9.3220   -6.7270    7.3450 C.3   270  THR270      0.1979
    153  C         10.4790   -7.5360    6.7660 C.2   270  THR270      0.2460
    154  O         11.6530   -7.2270    7.0100 O.2   270  THR270     -0.2732
    155  CB         8.6370   -5.9710    6.1730 C.3   270  THR270      0.1783
    156  OG1        9.6350   -5.3410    5.3670 O.3   270  THR270     -0.2211
    157  CG2        7.6760   -4.9180    6.6830 C.3   270  THR270      0.0376
    158  N         10.1590   -8.5870    5.9970 N.am  271  PRO271     -0.2717
    159  CA        11.2650   -9.3810    5.4510 C.3   271  PRO271      0.1535
    160  C         12.1580   -8.5170    4.5480 C.2   271  PRO271      0.2598
    161  O         13.3700   -8.7060    4.4980 O.2   271  PRO271     -0.2715
    162  CB        10.5440  -10.4550    4.6400 C.3   271  PRO271      0.0310
    163  CG         9.2310  -10.6450    5.3950 C.3   271  PRO271      0.0237
    164  CD         8.8450   -9.2450    5.8120 C.3   271  PRO271      0.0939
    165  N         11.5560   -7.5470    3.8770 N.am  272  LYS272     -0.1978
    166  CA        12.2890   -6.6820    2.9590 C.3   272  LYS272      0.1596
    167  C         13.3540   -5.8970    3.7120 C.2   272  LYS272      0.2287
    168  O         14.4770   -5.7320    3.2330 O.2   272  LYS272     -0.2864
    169  CB        11.3120   -5.7510    2.2200 C.3   272  LYS272      0.0298
    170  CG        11.9790   -4.7330    1.3000 C.3   272  LYS272      0.0038
    171  CD        10.9340   -3.9230    0.5410 C.3   272  LYS272      0.0206
    172  CE        11.5650   -2.7410   -0.2120 C.3   272  LYS272      0.1093
    173  NZ        10.5880   -2.1130   -1.1690 N.3   272  LYS272     -0.1314
    174  N          7.5210   -9.5580   10.6160 N.3   286  LEU286     -0.1245
    175  CA         6.1990  -10.1310   10.4010 C.3   286  LEU286      0.1561
    176  C          6.1940  -10.7590    9.0160 C.2   286  LEU286      0.2260
    177  O          6.5900  -10.1240    8.0320 O.2   286  LEU286     -0.2867
    178  CB         5.1270   -9.0490   10.4750 C.3   286  LEU286      0.0270
    179  CG         3.6730   -9.4980   10.3160 C.3   286  LEU286      0.0019
    180  CD1        3.2650  -10.4050   11.4800 C.3   286  LEU286      0.0001
    181  CD2        2.7510   -8.2890   10.2460 C.3   286  LEU286      0.0001
    182  N          3.9970  -13.4840    6.1460 N.3   288  PHE288     -0.1241
    183  CA         2.6260  -13.7850    5.7410 C.3   288  PHE288      0.1605
    184  C          2.6200  -14.7530    4.5520 C.2   288  PHE288      0.2264
    185  O          3.6350  -14.9230    3.8820 O.2   288  PHE288     -0.2867
    186  CB         1.9180  -12.4910    5.3280 C.3   288  PHE288      0.0534
    187  CG         2.6530  -11.7310    4.2560 C.ar  288  PHE288     -0.0203
    188  CD1        2.3620  -11.9410    2.9070 C.ar  288  PHE288     -0.0042
    189  CD2        3.6640  -10.8380    4.5920 C.ar  288  PHE288     -0.0042
    190  CE1        3.0490  -11.2500    1.9100 C.ar  288  PHE288     -0.0003
    191  CE2        4.3720  -10.1490    3.6040 C.ar  288  PHE288     -0.0003
    192  CZ         4.0650  -10.3600    2.2540 C.ar  288  PHE288     -0.0000
@<TRIPOS>BOND
     1    21    22    1
     2    21    20    1
     3    22    23    1
     4    20    19    1
     5    19    16    1
     6    18    17    2
     7    16    17    1
     8    16    15    1
     9    10     9    1
    10    17    24   am
    11     9     6    1
    12    37    38    1
    13    53    51   ar
    14    15    13   am
    15    24    25    1
    16     8     7    2
    17    40    39    2
    18    38    39    1
    19    38    41    1
    20    25    26    1
    21    25    28    1
    22    14    13    2
    23    27    26    2
    24    13    12    1
    25    49    46    1
    26    49    50    1
    27     6     7    1
    28     6     5    1
    29    47    48    2
    30    47    46    1
    31     7    11   am
    32    51    52   ar
    33    51    50    1
    34    26    31   am
    35    29    28    1
    36     5     3   am
    37    33    34    2
    38    33    32    1
    39    28    30    1
    40     1     2    1
    41    46    45    1
    42    42    41    1
    43    42    43    1
    44    11    12    1
    45     3     4    2
    46     3     2    1
    47    31    32    1
    48    32    35    1
    49   149   148   ar
    50    43    44    1
    51    54    55    1
    52    56    57    2
    53    56    55    1
    54    35    36    1
    55   148   150   ar
    56   148   147    1
    57    62    63    1
    58   173   172    1
    59    55    58    1
    60    73    72    1
    61   105   106    1
    62   105   104    1
    63   147   144    1
    64    70    72   ar
    65    70    68   ar
    66    72    71   ar
    67    58    59    1
    68    68    67   ar
    69   107   106    2
    70    71    69   ar
    71   146   145    2
    72    67    69   ar
    73    67    66    1
    74   172   171    1
    75   106   108   am
    76    63    66    1
    77    63    64    1
    78   104    98   am
    79   145   144    1
    80    59    61    1
    81    59    60    1
    82    64    65    2
    83   144   143    1
    84   171   170    1
    85   108   109    1
    86    98    99    2
    87    98    97    1
    88   112   109    1
    89   112   113    1
    90   170   169    1
    91    79    80    1
    92    79    78    1
    93   115   113   ar
    94   109   110    1
    95    80    81    1
    96   113   114   ar
    97   190   192   ar
    98   190   188   ar
    99    97   100    1
   100    97    96    1
   101    74    75    1
   102   169   166    1
   103   192   191   ar
   104    81    82    2
   105    83    82    1
   106   100   101    1
   107    82    84    1
   108    75    78    1
   109    75    76    1
   110   188   187   ar
   111   166   167    1
   112   166   165    1
   113   121   122    1
   114   121   120    1
   115   110   111    2
   116   124   122   am
   117   168   167    2
   118   103   101    1
   119   122   123    2
   120   191   189   ar
   121   101   102    1
   122   120   117    1
   123   165   160   am
   124   185   184    2
   125    76    77    2
   126   187   189   ar
   127   187   186    1
   128   161   160    2
   129   160   159    1
   130   184   183    1
   131   162   163    1
   132   162   159    1
   133   116   117    1
   134   117   118    1
   135   186   183    1
   136   156   155    1
   137   163   164    1
   138   159   158    1
   139   183   182    1
   140   164   158    1
   141    95    93   ar
   142    95    94   ar
   143   158   153   am
   144   155   157    1
   145   155   152    1
   146   118   125   am
   147   118   119    2
   148    93    91   ar
   149   125   126    1
   150    94    92   ar
   151   153   154    2
   152   153   152    1
   153   142   140    1
   154   129   126    1
   155   129   130    1
   156   152   151    1
   157   126   127    1
   158    91    90   ar
   159    92    90   ar
   160    85    86    1
   161    90    89    1
   162   177   176    2
   163   130   131   ar
   164   130   132   ar
   165    86    89    1
   166    86    87    1
   167   131   133   ar
   168   140   141    1
   169   140   137    1
   170   127   128    2
   171   132   134   ar
   172   176   175    1
   173   136   137    1
   174   133   135   ar
   175   137   138    1
   176    87    88    2
   177   134   135   ar
   178   181   179    1
   179   179   178    1
   180   179   180    1
   181   175   178    1
   182   175   174    1
   183   138   139    2
