@<TRIPOS>MOLECULE
tmp/4ehzC00.pdb
 125 116 0 0 0
SMALL
GASTEIGER

@<TRIPOS>ATOM
      1  N          9.9910   53.2230  -49.0410 N.3    16  LEU16      -0.1231
      2  CA        10.6900   53.8120  -47.9000 C.3    16  LEU16       0.1693
      3  C         10.9630   52.7470  -46.8370 C.2    16  LEU16       0.2592
      4  O         11.8380   52.9090  -45.9970 O.2    16  LEU16      -0.2718
      5  CB         9.8870   54.9770  -47.3070 C.3    16  LEU16       0.0284
      6  CG         9.6220   56.2360  -48.1440 C.3    16  LEU16       0.0019
      7  CD1        8.4990   57.0520  -47.5310 C.3    16  LEU16       0.0001
      8  CD2       10.8680   57.0790  -48.2570 C.3    16  LEU16       0.0001
      9  N         10.2100   51.6540  -46.8970 N.am   17  GLY17      -0.1957
     10  CA        10.3570   50.5510  -45.9680 C.3    17  GLY17       0.1869
     11  C          9.2460   49.5380  -46.1660 C.2    17  GLY17       0.2309
     12  O          8.0780   49.8990  -46.3180 O.2    17  GLY17      -0.2863
     13  N          5.6340   51.0430  -46.8010 N.3    24  VAL24      -0.1245
     14  CA         5.4420   52.4780  -46.8160 C.3    24  VAL24       0.1561
     15  C          6.1090   53.0220  -48.0720 C.2    24  VAL24       0.2260
     16  O          7.2670   52.7180  -48.3480 O.2    24  VAL24      -0.2867
     17  CB         6.0610   53.1900  -45.5910 C.3    24  VAL24       0.0252
     18  CG1        5.7330   54.6680  -45.6530 C.3    24  VAL24       0.0019
     19  CG2        5.5750   52.5950  -44.2850 C.3    24  VAL24       0.0019
     20  N          3.9750   60.1800  -47.0520 N.3    41  ALA41      -0.1245
     21  CA         4.3800   58.8060  -46.8610 C.3    41  ALA41       0.1562
     22  C          3.1120   57.9710  -46.7440 C.2    41  ALA41       0.2260
     23  O          2.2410   58.2500  -45.9230 O.2    41  ALA41      -0.2867
     24  CB         5.2640   58.6540  -45.6180 C.3    41  ALA41       0.0290
     25  N          5.3500   61.1840  -35.3780 N.3    69  VAL69      -0.1245
     26  CA         5.1040   61.5190  -36.7760 C.3    69  VAL69       0.1561
     27  C          3.6520   61.9700  -36.9380 C.2    69  VAL69       0.2260
     28  O          2.7600   61.4810  -36.2420 O.2    69  VAL69      -0.2867
     29  CB         5.4580   60.3520  -37.7340 C.3    69  VAL69       0.0252
     30  CG1        4.4780   59.1380  -37.5620 C.3    69  VAL69       0.0019
     31  CG2        5.5160   60.8450  -39.2040 C.3    69  VAL69       0.0019
     32  N          0.8090   59.6860  -43.9990 N.3    82  MET82      -0.1230
     33  CA         1.6060   60.3810  -42.9790 C.3    82  MET82       0.1702
     34  C          2.4690   61.4530  -43.6310 C.2    82  MET82       0.2592
     35  O          2.7470   61.3910  -44.8300 O.2    82  MET82      -0.2718
     36  CB         2.5410   59.3970  -42.2630 C.3    82  MET82       0.0401
     37  CG         1.8390   58.3300  -41.4280 C.3    82  MET82       0.0596
     38  SD         2.9960   57.0940  -40.8080 S.3    82  MET82      -0.1393
     39  CE         3.1750   56.0870  -42.2820 C.3    82  MET82       0.0692
     40  N          2.9200   62.4220  -42.8490 N.am   83  GLU83      -0.1966
     41  CA         3.9080   63.3640  -43.3560 C.3    83  GLU83       0.1733
     42  C          5.1780   62.6200  -43.7630 C.2    83  GLU83       0.2616
     43  O          5.5040   61.5490  -43.2380 O.2    83  GLU83      -0.2715
     44  CB         4.2570   64.4160  -42.3050 C.3    83  GLU83       0.0429
     45  CG         5.1010   63.8880  -41.1510 C.3    83  GLU83       0.1163
     46  CD         5.3120   64.9430  -40.0740 C.2    83  GLU83       0.3649
     47  OE1        5.2730   66.1420  -40.4140 O.co2  83  GLU83      -0.2457
     48  OE2        5.4930   64.5830  -38.8880 O.co2  83  GLU83      -0.2457
     49  N          5.8940   63.2080  -44.7050 N.am   84  PHE84      -0.1960
     50  CA         7.1080   62.6220  -45.2160 C.3    84  PHE84       0.1771
     51  C          8.2540   63.4640  -44.7130 C.2    84  PHE84       0.2619
     52  O          8.2780   64.6730  -44.9250 O.2    84  PHE84      -0.2715
     53  CB         7.0970   62.6220  -46.7440 C.3    84  PHE84       0.0574
     54  CG         8.4150   62.2570  -47.3500 C.ar   84  PHE84      -0.0200
     55  CD1        8.9900   61.0140  -47.0950 C.ar   84  PHE84      -0.0042
     56  CD2        9.0870   63.1520  -48.1610 C.ar   84  PHE84      -0.0042
     57  CE1       10.2160   60.6690  -47.6520 C.ar   84  PHE84      -0.0003
     58  CE2       10.3230   62.8110  -48.7250 C.ar   84  PHE84      -0.0003
     59  CZ        10.8830   61.5670  -48.4690 C.ar   84  PHE84      -0.0000
     60  N          9.1760   62.8210  -44.0020 N.am   85  LEU85      -0.1977
     61  CA        10.3750   63.4730  -43.4800 C.3    85  LEU85       0.1596
     62  C         11.5360   63.0960  -44.3800 C.2    85  LEU85       0.2287
     63  O         12.0050   61.9480  -44.3390 O.2    85  LEU85      -0.2864
     64  CB        10.6570   63.0080  -42.0450 C.3    85  LEU85       0.0297
     65  CG        10.0510   63.8750  -40.9400 C.3    85  LEU85       0.0022
     66  CD1        8.5610   64.0260  -41.1460 C.3    85  LEU85       0.0001
     67  CD2       10.3340   63.2810  -39.5880 C.3    85  LEU85       0.0001
     68  N         14.6060   60.8670  -43.6180 N.3    88  GLY88      -0.1210
     69  CA        14.4540   59.4320  -43.3790 C.3    88  GLY88       0.1956
     70  C         14.6270   59.0250  -41.9120 C.2    88  GLY88       0.2612
     71  O         14.5400   59.8530  -41.0070 O.2    88  GLY88      -0.2717
     72  N         14.8600   57.7460  -41.6600 N.am   89  SER89      -0.1952
     73  CA        15.0180   57.2980  -40.2800 C.3    89  SER89       0.1924
     74  C         16.4720   57.4380  -39.8510 C.2    89  SER89       0.2314
     75  O         17.3120   57.9030  -40.6140 O.2    89  SER89      -0.2863
     76  CB        14.5670   55.8460  -40.0940 C.3    89  SER89       0.2116
     77  OG        15.5160   54.9250  -40.6210 O.3    89  SER89      -0.2180
     78  N         18.9920   55.7980  -42.0630 N.3    92  GLU92      -0.1245
     79  CA        19.5250   56.5090  -43.2190 C.3    92  GLU92       0.1567
     80  C         20.3590   57.7060  -42.7940 C.2    92  GLU92       0.2260
     81  O         21.4280   57.9720  -43.3540 O.2    92  GLU92      -0.2867
     82  CB        18.4110   56.9530  -44.1810 C.3    92  GLU92       0.0388
     83  CG        17.6890   55.8070  -44.8800 C.3    92  GLU92       0.1160
     84  CD        16.7610   55.0410  -43.9620 C.2    92  GLU92       0.3649
     85  OE1       16.0620   55.6630  -43.1220 O.co2  92  GLU92      -0.2457
     86  OE2       16.7200   53.8060  -44.0970 O.co2  92  GLU92      -0.2457
     87  N         15.3030   52.1700  -36.9660 N.3   133  ARG133     -0.1231
     88  CA        14.5770   52.2790  -38.2420 C.3   133  ARG133      0.1694
     89  C         13.2060   52.9570  -38.0840 C.2   133  ARG133      0.2592
     90  O         12.6570   53.4960  -39.0290 O.2   133  ARG133     -0.2718
     91  CB        14.4010   50.8890  -38.8620 C.3   133  ARG133      0.0321
     92  CG        13.6320   49.9070  -37.9590 C.3   133  ARG133      0.0489
     93  CD        13.7740   48.4420  -38.3980 C.3   133  ARG133      0.2205
     94  NE        12.7900   47.5940  -37.7230 N.pl3 133  ARG133     -0.0865
     95  CZ        13.0270   46.8710  -36.6290 C.cat 133  ARG133      0.5346
     96  NH1       14.2330   46.8540  -36.0690 N.pl3 133  ARG133      0.1354
     97  NH2       12.0510   46.1500  -36.0980 N.pl3 133  ARG133      0.1354
     98  N         12.6450   52.9060  -36.8820 N.am  134  ASN134     -0.1974
     99  CA        11.3470   53.5410  -36.6290 C.3   134  ASN134      0.1688
    100  C         11.4500   54.9390  -35.9960 C.2   134  ASN134      0.2292
    101  O         10.4530   55.5080  -35.5280 O.2   134  ASN134     -0.2864
    102  CB        10.4570   52.6420  -35.7830 C.3   134  ASN134      0.1181
    103  CG         9.9860   51.4310  -36.5370 C.2   134  ASN134      0.2629
    104  OD1        9.7330   51.5060  -37.7320 O.2   134  ASN134     -0.2716
    105  ND2        9.8740   50.3000  -35.8490 N.am  134  ASN134     -0.0877
    106  N         12.2670   58.6480  -37.0250 N.3   136  LEU136     -0.1245
    107  CA        12.4850   59.5890  -38.1270 C.3   136  LEU136      0.1561
    108  C         13.2520   60.8360  -37.6960 C.2   136  LEU136      0.2260
    109  O         13.1100   61.3240  -36.5640 O.2   136  LEU136     -0.2867
    110  CB        11.1490   60.0060  -38.7530 C.3   136  LEU136      0.0270
    111  CG        10.3090   58.8790  -39.3450 C.3   136  LEU136      0.0019
    112  CD1        8.9510   59.4070  -39.7610 C.3   136  LEU136      0.0001
    113  CD2       11.0130   58.1970  -40.5240 C.3   136  LEU136      0.0001
    114  N          8.1750   57.0790  -35.7770 N.3   146  GLY146     -0.1210
    115  CA         7.5880   57.1400  -37.1120 C.3   146  GLY146      0.1956
    116  C          6.8120   55.9410  -37.6360 C.2   146  GLY146      0.2611
    117  O          6.4390   55.9010  -38.8150 O.2   146  GLY146     -0.2717
    118  N          6.5700   54.9590  -36.7780 N.am  147  ASP147     -0.1973
    119  CA         5.7150   53.8400  -37.1520 C.3   147  ASP147      0.1709
    120  C          4.9790   53.3320  -35.9140 C.2   147  ASP147      0.2293
    121  O          5.4580   53.4900  -34.7870 O.2   147  ASP147     -0.2864
    122  CB         6.5320   52.7130  -37.7980 C.3   147  ASP147      0.1436
    123  CG         5.6530   51.6640  -38.4630 C.2   147  ASP147      0.3671
    124  OD1        5.2450   51.8700  -39.6350 O.co2 147  ASP147     -0.2456
    125  OD2        5.3600   50.6340  -37.8120 O.co2 147  ASP147     -0.2456
@<TRIPOS>BOND
     1     1     2    1
     2    58    59   ar
     3    58    56   ar
     4    59    57   ar
     5    16    15    2
     6     8     6    1
     7    56    54   ar
     8     6     7    1
     9     6     5    1
    10    15    14    1
    11     2     5    1
    12     2     3    1
    13    57    55   ar
    14    54    55   ar
    15    54    53    1
    16    20    21    1
    17     9     3   am
    18     9    10    1
    19    21    22    1
    20    21    24    1
    21     3     4    2
    22    14    13    1
    23    14    17    1
    24    53    50    1
    25    22    23    2
    26    12    11    2
    27    11    10    1
    28    18    17    1
    29    17    19    1
    30    50    51    1
    31    50    49    1
    32    52    51    2
    33    83    82    1
    34    83    84    1
    35    35    34    2
    36    51    60   am
    37    49    42   am
    38    62    63    2
    39    62    61    1
    40    82    79    1
    41    86    84   ar
    42    60    61    1
    43    32    33    1
    44    84    85   ar
    45    42    41    1
    46    42    43    2
    47    34    33    1
    48    34    40   am
    49    68    69    1
    50    61    64    1
    51    69    70    1
    52    41    40    1
    53    41    44    1
    54    81    80    2
    55    79    80    1
    56    79    78    1
    57    33    36    1
    58    44    45    1
    59    39    38    1
    60    36    37    1
    61    64    65    1
    62    70    72   am
    63    70    71    2
    64    72    73    1
    65    37    38    1
    66    45    46    1
    67    66    65    1
    68    65    67    1
    69    77    76    1
    70    75    74    2
    71   113   111    1
    72    47    46   ar
    73    73    76    1
    74    73    74    1
    75    46    48   ar
    76   112   111    1
    77   124   123   ar
    78   111   110    1
    79    31    29    1
    80    90    89    2
    81    91    88    1
    82    91    92    1
    83   117   116    2
    84   110   107    1
    85   123   125   ar
    86   123   122    1
    87    93    92    1
    88    93    94    1
    89    88    89    1
    90    88    87    1
    91   107   108    1
    92   107   106    1
    93    89    98   am
    94   122   119    1
    95    29    30    1
    96    29    26    1
    97   104   103    2
    98    94    95    2
    99   108   109    2
   100   116   115    1
   101   116   118   am
   102   119   118    1
   103   119   120    1
   104   115   114    1
   105    27    26    1
   106    27    28    2
   107    98    99    1
   108    26    25    1
   109    99   100    1
   110    99   102    1
   111    95    97    1
   112    95    96    1
   113   103   105   am
   114   103   102    1
   115   100   101    2
   116   120   121    2
