@<TRIPOS>MOLECULE
tmp/4ei4B00.pdb
 125 116 0 0 0
SMALL
GASTEIGER

@<TRIPOS>ATOM
      1  N         14.2230    6.8690   -6.0130 N.3    17  LEU17      -0.1231
      2  CA        13.4890    6.3370   -4.8510 C.3    17  LEU17       0.1693
      3  C         13.0890    7.4580   -3.8810 C.2    17  LEU17       0.2592
      4  O         12.0110    7.4220   -3.2850 O.2    17  LEU17      -0.2718
      5  CB        14.3240    5.2580   -4.1430 C.3    17  LEU17       0.0284
      6  CG        14.5160    3.9380   -4.8990 C.3    17  LEU17       0.0019
      7  CD1       15.4000    2.9770   -4.1000 C.3    17  LEU17       0.0001
      8  CD2       13.1640    3.2950   -5.2470 C.3    17  LEU17       0.0001
      9  N         13.9640    8.4500   -3.7350 N.am   18  GLY18      -0.1957
     10  CA        13.6700    9.6420   -2.9660 C.3    18  GLY18       0.1869
     11  C         14.8190   10.6290   -3.0580 C.2    18  GLY18       0.2309
     12  O         15.9080   10.2680   -3.4760 O.2    18  GLY18      -0.2863
     13  N         18.4120    9.1710   -3.5330 N.3    25  VAL25      -0.1245
     14  CA        18.5610    7.7220   -3.5730 C.3    25  VAL25       0.1561
     15  C         17.8800    7.2100   -4.8390 C.2    25  VAL25       0.2260
     16  O         16.7330    7.5790   -5.1170 O.2    25  VAL25      -0.2867
     17  CB        17.9620    7.0510   -2.3610 C.3    25  VAL25       0.0252
     18  CG1       18.1320    5.5130   -2.4390 C.3    25  VAL25       0.0019
     19  CG2       18.6070    7.5850   -1.0960 C.3    25  VAL25       0.0019
     20  N         19.9830   -0.0150   -3.7540 N.3    42  ALA42      -0.1245
     21  CA        19.6280    1.3840   -3.5410 C.3    42  ALA42       0.1562
     22  C         20.9400    2.1540   -3.4640 C.2    42  ALA42       0.2260
     23  O         21.8340    1.7810   -2.7240 O.2    42  ALA42      -0.2867
     24  CB        18.8550    1.5520   -2.2770 C.3    42  ALA42       0.0290
     25  N         18.4800   -0.9180    7.8000 N.3    70  VAL70      -0.1245
     26  CA        18.7930   -1.2430    6.3940 C.3    70  VAL70       0.1561
     27  C         20.2710   -1.6250    6.2240 C.2    70  VAL70       0.2260
     28  O         21.1450   -1.0400    6.8630 O.2    70  VAL70      -0.2867
     29  CB        18.4330   -0.0870    5.4220 C.3    70  VAL70       0.0252
     30  CG1       19.3350    1.1320    5.6660 C.3    70  VAL70       0.0019
     31  CG2       18.5260   -0.5460    3.9860 C.3    70  VAL70       0.0019
     32  N         23.1730    0.3780   -0.7790 N.3    84  MET84      -0.1230
     33  CA        22.3950   -0.3180    0.2340 C.3    84  MET84       0.1702
     34  C         21.4890   -1.3350   -0.4240 C.2    84  MET84       0.2592
     35  O         21.2780   -1.3170   -1.6280 O.2    84  MET84      -0.2718
     36  CB        21.5170    0.6550    1.0250 C.3    84  MET84       0.0401
     37  CG        22.2520    1.8070    1.7190 C.3    84  MET84       0.0596
     38  SD        21.1030    3.1310    2.2400 S.3    84  MET84      -0.1393
     39  CE        20.9450    4.0690    0.6850 C.3    84  MET84       0.0692
     40  N         20.9430   -2.2270    0.3840 N.am   85  GLU85      -0.1966
     41  CA        19.9190   -3.1290   -0.0860 C.3    85  GLU85       0.1733
     42  C         18.6730   -2.3480   -0.5080 C.2    85  GLU85       0.2616
     43  O         18.3310   -1.3370    0.1040 O.2    85  GLU85      -0.2715
     44  CB        19.5790   -4.1550    0.9830 C.3    85  GLU85       0.0429
     45  CG        19.0220   -3.5960    2.2550 C.3    85  GLU85       0.1163
     46  CD        18.5060   -4.6810    3.1970 C.2    85  GLU85       0.3649
     47  OE1       18.2640   -5.8300    2.7450 O.co2  85  GLU85      -0.2457
     48  OE2       18.3540   -4.3800    4.3960 O.co2  85  GLU85      -0.2457
     49  N         18.0510   -2.7900   -1.5970 N.am   86  PHE86      -0.1960
     50  CA        16.7760   -2.2730   -2.0720 C.3    86  PHE86       0.1771
     51  C         15.6300   -3.0550   -1.4410 C.2    86  PHE86       0.2619
     52  O         15.6430   -4.2700   -1.4650 O.2    86  PHE86      -0.2715
     53  CB        16.7130   -2.4150   -3.5970 C.3    86  PHE86       0.0574
     54  CG        15.3840   -2.0680   -4.1950 C.ar   86  PHE86      -0.0200
     55  CD1       14.8030   -0.8230   -3.9630 C.ar   86  PHE86      -0.0042
     56  CD2       14.7250   -2.9700   -5.0320 C.ar   86  PHE86      -0.0042
     57  CE1       13.5570   -0.5010   -4.5200 C.ar   86  PHE86      -0.0003
     58  CE2       13.4960   -2.6500   -5.6030 C.ar   86  PHE86      -0.0003
     59  CZ        12.9180   -1.4050   -5.3550 C.ar   86  PHE86      -0.0000
     60  N         14.6590   -2.3570   -0.8510 N.am   87  LEU87      -0.1977
     61  CA        13.4500   -3.0000   -0.3280 C.3    87  LEU87       0.1596
     62  C         12.2510   -2.6680   -1.2280 C.2    87  LEU87       0.2287
     63  O         11.6810   -1.5730   -1.1110 O.2    87  LEU87      -0.2864
     64  CB        13.1970   -2.5870    1.1280 C.3    87  LEU87       0.0297
     65  CG        13.9930   -3.4090    2.1400 C.3    87  LEU87       0.0022
     66  CD1       15.4930   -3.2780    1.8660 C.3    87  LEU87       0.0001
     67  CD2       13.6920   -3.0130    3.5790 C.3    87  LEU87       0.0001
     68  N          9.1620   -0.5290   -0.4440 N.3    90  GLY90      -0.1210
     69  CA         9.3360    0.9010   -0.2680 C.3    90  GLY90       0.1956
     70  C          9.2210    1.3150    1.1800 C.2    90  GLY90       0.2612
     71  O          9.4480    0.5290    2.0920 O.2    90  GLY90      -0.2717
     72  N          8.8810    2.5720    1.4040 N.am   91  SER91      -0.1952
     73  CA         8.6980    3.0480    2.7720 C.3    91  SER91       0.1924
     74  C          7.2570    2.8720    3.2220 C.2    91  SER91       0.2314
     75  O          6.3920    2.4710    2.4590 O.2    91  SER91      -0.2863
     76  CB         9.1300    4.5160    2.9060 C.3    91  SER91       0.2116
     77  OG         8.1390    5.3920    2.4330 O.3    91  SER91      -0.2180
     78  N          4.6700    4.7550    1.1370 N.3    94  GLU94      -0.1245
     79  CA         4.1880    4.0780   -0.0680 C.3    94  GLU94       0.1567
     80  C          3.3570    2.8300    0.2320 C.2    94  GLU94       0.2260
     81  O          2.3880    2.5280   -0.4580 O.2    94  GLU94      -0.2867
     82  CB         5.3670    3.6320   -0.9420 C.3    94  GLU94       0.0388
     83  CG         6.0720    4.7680   -1.6460 C.3    94  GLU94       0.1160
     84  CD         7.0640    5.4940   -0.7760 C.2    94  GLU94       0.3649
     85  OE1        7.7800    4.8160   -0.0140 O.co2  94  GLU94      -0.2457
     86  OE2        7.1330    6.7460   -0.8690 O.co2  94  GLU94      -0.2457
     87  N          8.4590    8.0860    6.1720 N.3   135  ARG135     -0.1231
     88  CA         9.1400    7.9900    4.8850 C.3   135  ARG135      0.1694
     89  C         10.5410    7.4010    4.9830 C.2   135  ARG135      0.2592
     90  O         11.1360    7.0410    3.9590 O.2   135  ARG135     -0.2718
     91  CB         9.2080    9.3640    4.2040 C.3   135  ARG135      0.0321
     92  CG        10.2240   10.2980    4.8030 C.3   135  ARG135      0.0489
     93  CD        10.0710   11.7280    4.2970 C.3   135  ARG135      0.2205
     94  NE        10.4620   12.6640    5.3480 N.pl3 135  ARG135     -0.0865
     95  CZ        11.7180   12.9490    5.6930 C.cat 135  ARG135      0.5346
     96  NH1       12.7500   12.3930    5.0640 N.pl3 135  ARG135      0.1354
     97  NH2       11.9450   13.8070    6.6770 N.pl3 135  ARG135      0.1354
     98  N         11.0870    7.3370    6.1930 N.am  136  ASN136     -0.1974
     99  CA        12.4060    6.7370    6.4180 C.3   136  ASN136      0.1688
    100  C         12.3530    5.3310    7.0190 C.2   136  ASN136      0.2292
    101  O         13.3790    4.7780    7.4030 O.2   136  ASN136     -0.2864
    102  CB        13.2610    7.6540    7.2830 C.3   136  ASN136      0.1181
    103  CG        13.6980    8.8990    6.5340 C.2   136  ASN136      0.2629
    104  OD1       13.8320    8.8800    5.3080 O.2   136  ASN136     -0.2716
    105  ND2       13.9130    9.9830    7.2600 N.am  136  ASN136     -0.0877
    106  N         11.4310    1.5950    6.1490 N.3   138  LEU138     -0.1245
    107  CA        11.3150    0.7560    4.9690 C.3   138  LEU138      0.1561
    108  C         10.6110   -0.5360    5.3180 C.2   138  LEU138      0.2260
    109  O         10.7800   -1.0480    6.4200 O.2   138  LEU138     -0.2867
    110  CB        12.7070    0.4280    4.3960 C.3   138  LEU138      0.0270
    111  CG        13.5270    1.5460    3.7630 C.3   138  LEU138      0.0019
    112  CD1       14.9280    0.9830    3.3400 C.3   138  LEU138      0.0001
    113  CD2       12.7900    2.1390    2.5810 C.3   138  LEU138      0.0001
    114  N         15.6680    3.2190    7.2630 N.3   148  GLY148     -0.1210
    115  CA        16.3090    3.1990    5.9360 C.3   148  GLY148      0.1956
    116  C         17.0470    4.4410    5.4420 C.2   148  GLY148      0.2611
    117  O         17.3180    4.5650    4.2410 O.2   148  GLY148     -0.2717
    118  N         17.3630    5.3650    6.3430 N.am  149  ASP149     -0.1973
    119  CA        18.1530    6.5440    5.9760 C.3   149  ASP149      0.1709
    120  C         18.7670    7.1420    7.2110 C.2   149  ASP149      0.2293
    121  O         18.1430    7.1840    8.2660 O.2   149  ASP149     -0.2864
    122  CB        17.3300    7.6030    5.2540 C.3   149  ASP149      0.1436
    123  CG        18.2040    8.7080    4.6520 C.2   149  ASP149      0.3671
    124  OD1       18.7880    8.4920    3.5630 O.co2 149  ASP149     -0.2456
    125  OD2       18.3340    9.7830    5.2760 O.co2 149  ASP149     -0.2456
@<TRIPOS>BOND
     1     1     2    1
     2    58    59   ar
     3    58    56   ar
     4    59    57   ar
     5     8     6    1
     6    16    15    2
     7    56    54   ar
     8     6     5    1
     9     6     7    1
    10     2     5    1
    11     2     3    1
    12    15    14    1
    13    57    55   ar
    14    54    55   ar
    15    54    53    1
    16     3     9   am
    17     3     4    2
    18    20    21    1
    19     9    10    1
    20    53    50    1
    21    14    13    1
    22    14    17    1
    23    21    22    1
    24    21    24    1
    25    12    11    2
    26    22    23    2
    27    11    10    1
    28    18    17    1
    29    17    19    1
    30    50    49    1
    31    50    51    1
    32    83    82    1
    33    83    84    1
    34    35    34    2
    35    49    42   am
    36    52    51    2
    37    51    60   am
    38    62    63    2
    39    62    61    1
    40    82    79    1
    41    86    84   ar
    42    60    61    1
    43    32    33    1
    44    84    85   ar
    45    42    41    1
    46    42    43    2
    47    81    80    2
    48    68    69    1
    49    34    33    1
    50    34    40   am
    51    61    64    1
    52    69    70    1
    53    41    40    1
    54    41    44    1
    55    79    80    1
    56    79    78    1
    57    33    36    1
    58    39    38    1
    59    44    45    1
    60    36    37    1
    61    64    65    1
    62    70    72   am
    63    70    71    2
    64    72    73    1
    65    37    38    1
    66    66    65    1
    67    65    67    1
    68    45    46    1
    69    77    76    1
    70    75    74    2
    71   113   111    1
    72    47    46   ar
    73    73    76    1
    74    73    74    1
    75    46    48   ar
    76   112   111    1
    77   124   123   ar
    78   111   110    1
    79    90    89    2
    80    31    29    1
    81    91    92    1
    82    91    88    1
    83   117   116    2
    84    93    92    1
    85    93    94    1
    86   110   107    1
    87   123   122    1
    88   123   125   ar
    89    88    89    1
    90    88    87    1
    91   107   108    1
    92   107   106    1
    93    89    98   am
    94    96    95    1
    95   122   119    1
    96   104   103    2
    97   108   109    2
    98    94    95    2
    99    29    30    1
   100    29    26    1
   101   116   115    1
   102   116   118   am
   103    95    97    1
   104   115   114    1
   105   119   118    1
   106   119   120    1
   107    98    99    1
   108    27    26    1
   109    27    28    2
   110    26    25    1
   111    99   100    1
   112    99   102    1
   113   103   105   am
   114   103   102    1
   115   100   101    2
   116   120   121    2
