@<TRIPOS>MOLECULE
tmp/4ei5E02.pdb
 186 176 0 0 0
SMALL
GASTEIGER

@<TRIPOS>ATOM
      1  N         13.2860  -21.4660  -53.4780 N.3    63  MET63      -0.1230
      2  CA        13.6510  -20.5230  -54.5310 C.3    63  MET63       0.1702
      3  C         13.1350  -20.9680  -55.9200 C.2    63  MET63       0.2592
      4  O         12.7540  -20.1070  -56.7190 O.2    63  MET63      -0.2718
      5  CB        15.1540  -20.1540  -54.4900 C.3    63  MET63       0.0401
      6  CG        16.0440  -20.9820  -55.3840 C.3    63  MET63       0.0596
      7  SD        16.1650  -20.2900  -57.0430 S.3    63  MET63      -0.1393
      8  CE        16.5730  -21.7160  -57.9210 C.3    63  MET63       0.0692
      9  N         13.0940  -22.3010  -56.1890 N.am   64  PHE64      -0.1976
     10  CA        12.5900  -22.8480  -57.4510 C.3    64  PHE64       0.1639
     11  C         11.1100  -22.5990  -57.5840 C.2    64  PHE64       0.2290
     12  O         10.6500  -22.2480  -58.6700 O.2    64  PHE64      -0.2864
     13  CB        12.9080  -24.3390  -57.6080 C.3    64  PHE64       0.0560
     14  CG        14.2220  -24.5860  -58.3150 C.ar   64  PHE64      -0.0200
     15  CD1       15.2540  -25.2690  -57.6800 C.ar   64  PHE64      -0.0042
     16  CD2       14.4360  -24.1160  -59.6120 C.ar   64  PHE64      -0.0042
     17  CE1       16.4740  -25.4830  -58.3300 C.ar   64  PHE64      -0.0003
     18  CE2       15.6600  -24.3280  -60.2590 C.ar   64  PHE64      -0.0003
     19  CZ        16.6660  -25.0160  -59.6170 C.ar   64  PHE64      -0.0000
     20  N          9.4700  -20.0510  -56.0860 N.3    66  VAL66      -0.1231
     21  CA         9.3810  -18.5940  -56.2930 C.3    66  VAL66       0.1692
     22  C          9.6310  -18.3190  -57.7640 C.2    66  VAL66       0.2592
     23  O          8.8830  -17.5580  -58.3750 O.2    66  VAL66      -0.2718
     24  CB        10.3760  -17.7930  -55.4080 C.3    66  VAL66       0.0266
     25  CG1       10.3420  -16.3070  -55.7390 C.3    66  VAL66       0.0020
     26  CG2       10.1010  -18.0060  -53.9250 C.3    66  VAL66       0.0020
     27  N         10.6750  -18.9640  -58.3260 N.am   67  TYR67      -0.1976
     28  CA        11.0580  -18.8460  -59.7230 C.3    67  TYR67       0.1639
     29  C          9.9090  -19.1830  -60.6670 C.2    67  TYR67       0.2290
     30  O          9.5810  -18.3500  -61.5060 O.2    67  TYR67      -0.2864
     31  CB        12.3040  -19.7000  -60.0400 C.3    67  TYR67       0.0560
     32  CG        12.3960  -20.1340  -61.4860 C.ar   67  TYR67      -0.0198
     33  CD1       12.6050  -19.2060  -62.5050 C.ar   67  TYR67      -0.0009
     34  CD2       12.2450  -21.4670  -61.8390 C.ar   67  TYR67      -0.0009
     35  CE1       12.6530  -19.5970  -63.8400 C.ar   67  TYR67       0.0417
     36  CE2       12.3110  -21.8730  -63.1690 C.ar   67  TYR67       0.0417
     37  CZ        12.5080  -20.9330  -64.1680 C.ar   67  TYR67       0.1957
     38  OH        12.5820  -21.3420  -65.4760 O.3    67  TYR67      -0.2866
     39  N          7.1510  -16.4670  -60.6130 N.3    70  SER70      -0.1202
     40  CA         7.7120  -15.2450  -61.1750 C.3    70  SER70       0.2020
     41  C          7.9420  -15.3670  -62.6710 C.2    70  SER70       0.2618
     42  O          7.6080  -14.4370  -63.3930 O.2    70  SER70      -0.2717
     43  CB         9.0050  -14.8770  -60.4570 C.3    70  SER70       0.2103
     44  OG         8.8620  -14.9730  -59.0490 O.3    70  SER70      -0.2182
     45  N          8.4530  -16.5230  -63.1400 N.am   71  PHE71      -0.1975
     46  CA         8.7160  -16.8010  -64.5560 C.3    71  PHE71       0.1639
     47  C          7.4480  -16.7350  -65.4030 C.2    71  PHE71       0.2290
     48  O          7.5040  -16.2980  -66.5540 O.2    71  PHE71      -0.2864
     49  CB         9.4030  -18.1630  -64.7290 C.3    71  PHE71       0.0560
     50  CG         9.6640  -18.5510  -66.1620 C.ar   71  PHE71      -0.0200
     51  CD1        8.8340  -19.4550  -66.8160 C.ar   71  PHE71      -0.0042
     52  CD2       10.7240  -17.9910  -66.8680 C.ar   71  PHE71      -0.0042
     53  CE1        9.0680  -19.8040  -68.1470 C.ar   71  PHE71      -0.0003
     54  CE2       10.9580  -18.3370  -68.2000 C.ar   71  PHE71      -0.0003
     55  CZ        10.1340  -19.2480  -68.8280 C.ar   71  PHE71      -0.0000
     56  N          6.4150  -12.9730  -65.4350 N.3    74  ASP74      -0.1225
     57  CA         7.3800  -12.2930  -66.2830 C.3    74  ASP74       0.1805
     58  C          7.1340  -12.4960  -67.7700 C.2    74  ASP74       0.2597
     59  O          7.0610  -11.5010  -68.4940 O.2    74  ASP74      -0.2718
     60  CB         8.8290  -12.6010  -65.8560 C.3    74  ASP74       0.1424
     61  CG         9.2650  -11.9050  -64.5690 C.2    74  ASP74       0.3668
     62  OD1        8.3770  -11.4450  -63.8030 O.co2  74  ASP74      -0.2456
     63  OD2       10.4950  -11.8190  -64.3250 O.co2  74  ASP74      -0.2456
     64  N          6.9310  -13.7520  -68.2190 N.am   75  ILE75      -0.1980
     65  CA         6.6590  -14.0280  -69.6310 C.3    75  ILE75       0.1595
     66  C          5.3310  -13.4100  -70.0820 C.2    75  ILE75       0.2287
     67  O          5.3230  -12.6620  -71.0620 O.2    75  ILE75      -0.2864
     68  CB         6.7950  -15.5260  -70.0050 C.3    75  ILE75       0.0276
     69  CG1        8.2180  -16.0790  -69.7180 C.3    75  ILE75       0.0022
     70  CG2        6.3490  -15.7930  -71.4520 C.3    75  ILE75       0.0022
     71  CD1        9.3980  -15.5200  -70.5430 C.3    75  ILE75       0.0001
     72  N          8.0110  -21.9310  -74.8290 N.3    92  ILE92      -0.1245
     73  CA         9.3310  -21.6290  -74.2680 C.3    92  ILE92       0.1561
     74  C          9.9200  -22.8770  -73.6220 C.2    92  ILE92       0.2260
     75  O          9.2840  -23.4980  -72.7720 O.2    92  ILE92      -0.2867
     76  CB         9.3480  -20.3540  -73.3590 C.3    92  ILE92       0.0252
     77  CG1        9.1640  -19.0850  -74.2170 C.3    92  ILE92       0.0019
     78  CG2       10.6420  -20.2470  -72.5310 C.3    92  ILE92       0.0019
     79  CD1        8.6650  -17.8760  -73.4880 C.3    92  ILE92       0.0001
     80  N         13.5530  -24.4290  -71.8070 N.3    94  LEU94      -0.1245
     81  CA        14.7840  -24.0590  -71.1190 C.3    94  LEU94       0.1561
     82  C         15.6070  -25.3210  -70.8340 C.2    94  LEU94       0.2260
     83  O         15.0650  -26.2950  -70.3040 O.2    94  LEU94      -0.2867
     84  CB        14.4090  -23.3400  -69.8210 C.3    94  LEU94       0.0270
     85  CG        15.4530  -22.4280  -69.2080 C.3    94  LEU94       0.0019
     86  CD1       14.8160  -21.1400  -68.7120 C.3    94  LEU94       0.0001
     87  CD2       16.1900  -23.1250  -68.0800 C.3    94  LEU94       0.0001
     88  N         18.9890  -26.3130  -68.8770 N.3    96  ALA96      -0.1245
     89  CA        20.0470  -25.8950  -67.9600 C.3    96  ALA96       0.1562
     90  C         20.6860  -27.0560  -67.2350 C.2    96  ALA96       0.2260
     91  O         20.0130  -28.0310  -66.9280 O.2    96  ALA96      -0.2867
     92  CB        19.5000  -24.8950  -66.9570 C.3    96  ALA96       0.0290
     93  N         23.0040  -22.7810  -69.8040 N.3   110  LEU110     -0.1245
     94  CA        21.5940  -22.4260  -69.6750 C.3   110  LEU110      0.1561
     95  C         21.1710  -21.9370  -71.0430 C.2   110  LEU110      0.2260
     96  O         21.5790  -20.8520  -71.4580 O.2   110  LEU110     -0.2867
     97  CB        21.3420  -21.3510  -68.6040 C.3   110  LEU110      0.0270
     98  CG        19.9040  -21.2680  -68.0570 C.3   110  LEU110      0.0019
     99  CD1       19.8790  -20.5480  -66.7440 C.3   110  LEU110      0.0001
    100  CD2       18.9330  -20.5930  -69.0360 C.3   110  LEU110      0.0001
    101  N         17.9590  -21.2980  -73.9080 N.3   112  VAL112     -0.1245
    102  CA        16.5250  -21.0370  -74.0590 C.3   112  VAL112      0.1561
    103  C         16.1210  -21.0170  -75.5390 C.2   112  VAL112      0.2260
    104  O         16.7870  -20.3750  -76.3590 O.2   112  VAL112     -0.2867
    105  CB        16.0470  -19.7520  -73.3160 C.3   112  VAL112      0.0252
    106  CG1       14.5180  -19.6590  -73.2950 C.3   112  VAL112      0.0019
    107  CG2       16.6100  -19.6710  -71.8920 C.3   112  VAL112      0.0019
    108  N         18.1430  -17.5320  -76.7350 N.3   120  VAL120     -0.1245
    109  CA        18.8610  -16.9190  -75.6130 C.3   120  VAL120      0.1561
    110  C         19.7380  -17.9140  -74.8440 C.2   120  VAL120      0.2260
    111  O         19.4440  -19.1170  -74.8030 O.2   120  VAL120     -0.2867
    112  CB        17.8580  -16.1500  -74.6950 C.3   120  VAL120      0.0252
    113  CG1       18.4580  -15.7790  -73.3320 C.3   120  VAL120      0.0019
    114  CG2       17.3190  -14.9100  -75.3990 C.3   120  VAL120      0.0019
    115  N         22.4200  -12.4530  -69.4920 N.3   127  TRP127     -0.1241
    116  CA        21.5740  -13.1210  -70.4780 C.3   127  TRP127      0.1605
    117  C         21.9610  -12.5060  -71.8110 C.2   127  TRP127      0.2264
    118  O         22.0990  -11.2760  -71.9010 O.2   127  TRP127     -0.2867
    119  CB        20.0950  -12.7770  -70.2530 C.3   127  TRP127      0.0550
    120  CG        19.5100  -13.2860  -68.9840 C.ar  127  TRP127      0.0003
    121  CD1       19.2210  -12.5620  -67.8660 C.ar  127  TRP127      0.0946
    122  CD2       19.0790  -14.6320  -68.7220 C.ar  127  TRP127      0.0152
    123  NE1       18.6560  -13.3750  -66.9150 N.ar  127  TRP127     -0.2442
    124  CE2       18.5630  -14.6550  -67.4110 C.ar  127  TRP127      0.0810
    125  CE3       19.0820  -15.8270  -69.4730 C.ar  127  TRP127      0.0012
    126  CZ2       18.0460  -15.8220  -66.8340 C.ar  127  TRP127      0.0191
    127  CZ3       18.5770  -16.9800  -68.8970 C.ar  127  TRP127      0.0001
    128  CH2       18.0670  -16.9720  -67.5940 C.ar  127  TRP127      0.0015
    129  N         15.8340   -7.7780  -68.5510 N.3   144  LEU144     -0.1245
    130  CA        16.1670   -8.9640  -67.7580 C.3   144  LEU144      0.1561
    131  C         17.4720   -8.7950  -67.0120 C.2   144  LEU144      0.2260
    132  O         17.5720   -9.2130  -65.8640 O.2   144  LEU144     -0.2867
    133  CB        16.2700  -10.2120  -68.6390 C.3   144  LEU144      0.0270
    134  CG        15.0850  -11.1390  -68.5870 C.3   144  LEU144      0.0019
    135  CD1       14.9860  -11.9610  -69.8590 C.3   144  LEU144      0.0001
    136  CD2       15.1290  -12.0100  -67.3470 C.3   144  LEU144      0.0001
    137  N         17.7140   -7.0040  -63.4590 N.3   147  ASP147     -0.1225
    138  CA        17.4470   -7.7910  -62.2540 C.3   147  ASP147      0.1805
    139  C         18.7680   -8.3150  -61.7330 C.2   147  ASP147      0.2598
    140  O         19.3060   -9.2960  -62.2730 O.2   147  ASP147     -0.2718
    141  CB        16.5330   -8.9990  -62.5430 C.3   147  ASP147      0.1424
    142  CG        15.1300   -8.7300  -63.0420 C.2   147  ASP147      0.3668
    143  OD1       14.3190   -9.7060  -63.0930 O.co2 147  ASP147     -0.2456
    144  OD2       14.8420   -7.5540  -63.4210 O.co2 147  ASP147     -0.2456
    145  N         19.3040   -7.6470  -60.7000 N.am  148  GLN148     -0.1965
    146  CA        20.5570   -8.0320  -60.0650 C.3   148  GLN148      0.1733
    147  C         20.4240   -9.3520  -59.2940 C.2   148  GLN148      0.2617
    148  O         21.3320  -10.1730  -59.3410 O.2   148  GLN148     -0.2715
    149  CB        21.0710   -6.9050  -59.1720 C.3   148  GLN148      0.0408
    150  CG        21.6790   -5.7440  -59.9600 C.3   148  GLN148      0.0908
    151  CD        22.2960   -4.6860  -59.0680 C.2   148  GLN148      0.2608
    152  OE1       23.1590   -4.9500  -58.2120 O.2   148  GLN148     -0.2717
    153  NE2       21.9010   -3.4480  -59.2940 N.am  148  GLN148     -0.0878
    154  N         19.2850   -9.5600  -58.6450 N.am  149  GLY149     -0.1940
    155  CA        18.9920  -10.7700  -57.8840 C.3   149  GLY149      0.2014
    156  C         18.8600  -12.0230  -58.7300 C.2   149  GLY149      0.2639
    157  O         19.1730  -13.1230  -58.2660 O.2   149  GLY149     -0.2714
    158  N         18.3850  -11.8600  -59.9730 N.am  150  THR150     -0.1950
    159  CA        18.2400  -12.9600  -60.9230 C.3   150  THR150      0.1897
    160  C         19.6340  -13.3620  -61.4420 C.2   150  THR150      0.2313
    161  O         19.9690  -14.5520  -61.4050 O.2   150  THR150     -0.2863
    162  CB        17.2700  -12.5790  -62.0550 C.3   150  THR150      0.1794
    163  OG1       16.0170  -12.1580  -61.5080 O.3   150  THR150     -0.2208
    164  CG2       17.0600  -13.7110  -63.0540 C.3   150  THR150      0.0378
    165  N         21.5480  -15.1420  -58.6190 N.3   153  THR153     -0.1203
    166  CA        21.0200  -16.4860  -58.3860 C.3   153  THR153      0.1994
    167  C         21.4400  -17.4420  -59.4970 C.2   153  THR153      0.2617
    168  O         21.9580  -18.5210  -59.1990 O.2   153  THR153     -0.2717
    169  CB        19.4990  -16.4540  -58.1150 C.3   153  THR153      0.1784
    170  OG1       19.2680  -15.7570  -56.8980 O.3   153  THR153     -0.2211
    171  CG2       18.8900  -17.8320  -57.9830 C.3   153  THR153      0.0376
    172  N         21.2640  -17.0320  -60.7700 N.am  154  VAL154     -0.1979
    173  CA        21.6350  -17.8540  -61.9330 C.3   154  VAL154      0.1595
    174  C         23.1380  -18.2040  -61.9070 C.2   154  VAL154      0.2287
    175  O         23.4970  -19.3730  -62.1020 O.2   154  VAL154     -0.2864
    176  CB        21.1380  -17.2630  -63.2810 C.3   154  VAL154      0.0276
    177  CG1       21.5350  -18.1560  -64.4460 C.3   154  VAL154      0.0022
    178  CG2       19.6240  -17.0820  -63.2630 C.3   154  VAL154      0.0022
    179  N         23.6760  -20.8290  -59.1630 N.3   157  LEU157     -0.1245
    180  CA        23.0920  -22.0980  -59.6130 C.3   157  LEU157      0.1561
    181  C         24.0100  -22.7930  -60.5700 C.2   157  LEU157      0.2260
    182  O         24.3820  -23.9400  -60.3390 O.2   157  LEU157     -0.2867
    183  CB        21.7220  -21.8850  -60.2650 C.3   157  LEU157      0.0270
    184  CG        20.5560  -21.6630  -59.3230 C.3   157  LEU157      0.0019
    185  CD1       19.3900  -21.0880  -60.0690 C.3   157  LEU157      0.0001
    186  CD2       20.1780  -22.9440  -58.5820 C.3   157  LEU157      0.0001
@<TRIPOS>BOND
     1   108   109    1
     2   104   103    2
     3   109   110    1
     4   109   112    1
     5   103   102    1
     6   114   112    1
     7   110   111    2
     8    72    73    1
     9   112   113    1
    10    73    74    1
    11    73    76    1
    12    77    79    1
    13    77    76    1
    14   102   101    1
    15   102   105    1
    16    74    75    2
    17    76    78    1
    18   105   106    1
    19   105   107    1
    20   118   117    2
    21   117   116    1
    22    80    81    1
    23    96    95    2
    24    70    68    1
    25    81    82    1
    26    81    84    1
    27    67    66    2
    28    95    94    1
    29    82    83    2
    30    71    69    1
    31   116   119    1
    32   116   115    1
    33   119   120    1
    34    66    65    1
    35    68    69    1
    36    68    65    1
    37   135   134    1
    38    84    85    1
    39    93    94    1
    40    94    97    1
    41    65    64    1
    42   125   127   ar
    43   125   122   ar
    44    85    86    1
    45    85    87    1
    46   100    98    1
    47   120   122   ar
    48   120   121   ar
    49   127   128   ar
    50    88    89    1
    51    55    54   ar
    52    55    53   ar
    53   122   124   ar
    54   133   134    1
    55   133   130    1
    56    97    98    1
    57   134   136    1
    58   129   130    1
    59    59    58    2
    60    64    58   am
    61    54    52   ar
    62    53    51   ar
    63    98    99    1
    64    89    90    1
    65    89    92    1
    66   121   123   ar
    67    58    57    1
    68   130   131    1
    69   128   126   ar
    70   124   123   ar
    71   124   126   ar
    72    90    91    2
    73   131   132    2
    74    52    50   ar
    75    51    50   ar
    76    48    47    2
    77    57    60    1
    78    57    56    1
    79    50    49    1
    80    60    61    1
    81    38    37    1
    82    47    46    1
    83    49    46    1
    84    61    63   ar
    85    61    62   ar
    86    46    45    1
    87   177   176    1
    88    37    35   ar
    89    37    36   ar
    90    35    33   ar
    91   137   138    1
    92   144   142   ar
    93    42    41    2
    94   176   178    1
    95   176   173    1
    96    36    34   ar
    97    45    41   am
    98   143   142   ar
    99   164   162    1
   100   142   141    1
   101    41    40    1
   102   141   138    1
   103    33    32   ar
   104   140   139    2
   105   138   139    1
   106   175   174    2
   107   162   163    1
   108   162   159    1
   109   173   174    1
   110   173   172    1
   111    34    32   ar
   112   139   145   am
   113    30    29    2
   114    32    31    1
   115   160   161    2
   116   160   159    1
   117    40    39    1
   118    40    43    1
   119   159   158    1
   120   172   167   am
   121   145   146    1
   122    29    28    1
   123   181   182    2
   124   181   180    1
   125    43    44    1
   126   183   180    1
   127   183   184    1
   128    18    19   ar
   129    18    16   ar
   130   185   184    1
   131   146   147    1
   132   146   149    1
   133    31    28    1
   134   158   156   am
   135   150   149    1
   136   150   151    1
   137    28    27    1
   138    19    17   ar
   139   180   179    1
   140    16    14   ar
   141   167   168    2
   142   167   166    1
   143   148   147    2
   144   184   186    1
   145   153   151   am
   146   147   154   am
   147   151   152    2
   148   156   157    2
   149   156   155    1
   150    12    11    2
   151   154   155    1
   152   165   166    1
   153   166   169    1
   154    23    22    2
   155    17    15   ar
   156    27    22   am
   157    14    15   ar
   158    14    13    1
   159   169   171    1
   160   169   170    1
   161     8     7    1
   162    22    21    1
   163    13    10    1
   164    11    10    1
   165    10     9    1
   166     7     6    1
   167     4     3    2
   168    21    20    1
   169    21    24    1
   170     9     3   am
   171     3     2    1
   172    25    24    1
   173    24    26    1
   174     6     5    1
   175     2     5    1
   176     2     1    1
