@<TRIPOS>MOLECULE
tmp/4eidA00.pdb
 214 204 0 0 0
SMALL
GASTEIGER

@<TRIPOS>ATOM
      1  N         -3.8370   -5.6740    7.6200 N.3    10  PHE10      -0.1241
      2  CA        -2.5800   -5.4330    6.9390 C.3    10  PHE10       0.1605
      3  C         -2.6770   -5.8420    5.4580 C.2    10  PHE10       0.2264
      4  O         -2.3010   -5.1150    4.5550 O.2    10  PHE10      -0.2867
      5  CB        -1.4250   -6.1670    7.6320 C.3    10  PHE10       0.0534
      6  CG        -0.1020   -5.9060    6.9910 C.ar   10  PHE10      -0.0203
      7  CD1        0.3850   -6.6920    5.9830 C.ar   10  PHE10      -0.0042
      8  CD2        0.6850   -4.8370    7.4360 C.ar   10  PHE10      -0.0042
      9  CE1        1.6170   -6.4430    5.3960 C.ar   10  PHE10      -0.0003
     10  CE2        1.9120   -4.5840    6.8620 C.ar   10  PHE10      -0.0003
     11  CZ         2.3700   -5.3590    5.8610 C.ar   10  PHE10      -0.0000
     12  N         -4.7790   -3.3080    3.5310 N.3    13  ASN13      -0.1225
     13  CA        -4.5510   -1.8690    3.6010 C.3    13  ASN13       0.1785
     14  C         -3.1020   -1.4460    3.5540 C.2    13  ASN13       0.2597
     15  O         -2.8340   -0.2600    3.4780 O.2    13  ASN13      -0.2718
     16  CB        -5.1860   -1.2700    4.8320 C.3    13  ASN13       0.1169
     17  CG        -6.6560   -1.4290    4.8600 C.2    13  ASN13       0.2627
     18  OD1       -7.3670   -0.6610    4.2030 O.2    13  ASN13      -0.2716
     19  ND2       -7.1500   -2.4430    5.5300 N.am   13  ASN13      -0.0877
     20  N         -2.1690   -2.3960    3.6750 N.am   14  CYS14      -0.1970
     21  CA        -0.7860   -2.0330    3.9790 C.3    14  CYS14       0.1712
     22  C          0.2710   -2.7550    3.1710 C.2    14  CYS14       0.2296
     23  O          1.4160   -2.3380    3.1150 O.2    14  CYS14      -0.2864
     24  CB        -0.4490   -2.2560    5.4900 C.3    14  CYS14       0.0983
     25  SG        -1.7060   -1.8040    6.6450 S.3    14  CYS14      -0.0798
     26  N          0.5580   -3.2290   -0.1050 N.3    16  ALA16      -0.1231
     27  CA         1.0580   -2.6390   -1.3440 C.3    16  ALA16       0.1694
     28  C          2.3180   -1.7940   -1.0840 C.2    16  ALA16       0.2592
     29  O          3.2630   -1.7810   -1.8640 O.2    16  ALA16      -0.2718
     30  CB        -0.0180   -1.8260   -2.0750 C.3    16  ALA16       0.0304
     31  N          2.3480   -1.0780    0.0440 N.am   17  CYS17      -0.1956
     32  CA         3.5110   -0.2900    0.4300 C.3    17  CYS17       0.1843
     33  C          4.5100   -0.9810    1.3470 C.2    17  CYS17       0.2625
     34  O          5.6590   -0.5460    1.3860 O.2    17  CYS17      -0.2714
     35  CB         3.0630    0.9930    1.1180 C.3    17  CYS17       0.0997
     36  SG         2.1630    2.0810   -0.0410 S.3    17  CYS17      -0.0797
     37  N          4.0570   -1.9960    2.0610 N.am   18  HIS18      -0.1973
     38  CA         4.8860   -2.6290    3.1140 C.3    18  HIS18       0.1656
     39  C          4.9600   -4.1270    3.0070 C.2    18  HIS18       0.2291
     40  O          5.1300   -4.8520    3.9800 O.2    18  HIS18      -0.2864
     41  CB         4.3950   -2.2560    4.5150 C.3    18  HIS18       0.0771
     42  CG         4.4700   -0.8140    4.8610 C.ar   18  HIS18       0.0820
     43  ND1        5.6740   -0.1940    5.1150 N.ar   18  HIS18      -0.2267
     44  CD2        3.5160    0.0810    5.1870 C.ar   18  HIS18       0.1154
     45  CE1        5.4280    1.0380    5.5120 C.ar   18  HIS18       0.1986
     46  NE2        4.1210    1.2220    5.5970 N.ar   18  HIS18      -0.2212
     47  N          9.4990   -1.3980    3.0950 N.3    23  ASN23      -0.1240
     48  CA         8.8950   -0.1430    2.7550 C.3    23  ASN23       0.1653
     49  C          9.2930    0.2200    1.3540 C.2    23  ASN23       0.2266
     50  O         10.4250    0.6050    1.1200 O.2    23  ASN23      -0.2867
     51  CB         9.2710    0.9060    3.8120 C.3    23  ASN23       0.1155
     52  CG         8.5190    2.2370    3.6350 C.2    23  ASN23       0.2627
     53  OD1        8.1530    2.6150    2.5050 O.2    23  ASN23      -0.2716
     54  ND2        8.2840    2.9270    4.7210 N.am   23  ASN23      -0.0877
     55  N          8.4410    2.6370   -0.5470 N.3    25  VAL25      -0.1231
     56  CA         8.5700    4.0760   -0.8010 C.3    25  VAL25       0.1692
     57  C          9.8070    4.6780   -0.1450 C.2    25  VAL25       0.2591
     58  O         10.5620    5.4490   -0.7690 O.2    25  VAL25      -0.2718
     59  CB         7.3140    4.8560   -0.2900 C.3    25  VAL25       0.0266
     60  CG1        7.5740    6.3540   -0.2550 C.3    25  VAL25       0.0020
     61  CG2        6.0980    4.5720   -1.1510 C.3    25  VAL25       0.0020
     62  N         10.0680    4.3080    1.1080 N.am   26  MET26      -0.1979
     63  CA        11.1780    4.8070    1.8870 C.3    26  MET26       0.1605
     64  C         11.8870    3.6010    2.4890 C.2    26  MET26       0.2287
     65  O         11.5610    3.1680    3.5930 O.2    26  MET26      -0.2864
     66  CB        10.7350    5.7040    2.9890 C.3    26  MET26       0.0413
     67  CG        11.8610    6.4860    3.6220 C.3    26  MET26       0.0598
     68  SD        11.3350    7.7940    4.6990 S.3    26  MET26      -0.1393
     69  CE        10.4050    8.7000    3.6150 C.3    26  MET26       0.0692
     70  N         12.7780    2.8140    6.2310 N.3    29  LYS29      -0.1231
     71  CA        11.7600    2.8970    7.2750 C.3    29  LYS29       0.1693
     72  C         10.8080    1.7000    7.2430 C.2    29  LYS29       0.2593
     73  O          9.6120    1.7740    6.9920 O.2    29  LYS29      -0.2718
     74  CB        11.0450    4.2200    7.2220 C.3    29  LYS29       0.0285
     75  CG        12.0460    5.4210    7.5050 C.3    29  LYS29       0.0035
     76  CD        11.3730    6.6170    8.0200 C.3    29  LYS29       0.0206
     77  CE        12.2650    7.7960    8.0740 C.3    29  LYS29       0.1093
     78  NZ        11.4930    9.0000    8.5600 N.3    29  LYS29      -0.1314
     79  N         11.4050    0.5550    7.4940 N.am   30  THR30      -0.1939
     80  CA        10.6960   -0.7120    7.4450 C.3    30  THR30       0.2028
     81  C          9.9260   -0.9410    8.7430 C.2    30  THR30       0.2642
     82  O          9.9230   -0.1370    9.6780 O.2    30  THR30      -0.2714
     83  CB        11.6170   -1.9170    7.1780 C.3    30  THR30       0.1808
     84  OG1       12.3730   -2.0580    8.3900 O.3    30  THR30      -0.2208
     85  CG2       12.5350   -1.6640    6.0080 C.3    30  THR30       0.0379
     86  N          9.2100   -2.0580    8.7610 N.am   31  LEU31      -0.1977
     87  CA         8.4240   -2.4640    9.8780 C.3    31  LEU31       0.1596
     88  C          9.1750   -3.4900   10.7550 C.2    31  LEU31       0.2287
     89  O          8.5510   -4.1290   11.5670 O.2    31  LEU31      -0.2864
     90  CB         7.0530   -3.0330    9.4110 C.3    31  LEU31       0.0297
     91  CG         6.3220   -2.0970    8.4180 C.3    31  LEU31       0.0022
     92  CD1        4.9140   -2.6330    8.1600 C.3    31  LEU31       0.0001
     93  CD2        6.2410   -0.6330    8.9170 C.3    31  LEU31       0.0001
     94  N         14.4220   -1.0080   12.7130 N.3    35  ALA35      -0.1231
     95  CA        14.0410    0.2080   12.0190 C.3    35  ALA35       0.1694
     96  C         12.9700    0.9590   12.7890 C.2    35  ALA35       0.2591
     97  O         13.0530    2.1780   12.9210 O.2    35  ALA35      -0.2718
     98  CB        13.5320   -0.1660   10.6050 C.3    35  ALA35       0.0304
     99  N         11.9840    0.2790   13.3520 N.am   36  LEU36      -0.1980
    100  CA        10.9210    0.9350   14.0580 C.3    36  LEU36       0.1596
    101  C         11.5080    1.7100   15.2420 C.2    36  LEU36       0.2287
    102  O         11.1290    2.8490   15.5020 O.2    36  LEU36      -0.2864
    103  CB         9.9030   -0.0520   14.5350 C.3    36  LEU36       0.0297
    104  CG         9.0360   -0.6680   13.4230 C.3    36  LEU36       0.0022
    105  CD1        8.3560   -1.8910   13.9270 C.3    36  LEU36       0.0001
    106  CD2        8.0380    0.3550   12.9100 C.3    36  LEU36       0.0001
    107  N         13.2650    4.9180   13.8890 N.3    39  TYR39      -0.1227
    108  CA        12.5440    5.9070   13.0500 C.3    39  TYR39       0.1736
    109  C         11.1140    6.2460   13.4490 C.2    39  TYR39       0.2595
    110  O         10.6440    7.3140   13.0520 O.2    39  TYR39      -0.2718
    111  CB        12.5600    5.4690   11.5930 C.3    39  TYR39       0.0548
    112  CG        13.9170    5.3330   11.0070 C.ar   39  TYR39      -0.0200
    113  CD1       14.7410    6.4420   10.8170 C.ar   39  TYR39      -0.0009
    114  CD2       14.3660    4.1290   10.5650 C.ar   39  TYR39      -0.0009
    115  CE1       15.9940    6.3120   10.2680 C.ar   39  TYR39       0.0417
    116  CE2       15.6120    3.9660    9.9920 C.ar   39  TYR39       0.0417
    117  CZ        16.4390    5.0850    9.8520 C.ar   39  TYR39       0.1957
    118  OH        17.6710    4.9730    9.2880 O.3    39  TYR39      -0.2866
    119  N         10.3930    5.3690   14.1210 N.am   40  LEU40      -0.1980
    120  CA         8.9660    5.6240   14.3390 C.3    40  LEU40       0.1596
    121  C          8.7530    6.5990   15.4600 C.2    40  LEU40       0.2287
    122  O          9.1410    6.3290   16.5990 O.2    40  LEU40      -0.2864
    123  CB         8.2580    4.3240   14.5920 C.3    40  LEU40       0.0297
    124  CG         6.7900    4.4300   14.9460 C.3    40  LEU40       0.0022
    125  CD1        5.9420    5.1090   13.8350 C.3    40  LEU40       0.0001
    126  CD2        6.1860    3.0520   15.2470 C.3    40  LEU40       0.0001
    127  N          2.3970    2.6990   16.4470 N.3    54  VAL54      -0.1245
    128  CA         1.8710    2.2320   15.1810 C.3    54  VAL54       0.1561
    129  C          0.4240    2.6880   15.0190 C.2    54  VAL54       0.2260
    130  O          0.0680    3.1570   13.9330 O.2    54  VAL54      -0.2867
    131  CB         1.9820    0.6880   15.0300 C.3    54  VAL54       0.0252
    132  CG1        1.2900    0.2610   13.7320 C.3    54  VAL54       0.0019
    133  CG2        3.4530    0.2350   15.0490 C.3    54  VAL54       0.0019
    134  N          0.4980    6.3700   13.8790 N.3    57  VAL57      -0.1231
    135  CA         0.9060    6.6000   12.5360 C.3    57  VAL57       0.1692
    136  C         -0.1310    6.0770   11.5300 C.2    57  VAL57       0.2591
    137  O         -0.3490    6.7190   10.4870 O.2    57  VAL57      -0.2718
    138  CB         2.3500    6.1230   12.2000 C.3    57  VAL57       0.0266
    139  CG1        2.4520    4.6010   12.0690 C.3    57  VAL57       0.0020
    140  CG2        2.9020    6.8130   10.9590 C.3    57  VAL57       0.0020
    141  N         -0.7720    4.9450   11.8060 N.am   58  VAL58      -0.1980
    142  CA        -1.8580    4.4890   10.9700 C.3    58  VAL58       0.1595
    143  C         -2.9900    5.4900   10.9850 C.2    58  VAL58       0.2287
    144  O         -3.5760    5.8070    9.9160 O.2    58  VAL58      -0.2864
    145  CB        -2.2900    3.0800   11.4070 C.3    58  VAL58       0.0276
    146  CG1       -3.6110    2.6990   10.6890 C.3    58  VAL58       0.0022
    147  CG2       -1.1940    2.1160   11.0680 C.3    58  VAL58       0.0022
    148  N          1.9920    9.9120    8.0490 N.3    62  GLN62      -0.1231
    149  CA         3.3220   10.5010    8.2860 C.3    62  GLN62       0.1698
    150  C          3.9890   10.6500    6.9570 C.2    62  GLN62       0.2593
    151  O          4.1930    9.6630    6.2640 O.2    62  GLN62      -0.2718
    152  CB         4.2070    9.5840    9.1620 C.3    62  GLN62       0.0381
    153  CG         5.6590    9.9920    9.2090 C.3    62  GLN62       0.0905
    154  CD         5.8330   11.3690    9.7460 C.2    62  GLN62       0.2608
    155  OE1        5.0970   11.7810   10.6500 O.2    62  GLN62      -0.2717
    156  NE2        6.7840   12.1080    9.1820 N.am   62  GLN62      -0.0878
    157  N          4.3750   11.8640    6.5890 N.am   63  GLY63      -0.1942
    158  CA         5.1310   12.0240    5.3730 C.3    63  GLY63       0.2014
    159  C          4.3090   11.5300    4.2170 C.2    63  GLY63       0.2639
    160  O          3.1780   11.9710    4.0250 O.2    63  GLY63      -0.2714
    161  N          4.8820   10.6570    3.4220 N.am   64  ALA64      -0.1963
    162  CA         4.2060   10.0600    2.2600 C.3    64  ALA64       0.1728
    163  C          3.1410    9.0420    2.6290 C.2    64  ALA64       0.2616
    164  O          2.3470    8.6450    1.7750 O.2    64  ALA64      -0.2715
    165  CB         5.2470    9.4480    1.3200 C.3    64  ALA64       0.0334
    166  N          3.1580    8.5590    3.8720 N.am   65  MET65      -0.1964
    167  CA         2.1870    7.5470    4.2660 C.3    65  MET65       0.1722
    168  C          0.8270    8.1860    4.5550 C.2    65  MET65       0.2458
    169  O          0.7410    9.1270    5.3340 O.2    65  MET65      -0.2730
    170  CB         2.6300    6.8260    5.5270 C.3    65  MET65       0.0427
    171  CG         1.5980    5.8400    6.0170 C.3    65  MET65       0.0599
    172  SD         2.2590    4.7580    7.2670 S.3    65  MET65      -0.1393
    173  CE         0.8030    4.3470    8.0840 C.3    65  MET65       0.0692
    174  N         -0.2340    7.7410    3.8700 N.am   66  PRO66      -0.2727
    175  CA        -1.5680    8.3140    4.1460 C.3    66  PRO66       0.1402
    176  C         -2.0640    7.9960    5.5360 C.2    66  PRO66       0.2269
    177  O         -1.6780    7.0040    6.1520 O.2    66  PRO66      -0.2865
    178  CB        -2.4600    7.7200    3.0510 C.3    66  PRO66       0.0296
    179  CG        -1.8110    6.6320    2.5600 C.3    66  PRO66       0.0237
    180  CD        -0.3040    6.7480    2.8180 C.3    66  PRO66       0.0939
    181  N         -5.2080    6.8520    7.8850 N.3    68  PHE68      -0.1241
    182  CA        -6.3170    5.9180    7.8330 C.3    68  PHE68       0.1605
    183  C         -7.4620    6.2720    8.7730 C.2    68  PHE68       0.2264
    184  O         -8.4860    5.5960    8.7400 O.2    68  PHE68      -0.2867
    185  CB        -5.8820    4.4780    8.0470 C.3    68  PHE68       0.0534
    186  CG        -5.0290    3.9840    6.9250 C.ar   68  PHE68      -0.0203
    187  CD1       -3.6850    4.2610    6.8260 C.ar   68  PHE68      -0.0042
    188  CD2       -5.5820    3.1920    5.9070 C.ar   68  PHE68      -0.0042
    189  CE1       -2.9340    3.8360    5.7500 C.ar   68  PHE68      -0.0003
    190  CE2       -4.8370    2.7730    4.8510 C.ar   68  PHE68      -0.0003
    191  CZ        -3.5010    3.0530    4.7690 C.ar   68  PHE68      -0.0000
    192  N        -10.6100    3.4290    8.3310 N.3    72  LEU72      -0.1245
    193  CA       -10.6460    2.1390    8.9880 C.3    72  LEU72       0.1561
    194  C        -11.3070    2.2880   10.3320 C.2    72  LEU72       0.2260
    195  O        -11.1880    3.3520   10.9870 O.2    72  LEU72      -0.2867
    196  CB        -9.2110    1.6070    9.1900 C.3    72  LEU72       0.0270
    197  CG        -8.4670    1.1960    7.9180 C.3    72  LEU72       0.0019
    198  CD1       -7.0160    0.8000    8.3510 C.3    72  LEU72       0.0001
    199  CD2       -9.1770    0.0780    7.2160 C.3    72  LEU72       0.0001
    200  N         -4.4100   -3.8380   13.5810 N.3    80  VAL80      -0.1245
    201  CA        -3.2220   -3.8000   12.7120 C.3    80  VAL80       0.1561
    202  C         -1.9840   -3.3310   13.5150 C.2    80  VAL80       0.2260
    203  O         -0.9080   -3.8240   13.2280 O.2    80  VAL80      -0.2867
    204  CB        -3.4450   -3.0190   11.3740 C.3    80  VAL80       0.0252
    205  CG1       -3.3740   -1.4610   11.5920 C.3    80  VAL80       0.0019
    206  CG2       -2.5180   -3.5030   10.3140 C.3    80  VAL80       0.0019
    207  N          1.5430   -5.3580   13.6480 N.3    84  ILE84      -0.1245
    208  CA         2.8850   -4.8150   13.4380 C.3    84  ILE84       0.1561
    209  C          3.7840   -5.0970   14.6470 C.2    84  ILE84       0.2260
    210  O          4.9070   -5.5210   14.4860 O.2    84  ILE84      -0.2867
    211  CB         2.8740   -3.3450   13.0890 C.3    84  ILE84       0.0252
    212  CG1        2.0290   -3.0370   11.8200 C.3    84  ILE84       0.0019
    213  CG2        4.2840   -2.8360   12.8870 C.3    84  ILE84       0.0019
    214  CD1        2.3910   -3.9280   10.6260 C.3    84  ILE84       0.0001
@<TRIPOS>BOND
     1    30    27    1
     2    29    28    2
     3    27    28    1
     4    27    26    1
     5    61    59    1
     6    28    31   am
     7    56    55    1
     8    56    59    1
     9    56    57    1
    10    58    57    2
    11    59    60    1
    12    57    62   am
    13    36    35    1
    14    31    32    1
    15    32    35    1
    16    32    33    1
    17    62    63    1
    18    50    49    2
    19   165   162    1
    20    33    34    2
    21    33    37   am
    22    49    48    1
    23   164   163    2
    24    63    64    1
    25    63    66    1
    26    37    38    1
    27   162   163    1
    28   162   161    1
    29    64    65    2
    30    53    52    2
    31   179   180    1
    32   179   178    1
    33   163   166   am
    34    48    47    1
    35    48    51    1
    36   180   174    1
    37    66    67    1
    38    39    38    1
    39    39    40    2
    40   178   175    1
    41    38    41    1
    42    23    22    2
    43    22    21    1
    44   161   159   am
    45    15    14    2
    46    12    13    1
    47    14    13    1
    48    14    20   am
    49    13    16    1
    50    69    68    1
    51    67    68    1
    52    52    51    1
    53    52    54   am
    54    20    21    1
    55   174   175    1
    56   174   168   am
    57   166   167    1
    58    21    24    1
    59   160   159    2
    60   175   176    1
    61    18    17    2
    62   159   158    1
    63   167   168    1
    64   167   170    1
    65    41    42    1
    66     4     3    2
    67   168   169    2
    68   191   190   ar
    69   191   189   ar
    70    16    17    1
    71   190   188   ar
    72    17    19   am
    73    42    43   ar
    74    42    44   ar
    75    43    45   ar
    76    44    46   ar
    77   158   157    1
    78     9    11   ar
    79     9     7   ar
    80     3     2    1
    81    24    25    1
    82    45    46   ar
    83   170   171    1
    84   176   177    2
    85   189   187   ar
    86    11    10   ar
    87   188   186   ar
    88     7     6   ar
    89    85    83    1
    90   171   172    1
    91    70    71    1
    92   151   150    2
    93   157   150   am
    94   187   186   ar
    95    10     8   ar
    96   186   185    1
    97     2     1    1
    98     2     5    1
    99   150   149    1
   100     6     8   ar
   101     6     5    1
   102    73    72    2
   103    83    80    1
   104    83    84    1
   105   199   197    1
   106    74    71    1
   107    74    75    1
   108    72    71    1
   109    72    79   am
   110   172   173    1
   111    80    79    1
   112    80    81    1
   113    75    76    1
   114   182   181    1
   115   182   185    1
   116   182   183    1
   117   197   198    1
   118   197   196    1
   119    76    77    1
   120   148   149    1
   121    77    78    1
   122    92    91    1
   123   149   152    1
   124   192   193    1
   125    91    93    1
   126    91    90    1
   127   184   183    2
   128    81    86   am
   129    81    82    2
   130    86    87    1
   131   193   196    1
   132   193   194    1
   133   152   153    1
   134   156   154   am
   135   153   154    1
   136   118   117    1
   137    90    87    1
   138   154   155    2
   139   117   116   ar
   140   117   115   ar
   141    87    88    1
   142   144   143    2
   143   116   114   ar
   144   115   113   ar
   145   206   204    1
   146   194   195    2
   147   137   136    2
   148   114   112   ar
   149    98    95    1
   150   214   212    1
   151   146   145    1
   152    88    89    2
   153   113   112   ar
   154   140   138    1
   155   142   143    1
   156   142   145    1
   157   142   141    1
   158   112   111    1
   159   147   145    1
   160   204   205    1
   161   204   201    1
   162   136   141   am
   163   136   135    1
   164   111   108    1
   165   212   211    1
   166    95    94    1
   167    95    96    1
   168   139   138    1
   169   138   135    1
   170   135   134    1
   171   201   202    1
   172   201   200    1
   173    96    97    2
   174    96    99   am
   175   213   211    1
   176   106   104    1
   177   108   109    1
   178   108   107    1
   179   110   109    2
   180   211   208    1
   181   203   202    2
   182    99   100    1
   183   104   105    1
   184   104   103    1
   185   208   207    1
   186   208   209    1
   187   109   119   am
   188   132   131    1
   189   125   124    1
   190   130   129    2
   191   100   103    1
   192   100   101    1
   193   119   120    1
   194   120   123    1
   195   120   121    1
   196   210   209    2
   197   123   124    1
   198   124   126    1
   199   129   128    1
   200   131   133    1
   201   131   128    1
   202   128   127    1
   203   101   102    2
   204   121   122    2
