@<TRIPOS>MOLECULE
tmp/4eidA01.pdb
 79 76 0 0 0
SMALL
GASTEIGER

@<TRIPOS>ATOM
      1  N         -3.6320   -9.0640   10.9900 N.3     7  ALA7       -0.1231
      2  CA        -2.9730   -9.5710    9.8000 C.3     7  ALA7        0.1694
      3  C         -3.8720   -9.2820    8.5620 C.2     7  ALA7        0.2591
      4  O         -3.3950   -8.9690    7.4840 O.2     7  ALA7       -0.2718
      5  CB        -2.7070  -11.0450    9.9370 C.3     7  ALA7        0.0304
      6  N         -5.1880   -9.4810    8.7380 N.am    8  GLN8       -0.1979
      7  CA        -6.1060   -9.2630    7.5980 C.3     8  GLN8        0.1601
      8  C         -6.2460   -7.7960    7.2460 C.2     8  GLN8        0.2287
      9  O         -6.3610   -7.3920    6.0990 O.2     8  GLN8       -0.2864
     10  CB        -7.4810   -9.8730    7.9460 C.3     8  GLN8        0.0394
     11  CG        -7.4010  -11.4250    8.2250 C.3     8  GLN8        0.0908
     12  CD        -8.6050  -12.0730    8.9280 C.2     8  GLN8        0.2608
     13  OE1       -9.4120  -11.4280    9.5990 O.2     8  GLN8       -0.2717
     14  NE2       -8.6780  -13.3930    8.8180 N.am    8  GLN8       -0.0878
     15  N         -3.8370   -5.6740    7.6200 N.3    10  PHE10      -0.1227
     16  CA        -2.5800   -5.4330    6.9390 C.3    10  PHE10       0.1736
     17  C         -2.6770   -5.8420    5.4580 C.2    10  PHE10       0.2595
     18  O         -2.3010   -5.1150    4.5550 O.2    10  PHE10      -0.2718
     19  CB        -1.4250   -6.1670    7.6320 C.3    10  PHE10       0.0547
     20  CG        -0.1020   -5.9060    6.9910 C.ar   10  PHE10      -0.0202
     21  CD1        0.3850   -6.6920    5.9830 C.ar   10  PHE10      -0.0042
     22  CD2        0.6850   -4.8370    7.4360 C.ar   10  PHE10      -0.0042
     23  CE1        1.6170   -6.4430    5.3960 C.ar   10  PHE10      -0.0003
     24  CE2        1.9120   -4.5840    6.8620 C.ar   10  PHE10      -0.0003
     25  CZ         2.3700   -5.3590    5.8610 C.ar   10  PHE10      -0.0000
     26  N         -3.1730   -7.0500    5.2410 N.am   11  ALA11      -0.1980
     27  CA        -3.3020   -7.5470    3.8660 C.3    11  ALA11       0.1597
     28  C         -4.1540   -6.6550    3.0010 C.2    11  ALA11       0.2287
     29  O         -3.8960   -6.5110    1.8240 O.2    11  ALA11      -0.2864
     30  CB        -3.8140   -8.9740    3.9080 C.3    11  ALA11       0.0319
     31  N         -0.1090   -3.8540    2.5170 N.3    15  ALA15      -0.1245
     32  CA         0.8540   -4.6800    1.8420 C.3    15  ALA15       0.1562
     33  C          1.3490   -4.1000    0.5480 C.2    15  ALA15       0.2260
     34  O          2.4160   -4.4300    0.0870 O.2    15  ALA15      -0.2867
     35  CB         0.3480   -6.1030    1.6830 C.3    15  ALA15       0.0290
     36  N          4.8560   -4.6850    1.8070 N.3    19  ALA19      -0.1231
     37  CA         5.0370   -6.0880    1.6290 C.3    19  ALA19       0.1694
     38  C          6.2690   -6.5840    2.2920 C.2    19  ALA19       0.2592
     39  O          7.3470   -5.9910    2.1330 O.2    19  ALA19      -0.2718
     40  CB         5.1130   -6.4770    0.0950 C.3    19  ALA19       0.0304
     41  N          6.1540   -7.7060    2.9600 N.am   20  GLY20      -0.1957
     42  CA         7.3220   -8.3130    3.6250 C.3    20  GLY20       0.1869
     43  C          7.7310   -7.5860    4.8670 C.2    20  GLY20       0.2309
     44  O          8.7610   -7.9250    5.4360 O.2    20  GLY20      -0.2863
     45  N         -0.6820   -6.3350   15.1500 N.3    83  TYR83      -0.1241
     46  CA        -0.0150   -7.1800   14.1910 C.3    83  TYR83       0.1605
     47  C          1.4040   -6.6570   13.9220 C.2    83  TYR83       0.2264
     48  O          2.3550   -7.4480   13.9510 O.2    83  TYR83      -0.2867
     49  CB        -0.8390   -7.3120   12.8830 C.3    83  TYR83       0.0534
     50  CG        -0.1910   -8.0740   11.7950 C.ar   83  TYR83      -0.0201
     51  CD1       -0.0570   -9.4550   11.8570 C.ar   83  TYR83      -0.0009
     52  CD2        0.2490   -7.4390   10.6490 C.ar   83  TYR83      -0.0009
     53  CE1        0.4950  -10.1740   10.8050 C.ar   83  TYR83       0.0417
     54  CE2        0.8160   -8.1490    9.5960 C.ar   83  TYR83       0.0417
     55  CZ         0.9270   -9.5220    9.6600 C.ar   83  TYR83       0.1957
     56  OH         1.4530  -10.2080    8.5810 O.3    83  TYR83      -0.2866
     57  N          4.6570   -8.8920   14.7930 N.3    87  GLN87      -0.1245
     58  CA         5.5720   -9.2750   13.7510 C.3    87  GLN87       0.1566
     59  C          6.9700   -8.7570   14.0420 C.2    87  GLN87       0.2260
     60  O          7.9520   -9.4630   13.8650 O.2    87  GLN87      -0.2867
     61  CB         5.1290   -8.6620   12.4310 C.3    87  GLN87       0.0367
     62  CG         3.8220   -9.2350   11.8250 C.3    87  GLN87       0.0905
     63  CD         4.0040  -10.6130   11.3000 C.2    87  GLN87       0.2608
     64  OE1        3.7080  -11.6000   11.9820 O.2    87  GLN87      -0.2717
     65  NE2        4.5730  -10.7150   10.1000 N.am   87  GLN87      -0.0878
     66  N          8.6630  -11.2460   10.2330 N.3    93  TRP93      -0.1241
     67  CA         8.4640  -10.7920    8.8720 C.3    93  TRP93       0.1605
     68  C          9.1700  -11.7190    7.8710 C.2    93  TRP93       0.2264
     69  O          8.6560  -11.8110    6.7250 O.2    93  TRP93      -0.2867
     70  CB         8.9580   -9.3610    8.6750 C.3    93  TRP93       0.0550
     71  CG         8.1710   -8.3380    9.3670 C.ar   93  TRP93       0.0003
     72  CD1        8.5760   -7.5610   10.3890 C.ar   93  TRP93       0.0946
     73  CD2        6.8480   -7.9160    9.0540 C.ar   93  TRP93       0.0152
     74  NE1        7.5810   -6.6580   10.7510 N.ar   93  TRP93      -0.2442
     75  CE2        6.5300   -6.8430    9.9180 C.ar   93  TRP93       0.0810
     76  CE3        5.9110   -8.3340    8.1190 C.ar   93  TRP93       0.0012
     77  CZ2        5.2990   -6.2250    9.8770 C.ar   93  TRP93       0.0191
     78  CZ3        4.6750   -7.6980    8.0620 C.ar   93  TRP93       0.0001
     79  CH2        4.3990   -6.6660    8.9190 C.ar   93  TRP93       0.0015
@<TRIPOS>BOND
     1    34    33    2
     2    40    37    1
     3    33    32    1
     4    37    36    1
     5    37    38    1
     6    35    32    1
     7    29    28    2
     8    32    31    1
     9    39    38    2
    10    38    41   am
    11    41    42    1
    12    28    27    1
    13    42    43    1
    14    27    30    1
    15    27    26    1
    16    18    17    2
    17    43    44    2
    18    26    17   am
    19    23    25   ar
    20    23    21   ar
    21    17    16    1
    22    25    24   ar
    23    21    20   ar
    24     9     8    2
    25    69    68    2
    26    24    22   ar
    27    16    15    1
    28    16    19    1
    29    20    22   ar
    30    20    19    1
    31     8     7    1
    32     4     3    2
    33     7    10    1
    34     7     6    1
    35    68    67    1
    36    10    11    1
    37    78    76   ar
    38    78    79   ar
    39    76    73   ar
    40    11    12    1
    41     3     6   am
    42     3     2    1
    43    56    55    1
    44    70    67    1
    45    70    71    1
    46    14    12   am
    47    67    66    1
    48    79    77   ar
    49    12    13    2
    50    73    71   ar
    51    73    75   ar
    52    71    72   ar
    53    54    55   ar
    54    54    52   ar
    55    55    53   ar
    56     2     5    1
    57     2     1    1
    58    77    75   ar
    59    75    74   ar
    60    65    63   am
    61    72    74   ar
    62    52    50   ar
    63    53    51   ar
    64    63    62    1
    65    63    64    2
    66    50    51   ar
    67    50    49    1
    68    62    61    1
    69    61    58    1
    70    49    46    1
    71    58    59    1
    72    58    57    1
    73    60    59    2
    74    47    48    2
    75    47    46    1
    76    46    45    1
