@<TRIPOS>MOLECULE
tmp/4eifA00.pdb
 224 213 0 0 0
SMALL
GASTEIGER

@<TRIPOS>ATOM
      1  N          8.4310   19.6270   12.9230 N.3     7  PHE7       -0.1241
      2  CA         8.5350   18.3030   12.3260 C.3     7  PHE7        0.1605
      3  C          7.3730   18.0660   11.3240 C.2     7  PHE7        0.2264
      4  O          7.5820   17.5950   10.1950 O.2     7  PHE7       -0.2867
      5  CB         8.5060   17.2320   13.4240 C.3     7  PHE7        0.0534
      6  CG         8.8390   15.8630   12.9100 C.ar    7  PHE7       -0.0203
      7  CD1        7.8270   15.0040   12.4260 C.ar    7  PHE7       -0.0042
      8  CD2       10.1660   15.4340   12.8060 C.ar    7  PHE7       -0.0042
      9  CE1        8.1370   13.7820   11.8830 C.ar    7  PHE7       -0.0003
     10  CE2       10.4510   14.1680   12.2610 C.ar    7  PHE7       -0.0003
     11  CZ         9.4300   13.3570   11.8230 C.ar    7  PHE7       -0.0000
     12  N          8.0190   20.2450    8.1180 N.3    10  HIS10      -0.1226
     13  CA         9.2750   20.1580    7.3540 C.3    10  HIS10       0.1752
     14  C          9.8500   18.7510    7.2160 C.2    10  HIS10       0.2596
     15  O         10.7720   18.6020    6.3960 O.2    10  HIS10      -0.2718
     16  CB        10.3490   21.0810    7.9970 C.3    10  HIS10       0.0759
     17  CG         9.9660   22.5090    7.9290 C.ar   10  HIS10       0.0818
     18  ND1       10.0970   23.2660    6.7880 N.ar   10  HIS10      -0.2268
     19  CD2        9.3560   23.2910    8.8390 C.ar   10  HIS10       0.1154
     20  CE1        9.6110   24.4730    7.0110 C.ar   10  HIS10       0.1986
     21  NE2        9.1510   24.5190    8.2470 N.ar   10  HIS10      -0.2212
     22  N          9.4020   17.7900    8.0150 N.am   11  CYS11      -0.1970
     23  CA        10.0800   16.5060    8.0850 C.3    11  CYS11       0.1712
     24  C          9.1380   15.3440    7.7860 C.2    11  CYS11       0.2296
     25  O          9.5700   14.2760    7.3320 O.2    11  CYS11      -0.2864
     26  CB        10.7020   16.2760    9.4860 C.3    11  CYS11       0.0983
     27  SG        11.6240   17.6760   10.1600 S.3    11  CYS11      -0.0798
     28  N          6.9810   14.7090    5.5690 N.3    13  GLY13      -0.1210
     29  CA         6.8360   14.2320    4.2080 C.3    13  GLY13       0.1956
     30  C          7.6050   12.9360    3.9890 C.2    13  GLY13       0.2612
     31  O          7.1580   12.0460    3.2410 O.2    13  GLY13      -0.2717
     32  N          8.7740   12.7900    4.6150 N.am   14  CYS14      -0.1956
     33  CA         9.6020   11.5980    4.4690 C.3    14  CYS14       0.1843
     34  C          9.6460   10.7330    5.7270 C.2    14  CYS14       0.2625
     35  O          9.9800    9.5330    5.6050 O.2    14  CYS14      -0.2714
     36  CB        11.0310   11.9730    4.0930 C.3    14  CYS14       0.0997
     37  SG        11.0120   12.8900    2.5230 S.3    14  CYS14      -0.0797
     38  N          9.3910   11.3220    6.8950 N.am   15  HIS15      -0.1973
     39  CA         9.6140   10.6660    8.1630 C.3    15  HIS15       0.1656
     40  C          8.3300   10.5690    9.0270 C.2    15  HIS15       0.2291
     41  O          8.4150   10.5200   10.2580 O.2    15  HIS15      -0.2864
     42  CB        10.7070   11.3500    8.9900 C.3    15  HIS15       0.0771
     43  CG        12.0780   11.3770    8.3650 C.ar   15  HIS15       0.0820
     44  ND1       12.8420   10.2510    8.1360 N.ar   15  HIS15      -0.2267
     45  CD2       12.8550   12.4330    8.0300 C.ar   15  HIS15       0.1154
     46  CE1       14.0660   10.6560    7.7350 C.ar   15  HIS15       0.1986
     47  NE2       14.1030   11.9750    7.6630 N.ar   15  HIS15      -0.2212
     48  N         11.0800    6.2730    7.3070 N.3    20  ASN20      -0.1240
     49  CA        11.8730    6.8860    6.2210 C.3    20  ASN20       0.1653
     50  C         11.4220    6.2220    4.9210 C.2    20  ASN20       0.2266
     51  O         11.8230    5.1040    4.6200 O.2    20  ASN20      -0.2867
     52  CB        13.3810    6.7490    6.4140 C.3    20  ASN20       0.1155
     53  CG        14.1500    7.5870    5.3930 C.2    20  ASN20       0.2627
     54  OD1       13.6630    7.8550    4.3050 O.2    20  ASN20      -0.2716
     55  ND2       15.3700    8.0150    5.7710 N.am   20  ASN20      -0.0877
     56  N         12.0840    7.0300    1.9640 N.3    22  VAL22      -0.1231
     57  CA        13.0940    7.1500    0.9000 C.3    22  VAL22       0.1692
     58  C         14.2510    6.1610    1.0460 C.2    22  VAL22       0.2591
     59  O         14.4640    5.3730    0.0920 O.2    22  VAL22      -0.2718
     60  CB        13.6960    8.5650    0.9270 C.3    22  VAL22       0.0266
     61  CG1       14.7270    8.7520   -0.2040 C.3    22  VAL22       0.0020
     62  CG2       12.6120    9.6370    0.8310 C.3    22  VAL22       0.0020
     63  N         14.9240    6.1690    2.2120 N.am   23  ARG23      -0.1980
     64  CA        16.0320    5.2760    2.5260 C.3    23  ARG23       0.1597
     65  C         15.5860    4.3770    3.6480 C.2    23  ARG23       0.2287
     66  O         15.5700    4.7510    4.8280 O.2    23  ARG23      -0.2864
     67  CB        17.3160    6.0270    2.8980 C.3    23  ARG23       0.0334
     68  CG        18.5090    5.1050    3.0920 C.3    23  ARG23       0.0492
     69  CD        19.8410    5.8070    3.0360 C.3    23  ARG23       0.2205
     70  NE        20.9060    4.8200    3.1510 N.pl3  23  ARG23      -0.0865
     71  CZ        22.2100    5.0410    2.9950 C.cat  23  ARG23       0.5346
     72  NH1       22.6710    6.2580    2.7170 N.pl3  23  ARG23       0.1354
     73  NH2       23.0550    4.0320    3.1520 N.pl3  23  ARG23       0.1354
     74  N         17.4190    4.0450    7.1780 N.3    26  LYS26      -0.1231
     75  CA        17.7390    5.2740    7.9550 C.3    26  LYS26       0.1693
     76  C         16.5080    5.9930    8.5300 C.2    26  LYS26       0.2592
     77  O         16.3210    7.1870    8.3070 O.2    26  LYS26      -0.2718
     78  CB        18.6660    6.2280    7.1520 C.3    26  LYS26       0.0285
     79  CG        20.1050    5.6340    7.0450 C.3    26  LYS26       0.0035
     80  CD        21.1920    6.5920    6.7000 C.3    26  LYS26       0.0206
     81  CE        22.4920    5.9090    6.5830 C.3    26  LYS26       0.1093
     82  NZ        23.5570    6.9220    6.3910 N.3    26  LYS26      -0.1314
     83  N         15.6880    5.2550    9.2770 N.am   27  ASN27      -0.1960
     84  CA        14.5810    5.8870   10.0270 C.3    27  ASN27       0.1819
     85  C         14.8860    6.5270   11.3830 C.2    27  ASN27       0.2621
     86  O         16.0570    6.5940   11.8080 O.2    27  ASN27      -0.2715
     87  CB        13.3400    4.9770    9.9920 C.3    27  ASN27       0.1195
     88  CG        13.3750    3.8400   11.0100 C.2    27  ASN27       0.2630
     89  OD1       14.0930    3.9170   12.0070 O.2    27  ASN27      -0.2716
     90  ND2       12.5380    2.8470   10.7780 N.am   27  ASN27      -0.0877
     91  N         13.8510    7.0760   11.9970 N.am   28  LEU28      -0.1977
     92  CA        13.9980    7.8470   13.2200 C.3    28  LEU28       0.1596
     93  C         13.5920    7.0490   14.4490 C.2    28  LEU28       0.2287
     94  O         13.4330    7.6080   15.5420 O.2    28  LEU28      -0.2864
     95  CB        13.2350    9.1560   13.1830 C.3    28  LEU28       0.0297
     96  CG        13.4190    9.9970   11.8940 C.3    28  LEU28       0.0022
     97  CD1       12.6820   11.3270   12.0250 C.3    28  LEU28       0.0001
     98  CD2       14.8520   10.2070   11.5080 C.3    28  LEU28       0.0001
     99  N         17.7360    2.1300   14.3830 N.3    32  ALA32      -0.1231
    100  CA        18.5670    2.8070   13.4050 C.3    32  ALA32       0.1694
    101  C         19.2390    4.0290   13.9810 C.2    32  ALA32       0.2591
    102  O         20.4210    4.3070   13.7120 O.2    32  ALA32      -0.2718
    103  CB        17.7630    3.1830   12.1420 C.3    32  ALA32       0.0304
    104  N         18.4980    4.7850   14.7950 N.am   33  MET33      -0.1979
    105  CA        19.0780    5.9720   15.4210 C.3    33  MET33       0.1605
    106  C         20.2680    5.6230   16.3340 C.2    33  MET33       0.2287
    107  O         21.3190    6.2720   16.3000 O.2    33  MET33      -0.2864
    108  CB        18.0100    6.7550   16.1810 C.3    33  MET33       0.0413
    109  CG        16.9590    7.3650   15.2330 C.3    33  MET33       0.0598
    110  SD        17.5190    8.8360   14.3240 S.3    33  MET33      -0.1393
    111  CE        17.2890   10.0670   15.6390 C.3    33  MET33       0.0692
    112  N         23.4090    4.4180   14.3140 N.3    36  ASN36      -0.1240
    113  CA        24.0860    5.5300   13.6620 C.3    36  ASN36       0.1653
    114  C         24.5250    6.6530   14.5920 C.2    36  ASN36       0.2266
    115  O         25.1280    7.6210   14.1660 O.2    36  ASN36      -0.2867
    116  CB        23.2450    6.0410   12.4900 C.3    36  ASN36       0.1155
    117  CG        23.0990    4.9770   11.4050 C.2    36  ASN36       0.2627
    118  OD1       21.9990    4.6490   11.0000 O.2    36  ASN36      -0.2716
    119  ND2       24.1480    4.5220   10.8860 N.am   36  ASN36      -0.0877
    120  N         22.6800    8.7470   16.5220 N.3    38  TYR38      -0.1241
    121  CA        21.7970    9.8980   16.6770 C.3    38  TYR38       0.1605
    122  C         21.0700    9.8020   18.0090 C.2    38  TYR38       0.2264
    123  O         19.8550    9.5700   18.1020 O.2    38  TYR38      -0.2867
    124  CB        20.8330   10.0030   15.4900 C.3    38  TYR38       0.0534
    125  CG        21.5640   10.3040   14.2110 C.ar   38  TYR38      -0.0201
    126  CD1       22.1400   11.5340   13.9810 C.ar   38  TYR38      -0.0009
    127  CD2       21.6990    9.3270   13.2280 C.ar   38  TYR38      -0.0009
    128  CE1       22.8350   11.7920   12.7980 C.ar   38  TYR38       0.0417
    129  CE2       22.4080    9.5610   12.0620 C.ar   38  TYR38       0.0417
    130  CZ        23.0170   10.7870   11.8790 C.ar   38  TYR38       0.1957
    131  OH        23.7490   11.0850   10.7320 O.3    38  TYR38      -0.2866
    132  N         21.8950   15.0170   16.0970 N.3    44  ILE44      -0.1245
    133  CA        20.7580   15.2020   15.2280 C.3    44  ILE44       0.1561
    134  C         20.7810   16.5890   14.5500 C.2    44  ILE44       0.2260
    135  O         20.6120   16.7110   13.3340 O.2    44  ILE44      -0.2867
    136  CB        19.4200   14.9330   15.9860 C.3    44  ILE44       0.0252
    137  CG1       19.3470   13.4740   16.4280 C.3    44  ILE44       0.0019
    138  CG2       18.1980   15.3140   15.1230 C.3    44  ILE44       0.0019
    139  CD1       18.3410   13.2240   17.5500 C.3    44  ILE44       0.0001
    140  N         23.2590   16.8980   11.6440 N.3    47  GLN47      -0.1231
    141  CA        22.8030   16.2340   10.4350 C.3    47  GLN47       0.1698
    142  C         21.6940   17.0510    9.7560 C.2    47  GLN47       0.2592
    143  O         21.7180   17.2110    8.5250 O.2    47  GLN47      -0.2718
    144  CB        22.4430   14.8250   10.7720 C.3    47  GLN47       0.0381
    145  CG        22.2220   13.9490    9.5880 C.3    47  GLN47       0.0905
    146  CD        20.7990   13.9620    9.1250 C.2    47  GLN47       0.2608
    147  OE1       19.9600   14.7680    9.5300 O.2    47  GLN47      -0.2717
    148  NE2       20.5130   13.0470    8.1370 N.am   47  GLN47      -0.0878
    149  N         20.7740   17.6030   10.5290 N.am   48  VAL48      -0.1980
    150  CA        19.6720   18.3730    9.9580 C.3    48  VAL48       0.1595
    151  C         20.2160   19.6430    9.3050 C.2    48  VAL48       0.2287
    152  O         19.7510   20.0670    8.2420 O.2    48  VAL48      -0.2864
    153  CB        18.6360   18.7000   11.0680 C.3    48  VAL48       0.0276
    154  CG1       17.6530   19.7700   10.6300 C.3    48  VAL48       0.0022
    155  CG2       17.9100   17.4070   11.5360 C.3    48  VAL48       0.0022
    156  N         22.3860   15.2260    4.3000 N.3    52  LYS52      -0.1231
    157  CA        23.1940   14.0740    4.0410 C.3    52  LYS52       0.1693
    158  C         22.5410   13.2580    2.9410 C.2    52  LYS52       0.2593
    159  O         21.3580   12.9970    2.9840 O.2    52  LYS52      -0.2718
    160  CB        23.2910   13.2060    5.3180 C.3    52  LYS52       0.0285
    161  CG        24.3060   12.1370    5.1760 C.3    52  LYS52       0.0035
    162  CD        24.8310   11.6260    6.4490 C.3    52  LYS52       0.0206
    163  CE        26.0840   10.7520    6.1420 C.3    52  LYS52       0.1093
    164  NZ        26.4370   10.0020    7.2710 N.3    52  LYS52      -0.1314
    165  N         23.3220   12.7860    1.9760 N.am   53  GLY53      -0.1942
    166  CA        22.7980   12.0380    0.8620 C.3    53  GLY53       0.2014
    167  C         21.6520   12.7770    0.1720 C.2    53  GLY53       0.2639
    168  O         21.7690   13.9500   -0.1620 O.2    53  GLY53      -0.2714
    169  N         20.5310   12.1170    0.0230 N.am   54  ASN54      -0.1958
    170  CA        19.3320   12.6700   -0.5800 C.3    54  ASN54       0.1819
    171  C         18.4880   13.5120    0.3670 C.2    54  ASN54       0.2621
    172  O         17.4590   14.0460   -0.0750 O.2    54  ASN54      -0.2715
    173  CB        18.4940   11.5230   -1.2070 C.3    54  ASN54       0.1195
    174  CG        19.1470   10.9480   -2.4160 C.2    54  ASN54       0.2630
    175  OD1       19.6710   11.6900   -3.2470 O.2    54  ASN54      -0.2716
    176  ND2       19.2010    9.6370   -2.4680 N.am   54  ASN54      -0.0877
    177  N         18.8610   13.6240    1.6240 N.am   55  MET55      -0.1963
    178  CA        18.1980   14.5620    2.5410 C.3    55  MET55       0.1736
    179  C         18.8090   15.9650    2.3870 C.2    55  MET55       0.2617
    180  O         20.0360   16.1210    2.4600 O.2    55  MET55      -0.2715
    181  CB        18.2950   14.0970    3.9850 C.3    55  MET55       0.0427
    182  CG        17.5490   15.0120    4.9420 C.3    55  MET55       0.0599
    183  SD        17.5920   14.3600    6.6360 S.3    55  MET55      -0.1393
    184  CE        17.6300   15.9060    7.5920 C.3    55  MET55       0.0692
    185  N         17.9490   16.9740    2.2000 N.am   56  SER56      -0.1950
    186  CA        18.4210   18.3340    2.0840 C.3    56  SER56       0.1924
    187  C         19.0540   18.8300    3.3840 C.2    56  SER56       0.2314
    188  O         18.7820   18.3850    4.4760 O.2    56  SER56      -0.2863
    189  CB        17.2980   19.2110    1.5130 C.3    56  SER56       0.2116
    190  OG        16.3670   19.5770    2.4900 O.3    56  SER56      -0.2180
    191  N         19.0920   21.8310    5.9890 N.3    58  TYR58      -0.1241
    192  CA        18.1080   22.7690    6.5700 C.3    58  TYR58       0.1605
    193  C         18.7510   24.0130    7.1660 C.2    58  TYR58       0.2264
    194  O         18.0170   24.9130    7.6000 O.2    58  TYR58      -0.2867
    195  CB        17.1400   22.0890    7.5650 C.3    58  TYR58       0.0534
    196  CG        16.2080   21.1210    6.8380 C.ar   58  TYR58      -0.0201
    197  CD1       14.9510   21.5450    6.4470 C.ar   58  TYR58      -0.0009
    198  CD2       16.6240   19.8390    6.5170 C.ar   58  TYR58      -0.0009
    199  CE1       14.1120   20.6780    5.7040 C.ar   58  TYR58       0.0417
    200  CE2       15.8170   18.9840    5.8050 C.ar   58  TYR58       0.0417
    201  CZ        14.5770   19.4240    5.3610 C.ar   58  TYR58       0.1957
    202  OH        13.8230   18.5570    4.5910 O.3    58  TYR58      -0.2866
    203  N         15.7110   26.6800    8.1380 N.3    62  LEU62      -0.1245
    204  CA        15.2260   26.7510    9.5060 C.3    62  LEU62       0.1561
    205  C         16.2780   27.4610   10.3490 C.2    62  LEU62       0.2260
    206  O         17.4660   27.2910   10.1180 O.2    62  LEU62      -0.2867
    207  CB        14.9840   25.3590   10.0820 C.3    62  LEU62       0.0270
    208  CG        13.8860   24.5430    9.4200 C.3    62  LEU62       0.0019
    209  CD1       13.8980   23.1090    9.9890 C.3    62  LEU62       0.0001
    210  CD2       12.5170   25.1700    9.6590 C.3    62  LEU62       0.0001
    211  N         13.3780   20.9680   16.8430 N.3    70  VAL70      -0.1245
    212  CA        12.9830   19.7430   16.1320 C.3    70  VAL70       0.1561
    213  C         13.9200   18.5770   16.4660 C.2    70  VAL70       0.2260
    214  O         13.4930   17.4280   16.5190 O.2    70  VAL70      -0.2867
    215  CB        12.8300   19.9480   14.5990 C.3    70  VAL70       0.0252
    216  CG1       14.1650   20.0760   13.8590 C.3    70  VAL70       0.0019
    217  CG2       11.9700   18.8470   14.0040 C.3    70  VAL70       0.0019
    218  N         12.7840   14.9340   17.8920 N.3    74  VAL74      -0.1245
    219  CA        13.1840   13.6840   17.2910 C.3    74  VAL74       0.1561
    220  C         13.9300   12.7900   18.2950 C.2    74  VAL74       0.2260
    221  O         13.7070   11.5650   18.3360 O.2    74  VAL74      -0.2867
    222  CB        14.0300   13.9380   16.0060 C.3    74  VAL74       0.0252
    223  CG1       14.7080   12.6810   15.5290 C.3    74  VAL74       0.0019
    224  CG2       13.1260   14.5370   14.9060 C.3    74  VAL74       0.0019
@<TRIPOS>BOND
     1   175   174    2
     2   176   174   am
     3   174   173    1
     4   173   170    1
     5   170   169    1
     6   170   171    1
     7    61    60    1
     8   168   167    2
     9   172   171    2
    10   169   167   am
    11    59    58    2
    12   167   166    1
    13   171   177   am
    14    62    60    1
    15   166   165    1
    16    57    60    1
    17    57    58    1
    18    57    56    1
    19    58    63   am
    20   189   186    1
    21   189   190    1
    22   177   178    1
    23   165   158   am
    24   186   185    1
    25   186   187    1
    26   185   179   am
    27    63    64    1
    28   179   180    2
    29   179   178    1
    30    37    36    1
    31    64    67    1
    32    64    65    1
    33   178   181    1
    34    72    71    1
    35    67    68    1
    36   158   159    2
    37   158   157    1
    38    71    70    2
    39    71    73    1
    40    69    68    1
    41    69    70    1
    42    31    30    2
    43   187   188    2
    44    65    66    2
    45   181   182    1
    46    30    29    1
    47    30    32   am
    48   157   156    1
    49   157   160    1
    50    36    33    1
    51    29    28    1
    52    54    53    2
    53    33    32    1
    54    33    34    1
    55   202   201    1
    56    51    50    2
    57    50    49    1
    58   182   183    1
    59   161   160    1
    60   161   162    1
    61   201   199   ar
    62   201   200   ar
    63    53    55   am
    64    53    52    1
    65    35    34    2
    66   199   197   ar
    67    34    38   am
    68   200   198   ar
    69   191   192    1
    70   163   162    1
    71   163   164    1
    72    49    52    1
    73    49    48    1
    74    82    81    1
    75    15    14    2
    76   197   196   ar
    77   198   196   ar
    78   192   193    1
    79   192   195    1
    80    81    80    1
    81   183   184    1
    82    80    79    1
    83    18    20   ar
    84    18    17   ar
    85   196   195    1
    86    38    39    1
    87    20    21   ar
    88    79    78    1
    89    78    75    1
    90   193   194    2
    91    74    75    1
    92    14    13    1
    93    14    22   am
    94    25    24    2
    95    13    16    1
    96    13    12    1
    97    47    46   ar
    98    47    45   ar
    99    46    44   ar
   100    24    23    1
   101    17    16    1
   102    17    19   ar
   103    75    76    1
   104    22    23    1
   105    45    43   ar
   106    23    26    1
   107    44    43   ar
   108   148   146   am
   109   203   204    1
   110    39    42    1
   111    39    40    1
   112   152   151    2
   113    21    19   ar
   114    77    76    2
   115    43    42    1
   116   143   142    2
   117    76    83   am
   118    40    41    2
   119   146   147    2
   120   146   145    1
   121    83    84    1
   122   151   150    1
   123   208   210    1
   124   208   209    1
   125   208   207    1
   126    26    27    1
   127   204   207    1
   128   204   205    1
   129   145   144    1
   130   142   141    1
   131   142   149   am
   132   150   149    1
   133   150   153    1
   134    87    84    1
   135    87    88    1
   136    84    85    1
   137   206   205    2
   138     4     3    2
   139   141   144    1
   140   141   140    1
   141   154   153    1
   142   131   130    1
   143    90    88   am
   144   119   117   am
   145   118   117    2
   146    88    89    2
   147   153   155    1
   148     3     2    1
   149    85    86    2
   150    85    91   am
   151   117   116    1
   152    98    96    1
   153    11     9   ar
   154    11    10   ar
   155   130   129   ar
   156   130   128   ar
   157     9     7   ar
   158    96    97    1
   159    96    95    1
   160    91    92    1
   161   129   127   ar
   162   103   100    1
   163    10     8   ar
   164     2     1    1
   165     2     5    1
   166     7     6   ar
   167   116   113    1
   168   128   126   ar
   169     8     6   ar
   170     6     5    1
   171    95    92    1
   172    92    93    1
   173   127   125   ar
   174   135   134    2
   175   100   101    1
   176   100    99    1
   177   113   112    1
   178   113   114    1
   179   102   101    2
   180   216   215    1
   181   101   104   am
   182   126   125   ar
   183   217   215    1
   184   115   114    2
   185   125   124    1
   186   110   109    1
   187   110   111    1
   188    93    94    2
   189   134   133    1
   190   215   212    1
   191   104   105    1
   192   224   222    1
   193   138   136    1
   194   133   136    1
   195   133   132    1
   196   109   108    1
   197   105   108    1
   198   105   106    1
   199   124   121    1
   200   223   222    1
   201   136   137    1
   202   222   219    1
   203   212   213    1
   204   212   211    1
   205   107   106    2
   206   137   139    1
   207   213   214    2
   208   120   121    1
   209   121   122    1
   210   219   218    1
   211   219   220    1
   212   122   123    2
   213   220   221    2
