@<TRIPOS>MOLECULE
tmp/4eikA00.pdb
 146 147 0 0 0
SMALL
GASTEIGER

@<TRIPOS>ATOM
      1  N         32.8610   -7.8800    7.5250 N.3     8  TYR8       -0.1227
      2  CA        33.2230   -8.9690    8.4430 C.3     8  TYR8        0.1736
      3  C         34.7190   -9.0760    8.4310 C.2     8  TYR8        0.2595
      4  O         35.4020   -8.5970    7.4990 O.2     8  TYR8       -0.2718
      5  CB        32.7130  -10.3320    7.9380 C.3     8  TYR8        0.0548
      6  CG        31.2690  -10.3520    7.4870 C.ar    8  TYR8       -0.0200
      7  CD1       30.2290  -10.4240    8.4040 C.ar    8  TYR8       -0.0009
      8  CD2       30.9600  -10.2680    6.1530 C.ar    8  TYR8       -0.0009
      9  CE1       28.9130  -10.4320    7.9660 C.ar    8  TYR8        0.0417
     10  CE2       29.6690  -10.3050    5.6950 C.ar    8  TYR8        0.0417
     11  CZ        28.6470  -10.3470    6.6140 C.ar    8  TYR8        0.1957
     12  OH        27.3530  -10.3220    6.1450 O.3     8  TYR8       -0.2866
     13  N         35.2760   -9.7360    9.4370 N.am    9  ASP9       -0.1960
     14  CA        36.7000  -10.0490    9.4430 C.3     9  ASP9        0.1840
     15  C         36.9220  -11.1690    8.4460 C.2     9  ASP9        0.2622
     16  O         36.0510  -12.0300    8.2250 O.2     9  ASP9       -0.2715
     17  CB        37.1270  -10.6170   10.7980 C.3     9  ASP9        0.1450
     18  CG        37.0340   -9.6320   11.9590 C.2     9  ASP9        0.3671
     19  OD1       36.8640   -8.4270   11.7830 O.co2   9  ASP9       -0.2456
     20  OD2       37.2590  -10.1130   13.0990 O.co2   9  ASP9       -0.2456
     21  N         38.1250  -11.2040    7.8890 N.am   10  TYR10      -0.1974
     22  CA        38.5340  -12.2670    6.9540 C.3    10  TYR10       0.1639
     23  C         40.0160  -12.5530    7.0830 C.2    10  TYR10       0.2290
     24  O         40.8650  -11.6720    7.0930 O.2    10  TYR10      -0.2864
     25  CB        38.2470  -11.8430    5.4830 C.3    10  TYR10       0.0560
     26  CG        38.5810  -12.9480    4.5020 C.ar   10  TYR10      -0.0198
     27  CD1       37.8010  -14.1190    4.4870 C.ar   10  TYR10      -0.0009
     28  CD2       39.6640  -12.8240    3.6680 C.ar   10  TYR10      -0.0009
     29  CE1       38.1230  -15.1540    3.6370 C.ar   10  TYR10       0.0417
     30  CE2       39.9610  -13.8660    2.7600 C.ar   10  TYR10       0.0417
     31  CZ        39.1570  -14.9800    2.7880 C.ar   10  TYR10       0.1957
     32  OH        39.4700  -16.0810    1.9950 O.3    10  TYR10      -0.2866
     33  N         43.5860  -17.0910    2.9590 N.3    13  ARG13      -0.1231
     34  CA        44.0880  -18.4630    2.8640 C.3    13  ARG13       0.1694
     35  C         44.9970  -18.6380    1.6460 C.2    13  ARG13       0.2592
     36  O         45.4740  -19.7700    1.4090 O.2    13  ARG13      -0.2718
     37  CB        42.9650  -19.5150    2.8640 C.3    13  ARG13       0.0321
     38  CG        41.5850  -18.9980    3.2350 C.3    13  ARG13       0.0489
     39  CD        40.6440  -20.1090    3.7080 C.3    13  ARG13       0.2205
     40  NE        39.6170  -20.4980    2.7210 N.pl3  13  ARG13      -0.0865
     41  CZ        38.5810  -19.7440    2.3370 C.cat  13  ARG13       0.5346
     42  NH1       38.4560  -18.5080    2.7720 N.pl3  13  ARG13       0.1354
     43  NH2       37.6940  -20.2070    1.4600 N.pl3  13  ARG13       0.1354
     44  N         45.3390  -17.5570    0.9490 N.am   14  THR14      -0.1953
     45  CA        46.4180  -17.6060   -0.0510 C.3    14  THR14       0.1897
     46  C         47.3400  -16.4100    0.0900 C.2    14  THR14       0.2313
     47  O         46.9880  -15.4320    0.7570 O.2    14  THR14      -0.2863
     48  CB        45.9340  -17.6540   -1.5030 C.3    14  THR14       0.1794
     49  OG1       45.6400  -16.3170   -1.9520 O.3    14  THR14      -0.2208
     50  CG2       44.7390  -18.5950   -1.7460 C.3    14  THR14       0.0378
     51  N         48.0280  -14.3330   -1.9840 N.3    16  ASP16      -0.1225
     52  CA        47.5930  -13.3170   -2.9630 C.3    16  ASP16       0.1805
     53  C         46.4480  -12.5190   -2.3640 C.2    16  ASP16       0.2597
     54  O         46.0580  -11.5100   -2.9720 O.2    16  ASP16      -0.2718
     55  CB        47.0930  -13.9710   -4.2290 C.3    16  ASP16       0.1424
     56  CG        48.2330  -14.6710   -5.0120 C.2    16  ASP16       0.3668
     57  OD1       49.2260  -13.9980   -5.3720 O.co2  16  ASP16      -0.2456
     58  OD2       48.1800  -15.9040   -5.0660 O.co2  16  ASP16      -0.2456
     59  N         45.8800  -12.9850   -1.2760 N.am   17  ASP17      -0.1974
     60  CA        44.6620  -12.3440   -0.7480 C.3    17  ASP17       0.1709
     61  C         45.0470  -11.4620    0.4210 C.2    17  ASP17       0.2293
     62  O         46.0400  -11.6560    1.1050 O.2    17  ASP17      -0.2864
     63  CB        43.6760  -13.4130   -0.2760 C.3    17  ASP17       0.1436
     64  CG        43.2370  -14.3070   -1.4200 C.2    17  ASP17       0.3671
     65  OD1       43.0000  -13.7650   -2.5300 O.co2  17  ASP17      -0.2456
     66  OD2       42.9460  -15.4930   -1.2450 O.co2  17  ASP17      -0.2456
     67  N         37.1980   -8.8920  -13.3920 N.3    33  GLU33      -0.1231
     68  CA        37.5850  -10.2360  -13.8710 C.3    33  GLU33       0.1699
     69  C         36.8210  -11.3570  -13.2110 C.2    33  GLU33       0.2593
     70  O         36.7650  -12.4720  -13.7370 O.2    33  GLU33      -0.2718
     71  CB        39.0580  -10.4510  -13.6910 C.3    33  GLU33       0.0402
     72  CG        39.8410   -9.7360  -14.7860 C.3    33  GLU33       0.1161
     73  CD        41.2690   -9.4340  -14.3980 C.2    33  GLU33       0.3649
     74  OE1       41.7950  -10.0810  -13.4620 O.co2  33  GLU33      -0.2457
     75  OE2       41.8660   -8.5360  -15.0320 O.co2  33  GLU33      -0.2457
     76  N         36.1780  -11.0660  -12.0930 N.am   34  GLY34      -0.1942
     77  CA        35.4440  -12.0850  -11.3520 C.3    34  GLY34       0.2014
     78  C         34.9910  -11.5480  -10.0020 C.2    34  GLY34       0.2639
     79  O         34.9230  -10.3330   -9.7950 O.2    34  GLY34      -0.2714
     80  N         34.5950  -12.4590   -9.1110 N.am   35  ASP35      -0.1957
     81  CA        34.0180  -12.0490   -7.8610 C.3    35  ASP35       0.1840
     82  C         35.0700  -11.7830   -6.7790 C.2    35  ASP35       0.2622
     83  O         34.6460  -11.2630   -5.7320 O.2    35  ASP35      -0.2715
     84  CB        33.0470  -13.1120   -7.3480 C.3    35  ASP35       0.1450
     85  CG        31.7480  -13.1180   -8.1480 C.2    35  ASP35       0.3671
     86  OD1       31.3510  -12.0640   -8.6990 O.co2  35  ASP35      -0.2456
     87  OD2       31.1210  -14.1810   -8.1750 O.co2  35  ASP35      -0.2456
     88  N         36.3370  -12.1000   -6.9780 N.am   36  TRP36      -0.1974
     89  CA        37.4300  -11.6020   -6.1190 C.3    36  TRP36       0.1640
     90  C         37.9900  -10.4090   -6.8400 C.2    36  TRP36       0.2290
     91  O         38.2360  -10.4260   -8.0360 O.2    36  TRP36      -0.2864
     92  CB        38.5040  -12.6540   -5.9490 C.3    36  TRP36       0.0576
     93  CG        38.0310  -13.8120   -5.1060 C.ar   36  TRP36       0.0006
     94  CD1       37.2220  -14.8800   -5.5270 C.ar   36  TRP36       0.0946
     95  CD2       38.4590  -14.1410   -3.7610 C.ar   36  TRP36       0.0152
     96  NE1       37.0810  -15.8140   -4.4850 N.ar   36  TRP36      -0.2442
     97  CE2       37.7890  -15.3990   -3.3990 C.ar   36  TRP36       0.0810
     98  CE3       39.2620  -13.5030   -2.7970 C.ar   36  TRP36       0.0012
     99  CZ2       37.9610  -15.9870   -2.1430 C.ar   36  TRP36       0.0191
    100  CZ3       39.3890  -14.0840   -1.5420 C.ar   36  TRP36       0.0001
    101  CH2       38.7710  -15.3290   -1.2390 C.ar   36  TRP36       0.0015
    102  N         43.9240   -9.5340   -3.3500 N.3    49  TYR49      -0.1241
    103  CA        42.5380   -9.8050   -3.6690 C.3    49  TYR49       0.1605
    104  C         41.6460   -9.9380   -2.4190 C.2    49  TYR49       0.2264
    105  O         42.1300  -10.3260   -1.3470 O.2    49  TYR49      -0.2867
    106  CB        42.3960  -11.1570   -4.4900 C.3    49  TYR49       0.0534
    107  CG        42.8470  -10.9550   -5.9020 C.ar   49  TYR49      -0.0201
    108  CD1       41.9180  -10.6580   -6.8830 C.ar   49  TYR49      -0.0009
    109  CD2       44.1970  -10.9500   -6.1870 C.ar   49  TYR49      -0.0009
    110  CE1       42.3310  -10.4730   -8.2020 C.ar   49  TYR49       0.0417
    111  CE2       44.6220  -10.6680   -7.4850 C.ar   49  TYR49       0.0417
    112  CZ        43.6730  -10.4330   -8.4590 C.ar   49  TYR49       0.1957
    113  OH        44.0850  -10.1530   -9.7600 O.3    49  TYR49      -0.2866
    114  N         37.4030  -10.9190   -1.2490 N.3    51  PRO51      -0.2102
    115  CA        36.1700  -11.5420   -1.7010 C.3    51  PRO51       0.1504
    116  C         35.0590  -10.5180   -1.6880 C.2    51  PRO51       0.2576
    117  O         34.8130   -9.8580   -0.6410 O.2    51  PRO51      -0.2718
    118  CB        35.9760  -12.6570   -0.6350 C.3    51  PRO51       0.0282
    119  CG        36.6800  -12.2050    0.6210 C.3    51  PRO51       0.0208
    120  CD        37.7730  -11.2280    0.1570 C.3    51  PRO51       0.0893
    121  N         34.4060  -10.3260   -2.8070 N.am   52  SER52      -0.1938
    122  CA        33.4340   -9.2170   -2.9100 C.3    52  SER52       0.2055
    123  C         32.1750   -9.3540   -2.0590 C.2    52  SER52       0.2643
    124  O         31.5220   -8.3420   -1.7520 O.2    52  SER52      -0.2714
    125  CB        33.0970   -8.9470   -4.3640 C.3    52  SER52       0.2130
    126  OG        32.3680  -10.0580   -4.8840 O.3    52  SER52      -0.2179
    127  N         31.8260  -10.5710   -1.5950 N.am   53  ASN53      -0.1957
    128  CA        30.7430  -10.6880   -0.6700 C.3    53  ASN53       0.1819
    129  C         31.0210  -10.2430    0.7420 C.2    53  ASN53       0.2621
    130  O         30.0650  -10.1380    1.5180 O.2    53  ASN53      -0.2715
    131  CB        30.1900  -12.1180   -0.6290 C.3    53  ASN53       0.1195
    132  CG        31.2360  -13.1890   -0.2870 C.2    53  ASN53       0.2630
    133  OD1       32.4590  -13.0330   -0.3900 O.2    53  ASN53      -0.2716
    134  ND2       30.7010  -14.3550    0.1740 N.am   53  ASN53      -0.0877
    135  N         32.2910   -9.9230    1.0370 N.am   54  TYR54      -0.1974
    136  CA        32.6790   -9.4250    2.3670 C.3    54  TYR54       0.1639
    137  C         32.7190   -7.9020    2.4840 C.2    54  TYR54       0.2290
    138  O         33.0880   -7.4070    3.5280 O.2    54  TYR54      -0.2864
    139  CB        34.0230  -10.0120    2.8000 C.3    54  TYR54       0.0560
    140  CG        33.8870  -11.3420    3.4720 C.ar   54  TYR54      -0.0198
    141  CD1       34.4450  -11.5500    4.7080 C.ar   54  TYR54      -0.0009
    142  CD2       33.3270  -12.4160    2.7850 C.ar   54  TYR54      -0.0009
    143  CE1       34.3260  -12.8000    5.3640 C.ar   54  TYR54       0.0417
    144  CE2       33.2210  -13.6710    3.4180 C.ar   54  TYR54       0.0417
    145  CZ        33.7360  -13.8300    4.6620 C.ar   54  TYR54       0.1957
    146  OH        33.6880  -15.0550    5.3150 O.3    54  TYR54      -0.2866
@<TRIPOS>BOND
     1    75    73   ar
     2    72    73    1
     3    72    71    1
     4    73    74   ar
     5    68    71    1
     6    68    67    1
     7    68    69    1
     8    70    69    2
     9    69    76   am
    10    76    77    1
    11    77    78    1
    12    78    79    2
    13    78    80   am
    14   113   112    1
    15    80    81    1
    16    86    85   ar
    17   112   110   ar
    18   112   111   ar
    19   110   108   ar
    20    87    85   ar
    21    85    84    1
    22    91    90    2
    23    81    84    1
    24    81    82    1
    25   111   109   ar
    26    88    82   am
    27    88    89    1
    28   108   107   ar
    29    90    89    1
    30    82    83    2
    31   109   107   ar
    32    89    92    1
    33    92    93    1
    34   107   106    1
    35    94    93   ar
    36    94    96   ar
    37    57    56   ar
    38    93    95   ar
    39    58    56   ar
    40    56    55    1
    41   126   125    1
    42   106   103    1
    43    96    97   ar
    44   125   122    1
    45    55    52    1
    46    95    97   ar
    47    95    98   ar
    48   103   102    1
    49   103   104    1
    50    97    99   ar
    51    54    53    2
    52    52    53    1
    53    52    51    1
    54   122   121    1
    55   122   123    1
    56   121   116   am
    57    98   100   ar
    58    65    64   ar
    59   104   105    2
    60    53    59   am
    61    99   101   ar
    62   123   124    2
    63   123   127   am
    64    49    48    1
    65    50    48    1
    66   115   116    1
    67   115   114    1
    68   115   118    1
    69   116   117    2
    70   127   128    1
    71   100   101   ar
    72    48    45    1
    73    64    66   ar
    74    64    63    1
    75    59    60    1
    76   114   120    1
    77    60    63    1
    78    60    61    1
    79   128   131    1
    80   128   129    1
    81   118   119    1
    82   131   132    1
    83   133   132    2
    84   132   134   am
    85    45    46    1
    86    45    44    1
    87    46    47    2
    88   120   119    1
    89    61    62    2
    90   129   135   am
    91   129   130    2
    92    44    35   am
    93   135   136    1
    94    36    35    2
    95    43    41    1
    96    35    34    1
    97    32    31    1
    98    41    40    2
    99    41    42    1
   100   136   137    1
   101   136   139    1
   102   137   138    2
   103    40    39    1
   104    30    31   ar
   105    30    28   ar
   106   142   144   ar
   107   142   140   ar
   108    31    29   ar
   109   139   140    1
   110    37    34    1
   111    37    38    1
   112    34    33    1
   113    38    39    1
   114   144   145   ar
   115   140   141   ar
   116    29    27   ar
   117    28    26   ar
   118    27    26   ar
   119    26    25    1
   120   145   146    1
   121   145   143   ar
   122   141   143   ar
   123    25    22    1
   124    10     8   ar
   125    10    11   ar
   126    12    11    1
   127     8     6   ar
   128    11     9   ar
   129    22    23    1
   130    22    21    1
   131    23    24    2
   132     6     5    1
   133     6     7   ar
   134     4     3    2
   135     1     2    1
   136    21    15   am
   137     5     2    1
   138     9     7   ar
   139    16    15    2
   140     3     2    1
   141     3    13   am
   142    15    14    1
   143    13    14    1
   144    14    17    1
   145    17    18    1
   146    19    18   ar
   147    18    20   ar
