@<TRIPOS>MOLECULE
tmp/4einA00.pdb
 153 148 0 0 0
SMALL
GASTEIGER

@<TRIPOS>ATOM
      1  N        103.3050    1.1610   32.5270 N.3    23  ASP23      -0.1225
      2  CA       102.5000    0.1450   31.9210 C.3    23  ASP23       0.1805
      3  C        101.1420    0.6730   31.4750 C.2    23  ASP23       0.2597
      4  O        100.7500    1.8050   31.7680 O.2    23  ASP23      -0.2718
      5  CB       102.3410   -1.0580   32.8500 C.3    23  ASP23       0.1424
      6  CG       101.1800   -0.9180   33.8010 C.2    23  ASP23       0.3668
      7  OD1      101.1240    0.1530   34.4700 O.co2  23  ASP23      -0.2456
      8  OD2      100.3750   -1.8930   33.8880 O.co2  23  ASP23      -0.2456
      9  N        100.4430   -0.2020   30.7640 N.am   24  ARG24      -0.1979
     10  CA        99.1980    0.1060   30.0900 C.3    24  ARG24       0.1597
     11  C         98.1690    0.8310   30.9600 C.2    24  ARG24       0.2287
     12  O         97.4900    1.7280   30.4810 O.2    24  ARG24      -0.2864
     13  CB        98.6250   -1.2020   29.5580 C.3    24  ARG24       0.0334
     14  CG        97.2240   -1.1620   28.9730 C.3    24  ARG24       0.0492
     15  CD        96.7930   -2.6080   28.6100 C.3    24  ARG24       0.2205
     16  NE        96.9450   -3.5320   29.7560 N.pl3  24  ARG24      -0.0865
     17  CZ        96.0800   -3.6800   30.7700 C.cat  24  ARG24       0.5346
     18  NH1       94.9530   -2.9460   30.8320 N.pl3  24  ARG24       0.1354
     19  NH2       96.3590   -4.5330   31.7660 N.pl3  24  ARG24       0.1354
     20  N         87.9000  -22.2090   36.7670 N.3    61  GLU61      -0.1245
     21  CA        88.3610  -21.5670   35.5410 C.3    61  GLU61       0.1567
     22  C         88.8310  -22.6250   34.5520 C.2    61  GLU61       0.2260
     23  O         88.6210  -22.5420   33.3540 O.2    61  GLU61      -0.2867
     24  CB        89.4700  -20.5250   35.8510 C.3    61  GLU61       0.0388
     25  CG        89.8790  -19.7240   34.5910 C.3    61  GLU61       0.1160
     26  CD        91.1680  -18.9630   34.6790 C.2    61  GLU61       0.3649
     27  OE1       92.1380  -19.6520   35.0210 O.co2  61  GLU61      -0.2457
     28  OE2       91.2530  -17.7470   34.3370 O.co2  61  GLU61      -0.2457
     29  N         86.5720  -13.2090   35.6170 N.3    83  TRP83      -0.1241
     30  CA        86.4840  -12.7420   34.2640 C.3    83  TRP83       0.1605
     31  C         85.2840  -11.8000   33.9970 C.2    83  TRP83       0.2264
     32  O         85.1300  -11.3300   32.9000 O.2    83  TRP83      -0.2867
     33  CB        86.3860  -13.9170   33.3180 C.3    83  TRP83       0.0550
     34  CG        87.6480  -14.6730   33.0770 C.ar   83  TRP83       0.0003
     35  CD1       88.1550  -15.6910   33.8120 C.ar   83  TRP83       0.0946
     36  CD2       88.5050  -14.5220   31.9510 C.ar   83  TRP83       0.0152
     37  NE1       89.3840  -16.1340   33.2580 N.ar   83  TRP83      -0.2442
     38  CE2       89.6000  -15.3930   32.1170 C.ar   83  TRP83       0.0810
     39  CE3       88.5230  -13.6240   30.8570 C.ar   83  TRP83       0.0012
     40  CZ2       90.6170  -15.4680   31.1670 C.ar   83  TRP83       0.0191
     41  CZ3       89.5360  -13.6900   29.9610 C.ar   83  TRP83       0.0001
     42  CH2       90.5800  -14.5940   30.1040 C.ar   83  TRP83       0.0015
     43  N         90.7220  -18.3060   25.7050 N.3   109  TYR109     -0.1241
     44  CA        91.3130  -19.6120   25.8470 C.3   109  TYR109      0.1605
     45  C         90.4640  -20.8020   25.4620 C.2   109  TYR109      0.2264
     46  O         90.8720  -21.7110   24.7280 O.2   109  TYR109     -0.2867
     47  CB        91.6890  -19.8170   27.2990 C.3   109  TYR109      0.0534
     48  CG        92.8050  -18.8860   27.7590 C.ar  109  TYR109     -0.0201
     49  CD1       94.1530  -19.1230   27.3560 C.ar  109  TYR109     -0.0009
     50  CD2       92.5460  -17.8530   28.5920 C.ar  109  TYR109     -0.0009
     51  CE1       95.1690  -18.2970   27.7520 C.ar  109  TYR109      0.0417
     52  CE2       93.5790  -17.0120   29.0250 C.ar  109  TYR109      0.0417
     53  CZ        94.8880  -17.2700   28.5950 C.ar  109  TYR109      0.1957
     54  OH        95.8540  -16.4280   29.0610 O.3   109  TYR109     -0.2866
     55  N         90.4980   -9.4040   25.9040 N.3   166  LEU166     -0.1231
     56  CA        91.8710   -9.0450   26.2000 C.3   166  LEU166      0.1678
     57  C         92.8050  -10.1620   25.7230 C.2   166  LEU166      0.2434
     58  O         92.4000  -11.2940   25.5770 O.2   166  LEU166     -0.2733
     59  CB        92.0500   -8.7320   27.6620 C.3   166  LEU166      0.0284
     60  CG        91.8920   -9.8380   28.6580 C.3   166  LEU166      0.0019
     61  CD1       91.9470   -9.2400   30.1220 C.3   166  LEU166      0.0001
     62  CD2       90.5360  -10.4850   28.3850 C.3   166  LEU166      0.0001
     63  N         94.0550   -9.8220   25.4520 N.am  167  PRO167     -0.2729
     64  CA        94.9340  -10.8420   24.8720 C.3   167  PRO167      0.1401
     65  C         95.4640  -11.7610   25.9850 C.2   167  PRO167      0.2269
     66  O         95.7010  -11.3200   27.1000 O.2   167  PRO167     -0.2865
     67  CB        96.0590  -10.0390   24.2170 C.3   167  PRO167      0.0296
     68  CG        96.0030   -8.7030   24.8360 C.3   167  PRO167      0.0237
     69  CD        94.6260   -8.4670   25.3770 C.3   167  PRO167      0.0939
     70  N         97.4690  -13.8130   28.6150 N.3   169  CYS169     -0.1221
     71  CA        98.7990  -13.7630   29.2900 C.3   169  CYS169      0.1808
     72  C         99.5730  -15.0580   29.0430 C.2   169  CYS169      0.2601
     73  O        100.8270  -15.0440   29.0810 O.2   169  CYS169     -0.2717
     74  CB        98.7110  -13.5110   30.7880 C.3   169  CYS169      0.0970
     75  SG        98.1790  -11.8510   31.0880 S.3   169  CYS169     -0.0800
     76  N         98.8530  -16.1920   28.8960 N.am  170  HIS170     -0.1975
     77  CA        99.4780  -17.4930   28.7670 C.3   170  HIS170      0.1656
     78  C         99.4970  -17.9070   27.2940 C.2   170  HIS170      0.2291
     79  O         98.4880  -18.4760   26.7630 O.2   170  HIS170     -0.2864
     80  CB        98.7150  -18.4760   29.6280 C.3   170  HIS170      0.0771
     81  CG        98.6200  -18.0190   31.0280 C.ar  170  HIS170      0.0820
     82  ND1       97.4340  -17.7810   31.6850 N.ar  170  HIS170     -0.2267
     83  CD2       99.6020  -17.6260   31.8790 C.ar  170  HIS170      0.1154
     84  CE1       97.6980  -17.2700   32.8860 C.ar  170  HIS170      0.1986
     85  NE2       99.0070  -17.1530   33.0130 N.ar  170  HIS170     -0.2212
     86  N        104.5360  -17.6030   29.6890 N.3   188  GLN188     -0.1182
     87  CA       103.6130  -16.5480   30.1420 C.3   188  GLN188      0.1914
     88  C        104.2230  -15.1980   29.7830 C.2   188  GLN188      0.2634
     89  O        105.2880  -14.8790   30.3140 O.2   188  GLN188     -0.2714
     90  CB       103.3770  -16.6410   31.6550 C.2   188  GLN188      0.0065
     91  CG       102.6010  -15.5050   32.3130 C.2   188  GLN188      0.0585
     92  CD       102.1150  -15.7370   33.7000 C.2   188  GLN188      0.2840
     93  OE1      102.3340  -16.8100   34.3160 O.2   188  GLN188     -0.2667
     94  NE2      101.3780  -14.6940   34.2680 N.am  188  GLN188     -0.0837
     95  N        103.5870  -14.4390   28.9110 N.am  189  ARG189     -0.1963
     96  CA       104.1650  -13.2360   28.3000 C.3   189  ARG189      0.1729
     97  C        104.2600  -12.0880   29.3060 C.2   189  ARG189      0.2616
     98  O        105.0890  -11.1660   29.1060 O.2   189  ARG189     -0.2715
     99  CB       103.3440  -12.8380   27.0850 C.3   189  ARG189      0.0348
    100  CG       101.9810  -12.3210   27.3880 C.3   189  ARG189      0.0492
    101  CD       101.3050  -11.6090   26.2330 C.3   189  ARG189      0.2205
    102  NE        99.9590  -11.2680   26.6240 N.pl3 189  ARG189     -0.0865
    103  CZ        99.6310  -10.2620   27.4290 C.cat 189  ARG189      0.5346
    104  NH1      100.5420   -9.3670   27.8030 N.pl3 189  ARG189      0.1354
    105  NH2       98.3690  -10.0890   27.8230 N.pl3 189  ARG189      0.1354
    106  N        103.4320  -12.1600   30.3320 N.am  190  SER190     -0.1950
    107  CA       103.2200  -11.0270   31.2870 C.3   190  SER190      0.1924
    108  C        102.7000  -11.6010   32.5900 C.2   190  SER190      0.2314
    109  O        101.6980  -12.3290   32.6120 O.2   190  SER190     -0.2863
    110  CB       102.2210  -10.0310   30.6500 C.3   190  SER190      0.2116
    111  OG       101.9750   -8.9430   31.4900 O.3   190  SER190     -0.2180
    112  N        101.9020  -10.6900   36.7370 N.3   192  ASP192     -0.1239
    113  CA       101.7540   -9.8830   37.9620 C.3   192  ASP192      0.1674
    114  C        102.1670  -10.7590   39.0910 C.2   192  ASP192      0.2266
    115  O        101.4400  -11.6600   39.5100 O.2   192  ASP192     -0.2867
    116  CB       100.2790   -9.4680   38.0240 C.3   192  ASP192      0.1410
    117  CG        99.8990   -8.6580   39.2370 C.2   192  ASP192      0.3668
    118  OD1      100.6040   -8.6520   40.2180 O.co2 192  ASP192     -0.2456
    119  OD2       98.8250   -7.9710   39.1030 O.co2 192  ASP192     -0.2456
    120  N         98.6290  -12.3190   40.1950 N.3   196  GLY196     -0.1225
    121  CA        98.3420  -13.3400   39.1810 C.3   196  GLY196      0.1811
    122  C         99.1660  -14.6020   39.2040 C.2   196  GLY196      0.2280
    123  O         98.6330  -15.6920   39.1190 O.2   196  GLY196     -0.2866
    124  N         98.3410  -18.5910   38.4890 N.3   200  ASN200     -0.1240
    125  CA        98.7140  -19.1260   37.1490 C.3   200  ASN200      0.1653
    126  C         99.5570  -20.4200   37.3260 C.2   200  ASN200      0.2266
    127  O         99.3870  -21.3860   36.6100 O.2   200  ASN200     -0.2867
    128  CB        99.5380  -18.0520   36.4400 C.3   200  ASN200      0.1155
    129  CG        98.8020  -16.7170   36.2330 C.2   200  ASN200      0.2627
    130  OD1       99.4410  -15.6760   36.2030 O.2   200  ASN200     -0.2716
    131  ND2       97.4180  -16.7390   36.0610 N.am  200  ASN200     -0.0877
    132  N        106.6130   -8.7480   36.5930 N.3   230  HIS230     -0.1241
    133  CA       106.5160   -7.3910   37.2440 C.3   230  HIS230      0.1621
    134  C        105.8230   -7.3790   38.5570 C.2   230  HIS230      0.2264
    135  O        104.9780   -8.2150   38.8930 O.2   230  HIS230     -0.2867
    136  CB       105.9250   -6.4090   36.2590 C.3   230  HIS230      0.0745
    137  CG       104.5780   -6.8470   35.6920 C.ar  230  HIS230      0.0817
    138  ND1      104.4540   -7.5140   34.4850 N.ar  230  HIS230     -0.2268
    139  CD2      103.3260   -6.6840   36.1580 C.ar  230  HIS230      0.1154
    140  CE1      103.1710   -7.7510   34.2560 C.ar  230  HIS230      0.1986
    141  NE2      102.4700   -7.2650   35.2660 N.ar  230  HIS230     -0.2212
    142  N        103.5810   -4.5580   40.7180 N.3   232  TYR232     -0.1241
    143  CA       102.9780   -3.2300   40.7180 C.3   232  TYR232      0.1605
    144  C        103.5150   -2.4520   41.9420 C.2   232  TYR232      0.2264
    145  O        103.7960   -2.9970   42.9970 O.2   232  TYR232     -0.2867
    146  CB       101.4750   -3.2750   40.6520 C.3   232  TYR232      0.0534
    147  CG       100.9780   -3.6160   39.2480 C.ar  232  TYR232     -0.0201
    148  CD1      100.8990   -2.6410   38.2510 C.ar  232  TYR232     -0.0009
    149  CD2      100.5990   -4.9170   38.9110 C.ar  232  TYR232     -0.0009
    150  CE1      100.4620   -2.9470   36.9610 C.ar  232  TYR232      0.0417
    151  CE2      100.1390   -5.2210   37.6100 C.ar  232  TYR232      0.0417
    152  CZ       100.0730   -4.2370   36.6400 C.ar  232  TYR232      0.1957
    153  OH        99.6260   -4.5510   35.3640 O.3   232  TYR232     -0.2866
@<TRIPOS>BOND
     1    67    68    1
     2    67    64    1
     3    46    45    2
     4    68    69    1
     5    64    63    1
     6    64    65    1
     7    69    63    1
     8    63    57   am
     9    45    44    1
    10    58    57    2
    11    43    44    1
    12    57    56    1
    13    44    47    1
    14    55    56    1
    15    65    66    2
    16    56    59    1
    17   101   102    1
    18   101   100    1
    19   102   103    2
    20    79    78    2
    21    99   100    1
    22    99    96    1
    23    78    77    1
    24    47    48    1
    25    49    51   ar
    26    49    48   ar
    27   103   104    1
    28   103   105    1
    29    59    60    1
    30    51    53   ar
    31    48    50   ar
    32    96    95    1
    33    96    97    1
    34    62    60    1
    35    50    52   ar
    36    53    52   ar
    37    53    54    1
    38    15    14    1
    39    15    16    1
    40    70    71    1
    41    60    61    1
    42    77    76    1
    43    77    80    1
    44    76    72   am
    45    95    88   am
    46    14    13    1
    47    72    73    2
    48    72    71    1
    49    98    97    2
    50    71    74    1
    51    97   106   am
    52    13    10    1
    53    80    81    1
    54    86    87    1
    55    16    17    2
    56    88    87    1
    57    88    89    2
    58    41    42   ar
    59    41    39   ar
    60    10     9    1
    61    10    11    1
    62    42    40   ar
    63    87    90    1
    64   106   107    1
    65    12    11    2
    66   110   107    1
    67   110   111    1
    68     9     3   am
    69    17    18    1
    70    17    19    1
    71    74    75    1
    72    39    36   ar
    73    81    82   ar
    74    81    83   ar
    75    40    38   ar
    76   107   108    1
    77     3     4    2
    78     3     2    1
    79    90    91    2
    80    82    84   ar
    81    83    85   ar
    82     2     1    1
    83     2     5    1
    84    36    38   ar
    85    36    34   ar
    86    38    37   ar
    87    91    92    1
    88   108   109    2
    89     5     6    1
    90    84    85   ar
    91    32    31    2
    92    34    33    1
    93    34    35   ar
    94    37    35   ar
    95    33    30    1
    96    23    22    2
    97    92    94   am
    98    92    93    2
    99     6     8   ar
   100     6     7   ar
   101    31    30    1
   102   140   138   ar
   103   140   141   ar
   104    30    29    1
   105    28    26   ar
   106   138   137   ar
   107    22    21    1
   108    25    26    1
   109    25    24    1
   110    26    27   ar
   111   141   139   ar
   112   153   152    1
   113    21    24    1
   114    21    20    1
   115   137   139   ar
   116   137   136    1
   117   131   129   am
   118   130   129    2
   119   129   128    1
   120   136   133    1
   121   128   125    1
   122   132   133    1
   123   127   126    2
   124   152   150   ar
   125   152   151   ar
   126   112   113    1
   127   150   148   ar
   128   125   126    1
   129   125   124    1
   130   133   134    1
   131   151   149   ar
   132   113   116    1
   133   113   114    1
   134   116   117    1
   135   148   147   ar
   136   134   135    2
   137   149   147   ar
   138   114   115    2
   139   119   117   ar
   140   123   122    2
   141   121   122    1
   142   121   120    1
   143   117   118   ar
   144   147   146    1
   145   146   143    1
   146   142   143    1
   147   143   144    1
   148   144   145    2
