@<TRIPOS>MOLECULE
tmp/4eipA00.pdb
 202 195 0 0 0
SMALL
GASTEIGER

@<TRIPOS>ATOM
      1  N        -12.2560   21.0830   41.5370 N.3    43  LYS43      -0.1231
      2  CA       -11.0010   20.3770   41.3090 C.3    43  LYS43       0.1693
      3  C        -10.2740   20.0780   42.6190 C.2    43  LYS43       0.2592
      4  O        -10.1910   18.9240   43.0410 O.2    43  LYS43      -0.2718
      5  CB       -10.0970   21.1830   40.3670 C.3    43  LYS43       0.0285
      6  CG       -10.5960   22.5980   40.0570 C.3    43  LYS43       0.0035
      7  CD       -10.2800   23.5830   41.1770 C.3    43  LYS43       0.0206
      8  CE       -10.6950   25.0010   40.8070 C.3    43  LYS43       0.1093
      9  NZ       -10.4380   25.9700   41.9170 N.3    43  LYS43      -0.1314
     10  N         -9.7540   21.1260   43.2540 N.am   44  VAL44      -0.1966
     11  CA        -8.9930   20.9960   44.4960 C.3    44  VAL44       0.1727
     12  C         -9.8440   20.8970   45.7560 C.2    44  VAL44       0.2617
     13  O        -10.9280   21.4780   45.8360 O.2    44  VAL44      -0.2715
     14  CB        -8.1810   22.2710   44.7850 C.3    44  VAL44       0.0290
     15  CG1       -7.5940   22.8140   43.5000 C.3    44  VAL44       0.0023
     16  CG2       -9.0600   23.3290   45.4500 C.3    44  VAL44       0.0023
     17  N         -9.3390   20.1730   46.7500 N.am   45  SER45      -0.1936
     18  CA       -10.0880   19.9700   47.9840 C.3    45  SER45       0.2055
     19  C         -9.2750   20.0440   49.2700 C.2    45  SER45       0.2643
     20  O         -9.8330   20.2880   50.3370 O.2    45  SER45      -0.2714
     21  CB       -10.6910   18.5750   47.8390 C.3    45  SER45       0.2130
     22  OG        -9.6690   17.6080   47.6530 O.3    45  SER45      -0.2179
     23  N         -7.9630   19.8350   49.1720 N.am   46  THR46      -0.1950
     24  CA        -7.1110   19.7890   50.3590 C.3    46  THR46       0.1897
     25  C         -6.3050   21.0660   50.5390 C.2    46  THR46       0.2313
     26  O         -5.5870   21.4940   49.6410 O.2    46  THR46      -0.2863
     27  CB        -6.1320   18.5920   50.3330 C.3    46  THR46       0.1794
     28  OG1       -6.8690   17.3630   50.3460 O.3    46  THR46      -0.2208
     29  CG2       -5.2250   18.6290   51.5540 C.3    46  THR46       0.0378
     30  N         -5.1360   13.2010   31.3840 N.3   192  PHE192     -0.1241
     31  CA        -6.0900   12.4950   32.2380 C.3   192  PHE192      0.1605
     32  C         -7.5030   13.0200   32.0330 C.2   192  PHE192      0.2264
     33  O         -7.7030   14.0960   31.4690 O.2   192  PHE192     -0.2867
     34  CB        -5.7390   12.6690   33.7150 C.3   192  PHE192      0.0534
     35  CG        -4.4430   12.0370   34.1190 C.ar  192  PHE192     -0.0203
     36  CD1       -3.2670   12.7660   34.0880 C.ar  192  PHE192     -0.0042
     37  CD2       -4.4040   10.7230   34.5510 C.ar  192  PHE192     -0.0042
     38  CE1       -2.0750   12.1930   34.4700 C.ar  192  PHE192     -0.0003
     39  CE2       -3.2130   10.1430   34.9330 C.ar  192  PHE192     -0.0003
     40  CZ        -2.0450   10.8800   34.8920 C.ar  192  PHE192     -0.0000
     41  N        -11.1080   13.8600   34.3340 N.3   194  ASN194     -0.1240
     42  CA       -11.7550   13.9920   35.6310 C.3   194  ASN194      0.1653
     43  C        -13.2450   13.6920   35.5090 C.2   194  ASN194      0.2266
     44  O        -13.9760   14.4220   34.8380 O.2   194  ASN194     -0.2867
     45  CB       -11.5770   15.4060   36.1920 C.3   194  ASN194      0.1155
     46  CG       -10.2820   15.5790   36.9720 C.2   194  ASN194      0.2627
     47  OD1       -9.7590   14.6340   37.5680 O.2   194  ASN194     -0.2716
     48  ND2       -9.7620   16.8060   36.9780 N.am  194  ASN194     -0.0877
     49  N         -9.3380    9.2690   50.1000 N.3   213  VAL213     -0.1245
     50  CA        -8.9090    8.9260   48.7470 C.3   213  VAL213      0.1561
     51  C         -8.5790    7.4380   48.5790 C.2   213  VAL213      0.2260
     52  O         -7.8680    6.8490   49.3910 O.2   213  VAL213     -0.2867
     53  CB        -7.6910    9.7860   48.2850 C.3   213  VAL213      0.0252
     54  CG1       -6.6170    9.8230   49.3550 C.3   213  VAL213      0.0019
     55  CG2       -7.1140    9.2480   46.9800 C.3   213  VAL213      0.0019
     56  N         -6.6770    4.8470   45.9560 N.3   215  PHE215     -0.1241
     57  CA        -5.8760    4.5760   44.7720 C.3   215  PHE215      0.1605
     58  C         -6.3130    3.2400   44.1980 C.2   215  PHE215      0.2264
     59  O         -6.1640    2.2030   44.8430 O.2   215  PHE215     -0.2867
     60  CB        -4.3870    4.5300   45.1120 C.3   215  PHE215      0.0534
     61  CG        -3.7210    5.8810   45.1270 C.ar  215  PHE215     -0.0203
     62  CD1       -3.6520    6.6230   46.2930 C.ar  215  PHE215     -0.0042
     63  CD2       -3.1580    6.4030   43.9710 C.ar  215  PHE215     -0.0042
     64  CE1       -3.0370    7.8630   46.3070 C.ar  215  PHE215     -0.0003
     65  CE2       -2.5370    7.6440   43.9770 C.ar  215  PHE215     -0.0003
     66  CZ        -2.4780    8.3750   45.1490 C.ar  215  PHE215     -0.0000
     67  N         -5.3960    5.3090   39.4500 N.3   224  PHE224     -0.1228
     68  CA        -5.3120    6.6770   39.9220 C.3   224  PHE224      0.1721
     69  C         -6.3630    6.9610   41.0020 C.2   224  PHE224      0.2437
     70  O         -7.2090    6.1100   41.2770 O.2   224  PHE224     -0.2733
     71  CB        -5.4230    7.6040   38.7090 C.3   224  PHE224      0.0547
     72  CG        -4.4010    7.3080   37.6460 C.ar  224  PHE224     -0.0202
     73  CD1       -3.0490    7.4800   37.9050 C.ar  224  PHE224     -0.0042
     74  CD2       -4.7860    6.8310   36.4030 C.ar  224  PHE224     -0.0042
     75  CE1       -2.1000    7.1980   36.9390 C.ar  224  PHE224     -0.0003
     76  CE2       -3.8430    6.5500   35.4310 C.ar  224  PHE224     -0.0003
     77  CZ        -2.4990    6.7380   35.6970 C.ar  224  PHE224     -0.0000
     78  N         -6.2950    8.1420   41.6440 N.am  225  PRO225     -0.2729
     79  CA        -7.1980    8.3380   42.7830 C.3   225  PRO225      0.1401
     80  C         -8.6820    8.4950   42.4540 C.2   225  PRO225      0.2269
     81  O         -9.0440    9.0620   41.4240 O.2   225  PRO225     -0.2865
     82  CB        -6.6720    9.6230   43.4320 C.3   225  PRO225      0.0296
     83  CG        -5.8750   10.2920   42.3730 C.3   225  PRO225      0.0237
     84  CD        -5.2720    9.2030   41.5760 C.3   225  PRO225      0.0939
     85  N        -11.5640   10.1980   44.8110 N.3   227  ARG227     -0.1245
     86  CA       -11.6340   10.8880   46.0910 C.3   227  ARG227      0.1563
     87  C        -13.0290   11.3580   46.5050 C.2   227  ARG227      0.2260
     88  O        -13.8600   11.7150   45.6750 O.2   227  ARG227     -0.2867
     89  CB       -10.6100   12.0280   46.1540 C.3   227  ARG227      0.0307
     90  CG       -11.1490   13.3980   45.8310 C.3   227  ARG227      0.0489
     91  CD       -10.3690   14.4710   46.5920 C.3   227  ARG227      0.2205
     92  NE        -8.9790   14.0780   46.8170 N.pl3 227  ARG227     -0.0865
     93  CZ        -8.2380   14.5120   47.8340 C.cat 227  ARG227      0.5346
     94  NH1       -8.7530   15.3620   48.7130 N.pl3 227  ARG227      0.1354
     95  NH2       -6.9850   14.0980   47.9720 N.pl3 227  ARG227      0.1354
     96  N        -14.8540   12.2800   42.8710 N.3   236  ASN236     -0.1240
     97  CA       -14.1510   12.4620   41.6070 C.3   236  ASN236      0.1653
     98  C        -13.2470   11.2750   41.2780 C.2   236  ASN236      0.2266
     99  O        -12.4610   10.8330   42.1200 O.2   236  ASN236     -0.2867
    100  CB       -13.3170   13.7470   41.6280 C.3   236  ASN236      0.1155
    101  CG       -12.6190   14.0060   40.3040 C.2   236  ASN236      0.2627
    102  OD1      -13.2270   14.5100   39.3600 O.2   236  ASN236     -0.2716
    103  ND2      -11.3410   13.6490   40.2230 N.am  236  ASN236     -0.0877
    104  N        -10.2320    9.7730   38.7690 N.3   238  VAL238     -0.1245
    105  CA        -9.1850   10.1240   37.8100 C.3   238  VAL238      0.1561
    106  C         -8.9210    8.9680   36.8590 C.2   238  VAL238      0.2260
    107  O         -8.5980    7.8700   37.2930 O.2   238  VAL238     -0.2867
    108  CB        -7.8600   10.4990   38.5060 C.3   238  VAL238      0.0252
    109  CG1       -6.8050   10.8460   37.4710 C.3   238  VAL238      0.0019
    110  CG2       -8.0680   11.6600   39.4730 C.3   238  VAL238      0.0019
    111  N         -7.8700   17.0140   31.2240 N.3   268  TRP268     -0.1241
    112  CA        -6.8930   17.9660   31.7410 C.3   268  TRP268      0.1605
    113  C         -5.4720   17.4790   31.4970 C.2   268  TRP268      0.2264
    114  O         -5.2280   16.2800   31.3570 O.2   268  TRP268     -0.2867
    115  CB        -7.1240   18.2700   33.2300 C.3   268  TRP268      0.0550
    116  CG        -7.0040   17.0760   34.1470 C.ar  268  TRP268      0.0003
    117  CD1       -7.9520   16.1120   34.3670 C.ar  268  TRP268      0.0946
    118  CD2       -5.8900   16.7400   34.9880 C.ar  268  TRP268      0.0152
    119  NE1       -7.4880   15.1910   35.2780 N.ar  268  TRP268     -0.2442
    120  CE2       -6.2280   15.5530   35.6770 C.ar  268  TRP268      0.0810
    121  CE3       -4.6400   17.3200   35.2190 C.ar  268  TRP268      0.0012
    122  CZ2       -5.3600   14.9370   36.5800 C.ar  268  TRP268      0.0191
    123  CZ3       -3.7780   16.7060   36.1160 C.ar  268  TRP268      0.0001
    124  CH2       -4.1410   15.5270   36.7840 C.ar  268  TRP268      0.0015
    125  N         -1.5640   17.1500   32.7470 N.3   270  LEU270     -0.1245
    126  CA        -0.6300   17.1910   33.8540 C.3   270  LEU270      0.1561
    127  C          0.6980   17.7350   33.3320 C.2   270  LEU270      0.2260
    128  O          1.3450   17.1080   32.4920 O.2   270  LEU270     -0.2867
    129  CB        -0.4600   15.7980   34.4590 C.3   270  LEU270      0.0270
    130  CG         0.4960   15.7100   35.6470 C.3   270  LEU270      0.0019
    131  CD1        0.3040   16.9310   36.4930 C.3   270  LEU270      0.0001
    132  CD2        0.2390   14.4520   36.4660 C.3   270  LEU270      0.0001
    133  N          2.7110   18.6140   39.3890 N.3   294  SER294     -0.1203
    134  CA         1.8300   17.4660   39.5910 C.3   294  SER294      0.2005
    135  C          1.0410   17.5990   40.8960 C.2   294  SER294      0.2461
    136  O          1.6110   17.9310   41.9320 O.2   294  SER294     -0.2732
    137  CB         2.6570   16.1720   39.5920 C.3   294  SER294      0.2103
    138  OG         1.8400   15.0130   39.6260 O.3   294  SER294     -0.2182
    139  N         -0.2760   17.3410   40.8480 N.am  295  PRO295     -0.2717
    140  CA        -1.1180   17.4130   42.0490 C.3   295  PRO295      0.1536
    141  C         -0.8640   16.2670   43.0320 C.2   295  PRO295      0.2599
    142  O         -1.4170   16.2820   44.1320 O.2   295  PRO295     -0.2715
    143  CB        -2.5380   17.3140   41.4800 C.3   295  PRO295      0.0310
    144  CG        -2.3770   16.5230   40.2360 C.3   295  PRO295      0.0237
    145  CD        -1.0620   16.9750   39.6570 C.3   295  PRO295      0.0939
    146  N         -0.0510   15.2880   42.6390 N.am  296  SER296     -0.1936
    147  CA         0.2880   14.1720   43.5250 C.3   296  SER296      0.2055
    148  C          1.0320   14.6700   44.7630 C.2   296  SER296      0.2644
    149  O          2.2580   14.7990   44.7570 O.2   296  SER296     -0.2714
    150  CB         1.1170   13.1130   42.7850 C.3   296  SER296      0.2130
    151  OG         2.2100   13.6930   42.0860 O.3   296  SER296     -0.2179
    152  N          0.2760   14.9550   45.8190 N.am  297  GLY297     -0.1939
    153  CA         0.8280   15.5290   47.0360 C.3   297  GLY297      0.2014
    154  C          0.0580   16.7600   47.4850 C.2   297  GLY297      0.2639
    155  O          0.0900   17.1270   48.6580 O.2   297  GLY297     -0.2714
    156  N         -0.6460   17.3900   46.5480 N.am  298  GLY298     -0.1954
    157  CA        -1.3790   18.6120   46.8260 C.3   298  GLY298      0.1869
    158  C         -0.4890   19.8210   47.0770 C.2   298  GLY298      0.2309
    159  O         -0.7740   20.6260   47.9630 O.2   298  GLY298     -0.2863
    160  N          6.3620   11.5210   43.7710 N.3   349  ASN349     -0.1225
    161  CA         5.1090   10.8750   44.1610 C.3   349  ASN349      0.1785
    162  C          4.4150   10.2940   42.9400 C.2   349  ASN349      0.2597
    163  O          3.9120    9.1730   42.9750 O.2   349  ASN349     -0.2718
    164  CB         4.1700   11.8590   44.8740 C.3   349  ASN349      0.1169
    165  CG         4.6960   12.2950   46.2330 C.2   349  ASN349      0.2627
    166  OD1        5.2830   11.5030   46.9700 O.2   349  ASN349     -0.2716
    167  ND2        4.4830   13.5640   46.5700 N.am  349  ASN349     -0.0877
    168  N          4.4050   11.0680   41.8580 N.am  350  LEU350     -0.1980
    169  CA         3.8090   10.6410   40.5970 C.3   350  LEU350      0.1596
    170  C          4.4770    9.3800   40.0390 C.2   350  LEU350      0.2287
    171  O          3.7970    8.4090   39.6990 O.2   350  LEU350     -0.2864
    172  CB         3.8720   11.7740   39.5720 C.3   350  LEU350      0.0297
    173  CG         3.3270   11.4730   38.1730 C.3   350  LEU350      0.0022
    174  CD1        1.8640   11.0690   38.2460 C.3   350  LEU350      0.0001
    175  CD2        3.5210   12.6730   37.2460 C.3   350  LEU350      0.0001
    176  N          3.6800    5.9640   41.5330 N.3   353  THR353     -0.1218
    177  CA         2.4620    5.3560   41.0130 C.3   353  THR353      0.1862
    178  C          2.6590    4.8170   39.5960 C.2   353  THR353      0.2287
    179  O          2.2500    3.7010   39.2950 O.2   353  THR353     -0.2866
    180  CB         1.2740    6.3550   41.0480 C.3   353  THR353      0.1770
    181  OG1        0.8450    6.5360   42.4040 O.3   353  THR353     -0.2211
    182  CG2        0.0970    5.8480   40.2110 C.3   353  THR353      0.0375
    183  N          3.5980   10.8180   50.2760 N.3   388  GLU388     -0.1231
    184  CA         2.6460   11.6000   49.4970 C.3   388  GLU388      0.1699
    185  C          1.5830   12.2290   50.4000 C.2   388  GLU388      0.2592
    186  O          0.9960   13.2560   50.0620 O.2   388  GLU388     -0.2718
    187  CB         1.9830   10.7280   48.4230 C.3   388  GLU388      0.0402
    188  CG         1.0880   11.5050   47.4620 C.3   388  GLU388      0.1161
    189  CD         0.6280   10.6780   46.2770 C.2   388  GLU388      0.3649
    190  OE1        1.2070    9.5930   46.0390 O.co2 388  GLU388     -0.2457
    191  OE2       -0.3090   11.1170   45.5780 O.co2 388  GLU388     -0.2457
    192  N          1.3500   11.6150   51.5560 N.am  389  PHE389     -0.1976
    193  CA         0.2910   12.0680   52.4530 C.3   389  PHE389      0.1639
    194  C          0.7990   12.6260   53.7820 C.2   389  PHE389      0.2290
    195  O          0.0260   13.1440   54.5800 O.2   389  PHE389     -0.2864
    196  CB        -0.7330   10.9500   52.6640 C.3   389  PHE389      0.0560
    197  CG        -1.4860   10.6010   51.4160 C.ar  389  PHE389     -0.0200
    198  CD1       -2.6190   11.3150   51.0570 C.ar  389  PHE389     -0.0042
    199  CD2       -1.0380    9.5930   50.5780 C.ar  389  PHE389     -0.0042
    200  CE1       -3.3040   11.0140   49.8960 C.ar  389  PHE389     -0.0003
    201  CE2       -1.7210    9.2870   49.4120 C.ar  389  PHE389     -0.0003
    202  CZ        -2.8570    9.9980   49.0710 C.ar  389  PHE389     -0.0000
@<TRIPOS>BOND
     1   111   112    1
     2   114   113    2
     3    30    31    1
     4    33    32    2
     5   113   112    1
     6   112   115    1
     7    32    31    1
     8    31    34    1
     9   128   127    2
    10   125   126    1
    11   115   116    1
    12   127   126    1
    13    34    35    1
    14   126   129    1
    15    36    35   ar
    16    36    38   ar
    17    35    37   ar
    18   116   117   ar
    19   116   118   ar
    20    41    42    1
    21   117   119   ar
    22   129   130    1
    23    38    40   ar
    24    37    39   ar
    25    44    43    2
    26    40    39   ar
    27   118   121   ar
    28   118   120   ar
    29   121   123   ar
    30   119   120   ar
    31    76    77   ar
    32    76    74   ar
    33    43    42    1
    34    42    45    1
    35   130   132    1
    36   130   131    1
    37   120   122   ar
    38    77    75   ar
    39   123   124   ar
    40    45    46    1
    41    74    72   ar
    42   122   124   ar
    43   106   107    2
    44   106   105    1
    45    75    73   ar
    46    46    48   am
    47    46    47    2
    48   175   173    1
    49   109   108    1
    50    72    73   ar
    51    72    71    1
    52   105   108    1
    53   105   104    1
    54   173   174    1
    55   173   172    1
    56   108   110    1
    57    71    68    1
    58   179   178    2
    59   102   101    2
    60   133   134    1
    61    67    68    1
    62   172   169    1
    63   134   137    1
    64   134   135    1
    65   137   138    1
    66   178   177    1
    67   145   144    1
    68   145   139    1
    69   171   170    2
    70    68    69    1
    71   170   169    1
    72     6     5    1
    73     6     7    1
    74   182   180    1
    75   103   101   am
    76   144   143    1
    77   101   100    1
    78     5     2    1
    79   169   168    1
    80     8     7    1
    81     8     9    1
    82   139   135   am
    83   139   140    1
    84   135   136    2
    85    69    70    2
    86    69    78   am
    87   177   180    1
    88   177   176    1
    89   180   181    1
    90    98    97    1
    91    98    99    2
    92     2     1    1
    93     2     3    1
    94    81    80    2
    95   143   140    1
    96    84    78    1
    97    84    83    1
    98    97   100    1
    99    97    96    1
   100    78    79    1
   101   168   162   am
   102   140   141    1
   103   151   150    1
   104    83    82    1
   105    80    79    1
   106     3     4    2
   107     3    10   am
   108   146   141   am
   109   146   147    1
   110    79    82    1
   111   150   147    1
   112   162   163    2
   113   162   161    1
   114   141   142    2
   115    10    11    1
   116    15    14    1
   117   147   148    1
   118   160   161    1
   119    63    65   ar
   120    63    61   ar
   121    65    66   ar
   122   161   164    1
   123    58    57    1
   124    58    59    2
   125    11    14    1
   126    11    12    1
   127   149   148    2
   128   148   152   am
   129    57    60    1
   130    57    56    1
   131    14    16    1
   132    85    86    1
   133   164   165    1
   134    60    61    1
   135    61    62   ar
   136    66    64   ar
   137   191   189   ar
   138    88    87    2
   139    12    13    2
   140    12    17   am
   141   152   153    1
   142    90    89    1
   143    90    91    1
   144   190   189   ar
   145    86    89    1
   146    86    87    1
   147   165   167   am
   148   165   166    2
   149   189   188    1
   150    62    64   ar
   151   156   157    1
   152   156   154   am
   153    91    92    1
   154    17    18    1
   155    92    93    2
   156   157   158    1
   157    55    53    1
   158   153   154    1
   159   158   159    2
   160   188   187    1
   161   154   155    2
   162    22    21    1
   163    93    95    1
   164    93    94    1
   165    21    18    1
   166    18    19    1
   167    53    50    1
   168    53    54    1
   169   187   184    1
   170    51    50    1
   171    51    52    2
   172    50    49    1
   173   202   201   ar
   174   202   200   ar
   175    23    19   am
   176    23    24    1
   177    19    20    2
   178   201   199   ar
   179   184   183    1
   180   184   185    1
   181    26    25    2
   182   200   198   ar
   183   186   185    2
   184    27    28    1
   185    27    24    1
   186    27    29    1
   187    24    25    1
   188   185   192   am
   189   199   197   ar
   190   198   197   ar
   191   197   196    1
   192   192   193    1
   193   193   196    1
   194   193   194    1
   195   194   195    2
