@<TRIPOS>MOLECULE
tmp/4eisB00.pdb
 88 87 0 0 0
SMALL
GASTEIGER

@<TRIPOS>ATOM
      1  N         -6.5130   28.7160  -12.4380 N.3     4  ASP4       -0.1225
      2  CA        -5.8880   27.4830  -12.8530 C.3     4  ASP4        0.1805
      3  C         -4.9340   26.9720  -11.7390 C.2     4  ASP4        0.2597
      4  O         -4.9090   25.7850  -11.4360 O.2     4  ASP4       -0.2718
      5  CB        -5.1320   27.7530  -14.1750 C.3     4  ASP4        0.1424
      6  CG        -4.8680   26.4990  -14.9990 C.2     4  ASP4        0.3668
      7  OD1       -5.2540   25.3960  -14.5880 O.co2   4  ASP4       -0.2456
      8  OD2       -4.2570   26.6290  -16.0750 O.co2   4  ASP4       -0.2456
      9  N         -4.1920   27.8860  -11.1040 N.am    5  ASN5       -0.1974
     10  CA        -3.2590   27.5000  -10.0480 C.3     5  ASN5        0.1688
     11  C         -2.8440   28.7250   -9.2610 C.2     5  ASN5        0.2292
     12  O         -3.2420   29.8440   -9.5770 O.2     5  ASN5       -0.2864
     13  CB        -2.0560   26.7700  -10.6310 C.3     5  ASN5        0.1181
     14  CG        -1.3420   27.5830  -11.6630 C.2     5  ASN5        0.2629
     15  OD1       -0.8800   28.6810  -11.3730 O.2     5  ASN5       -0.2716
     16  ND2       -1.2380   27.0510  -12.8960 N.am    5  ASN5       -0.0877
     17  N          3.7320   25.9890   -5.1290 N.3    12  PHE12      -0.1241
     18  CA         2.8090   25.8570   -6.2360 C.3    12  PHE12       0.1605
     19  C          1.6450   24.8970   -5.8830 C.2    12  PHE12       0.2264
     20  O          1.8820   23.8280   -5.3140 O.2    12  PHE12      -0.2867
     21  CB         3.5490   25.3210   -7.4710 C.3    12  PHE12       0.0534
     22  CG         2.6710   25.1490   -8.6740 C.ar   12  PHE12      -0.0203
     23  CD1        2.2890   26.2470   -9.4160 C.ar   12  PHE12      -0.0042
     24  CD2        2.1970   23.9000   -9.0340 C.ar   12  PHE12      -0.0042
     25  CE1        1.4700   26.1130  -10.5120 C.ar   12  PHE12      -0.0003
     26  CE2        1.3760   23.7510  -10.1330 C.ar   12  PHE12      -0.0003
     27  CZ         1.0100   24.8600  -10.8670 C.ar   12  PHE12      -0.0000
     28  N         -1.7780   23.4150   -8.0750 N.3    14  GLN14      -0.1245
     29  CA        -2.7590   23.3660   -9.1590 C.3    14  GLN14       0.1566
     30  C         -4.1500   23.3230   -8.5520 C.2    14  GLN14       0.2260
     31  O         -4.3790   22.5470   -7.6290 O.2    14  GLN14      -0.2867
     32  CB        -2.5300   22.1710  -10.0690 C.3    14  GLN14       0.0367
     33  CG        -3.4880   22.1420  -11.2460 C.3    14  GLN14       0.0905
     34  CD        -3.3540   20.8970  -12.0920 C.2    14  GLN14       0.2608
     35  OE1       -3.2880   19.7920  -11.5740 O.2    14  GLN14      -0.2717
     36  NE2       -3.3520   21.0610  -13.3960 N.am   14  GLN14      -0.0878
     37  N         -3.3340   32.5520  -10.7940 N.3    73  ARG73      -0.1231
     38  CA        -3.1490   32.5850  -12.2440 C.3    73  ARG73       0.1694
     39  C         -4.4170   32.0700  -12.9150 C.2    73  ARG73       0.2592
     40  O         -4.7580   30.9140  -12.7530 O.2    73  ARG73      -0.2718
     41  CB        -1.9520   31.7460  -12.6500 C.3    73  ARG73       0.0321
     42  CG        -0.6900   32.2360  -11.9980 C.3    73  ARG73       0.0489
     43  CD         0.5440   31.5090  -12.4780 C.3    73  ARG73       0.2205
     44  NE         1.6670   31.9340  -11.6580 N.pl3  73  ARG73      -0.0865
     45  CZ         1.9950   31.4290  -10.4710 C.cat  73  ARG73       0.5346
     46  NH1        1.3460   30.4090   -9.9320 N.pl3  73  ARG73       0.1354
     47  NH2        3.0180   31.9590   -9.8270 N.pl3  73  ARG73       0.1354
     48  N         -5.1200   32.9710  -13.6140 N.am   74  TRP74      -0.1962
     49  CA        -6.3210   32.6500  -14.3640 C.3    74  TRP74       0.1771
     50  C         -6.0380   32.0590  -15.7140 C.2    74  TRP74       0.2620
     51  O         -5.0080   32.3440  -16.3120 O.2    74  TRP74      -0.2715
     52  CB        -7.1250   33.9280  -14.6030 C.3    74  TRP74       0.0590
     53  CG        -7.9180   34.3570  -13.4170 C.ar   74  TRP74       0.0006
     54  CD1       -7.4800   35.0480  -12.2890 C.ar   74  TRP74       0.0946
     55  CD2       -9.3360   34.1180  -13.2020 C.ar   74  TRP74       0.0152
     56  NE1       -8.5210   35.2630  -11.4350 N.ar   74  TRP74      -0.2442
     57  CE2       -9.6640   34.7040  -11.9130 C.ar   74  TRP74       0.0810
     58  CE3      -10.3440   33.5000  -13.9240 C.ar   74  TRP74       0.0012
     59  CZ2      -10.9490   34.6710  -11.4060 C.ar   74  TRP74       0.0191
     60  CZ3      -11.6290   33.4890  -13.3990 C.ar   74  TRP74       0.0001
     61  CH2      -11.9270   34.0320  -12.1700 C.ar   74  TRP74       0.0015
     62  N         -6.9840   31.2760  -16.2330 N.am   75  THR75      -0.1951
     63  CA        -7.0320   31.0240  -17.6560 C.3    75  THR75       0.1897
     64  C         -7.3010   32.3700  -18.3490 C.2    75  THR75       0.2313
     65  O         -7.9270   33.2730  -17.7680 O.2    75  THR75      -0.2863
     66  CB        -8.1100   29.9930  -17.9840 C.3    75  THR75       0.1794
     67  OG1       -9.3870   30.5000  -17.5880 O.3    75  THR75      -0.2208
     68  CG2       -7.8180   28.6850  -17.2710 C.3    75  THR75       0.0378
     69  N          1.0570   36.7030  -18.8750 N.3   133  PRO133     -0.2102
     70  CA         0.4730   35.8180  -17.8510 C.3   133  PRO133      0.1504
     71  C         -0.7160   36.4570  -17.1180 C.2   133  PRO133      0.2576
     72  O         -0.5960   37.5740  -16.5990 O.2   133  PRO133     -0.2718
     73  CB         1.6320   35.5280  -16.8860 C.3   133  PRO133      0.0282
     74  CG         2.6870   36.5080  -17.2120 C.3   133  PRO133      0.0208
     75  CD         2.4690   37.0140  -18.5980 C.3   133  PRO133      0.0893
     76  N         -1.8570   35.7660  -17.0990 N.am  134  ALA134     -0.1966
     77  CA        -3.0780   36.3150  -16.4980 C.3   134  ALA134      0.1728
     78  C         -3.0240   36.1830  -14.9890 C.2   134  ALA134      0.2616
     79  O         -3.7870   35.4200  -14.4080 O.2   134  ALA134     -0.2715
     80  CB        -4.3210   35.6240  -17.0510 C.3   134  ALA134      0.0334
     81  N         -2.1400   36.9740  -14.3680 N.am  135  ASN135     -0.1972
     82  CA        -1.8380   36.8680  -12.9560 C.3   135  ASN135      0.1688
     83  C         -2.3940   37.9680  -12.0650 C.2   135  ASN135      0.2292
     84  O         -2.4650   39.1260  -12.4700 O.2   135  ASN135     -0.2864
     85  CB        -0.3380   36.8570  -12.7870 C.3   135  ASN135      0.1181
     86  CG         0.3140   35.6000  -13.3270 C.2   135  ASN135      0.2629
     87  OD1       -0.2860   34.8000  -14.0520 O.2   135  ASN135     -0.2716
     88  ND2        1.5700   35.4230  -12.9690 N.am  135  ASN135     -0.0877
@<TRIPOS>BOND
     1    69    75    1
     2    69    70    1
     3    75    74    1
     4    64    65    2
     5    64    63    1
     6    66    63    1
     7    66    67    1
     8    66    68    1
     9    70    71    1
    10    70    73    1
    11    63    62    1
    12    74    73    1
    13    71    76   am
    14    71    72    2
    15    76    77    1
    16    80    77    1
    17    77    78    1
    18    51    50    2
    19    62    50   am
    20     8     6   ar
    21    50    49    1
    22     6     7   ar
    23     6     5    1
    24    78    79    2
    25    78    81   am
    26    52    49    1
    27    52    53    1
    28    81    82    1
    29    49    48    1
    30     5     2    1
    31    87    86    2
    32    58    60   ar
    33    58    55   ar
    34    48    39   am
    35    53    55   ar
    36    53    54   ar
    37    60    61   ar
    38    36    34   am
    39    86    88   am
    40    86    85    1
    41    55    57   ar
    42    82    85    1
    43    82    83    1
    44    39    40    2
    45    39    38    1
    46    16    14   am
    47     2     1    1
    48     2     3    1
    49    41    38    1
    50    41    42    1
    51    43    42    1
    52    43    44    1
    53    84    83    2
    54    54    56   ar
    55    38    37    1
    56    61    59   ar
    57    34    35    2
    58    34    33    1
    59    57    56   ar
    60    57    59   ar
    61     3     4    2
    62     3     9   am
    63    14    15    2
    64    14    13    1
    65    44    45    2
    66    33    32    1
    67     9    10    1
    68    27    25   ar
    69    27    26   ar
    70    13    10    1
    71    25    23   ar
    72    45    46    1
    73    45    47    1
    74    26    24   ar
    75    32    29    1
    76    10    11    1
    77    12    11    2
    78    23    22   ar
    79    29    30    1
    80    29    28    1
    81    24    22   ar
    82    22    21    1
    83    30    31    2
    84    21    18    1
    85    18    19    1
    86    18    17    1
    87    19    20    2
