@<TRIPOS>MOLECULE
tmp/4eiuA01.pdb
 89 87 0 0 0
SMALL
GASTEIGER

@<TRIPOS>ATOM
      1  N          9.7710   32.9930    2.0060 N.3    76  GLU76      -0.1231
      2  CA         9.7310   33.1480    0.5640 C.3    76  GLU76       0.1699
      3  C         10.9840   32.5810   -0.0910 C.2    76  GLU76       0.2592
      4  O         12.0610   32.4700    0.5200 O.2    76  GLU76      -0.2718
      5  CB         9.5290   34.5950    0.1550 C.3    76  GLU76       0.0402
      6  CG        10.7190   35.4510    0.5180 C.3    76  GLU76       0.1161
      7  CD        10.6210   36.8910    0.1040 C.2    76  GLU76       0.3649
      8  OE1        9.5230   37.4580   -0.1550 O.co2  76  GLU76      -0.2457
      9  OE2       11.7090   37.4990    0.1300 O.co2  76  GLU76      -0.2457
     10  N         10.8390   32.2180   -1.3500 N.am   77  ASN77      -0.1960
     11  CA        11.9180   31.5630   -2.0720 C.3    77  ASN77       0.1819
     12  C         12.8250   32.6490   -2.6980 C.2    77  ASN77       0.2621
     13  O         12.5180   33.8310   -2.6090 O.2    77  ASN77      -0.2715
     14  CB        11.4350   30.5210   -3.0550 C.3    77  ASN77       0.1195
     15  CG        10.7320   31.0870   -4.2750 C.2    77  ASN77       0.2630
     16  OD1       10.8400   32.2550   -4.6010 O.2    77  ASN77      -0.2716
     17  ND2        9.9830   30.2370   -4.9570 N.am   77  ASN77      -0.0877
     18  N         13.8610   32.2230   -3.3950 N.am   78  THR78      -0.1951
     19  CA        14.8450   33.1750   -3.9300 C.3    78  THR78       0.1897
     20  C         14.2980   33.9770   -5.1000 C.2    78  THR78       0.2313
     21  O         14.8850   34.9900   -5.4510 O.2    78  THR78      -0.2863
     22  CB        16.1230   32.4490   -4.3960 C.3    78  THR78       0.1794
     23  OG1       15.7530   31.4700   -5.3420 O.3    78  THR78      -0.2208
     24  CG2       16.8360   31.7620   -3.2210 C.3    78  THR78       0.0378
     25  N         13.3490   25.0060    5.3660 N.3   140  ILE140     -0.1245
     26  CA        14.2460   26.0140    4.7620 C.3   140  ILE140      0.1561
     27  C         14.7430   25.6680    3.3530 C.2   140  ILE140      0.2260
     28  O         14.8230   26.5610    2.5090 O.2   140  ILE140     -0.2867
     29  CB        15.3820   26.3560    5.7660 C.3   140  ILE140      0.0252
     30  CG1       14.7360   27.1630    6.9230 C.3   140  ILE140      0.0019
     31  CG2       16.5020   27.1860    5.1190 C.3   140  ILE140      0.0019
     32  CD1       15.5720   27.2130    8.1830 C.3   140  ILE140      0.0001
     33  N         15.1770   27.7040   -1.5240 N.3   143  GLY143     -0.1210
     34  CA        16.2150   27.8210   -2.5430 C.3   143  GLY143      0.1956
     35  C         17.5410   28.2980   -1.9290 C.2   143  GLY143      0.2612
     36  O         17.5990   28.7240   -0.8020 O.2   143  GLY143     -0.2717
     37  N         18.5890   28.2300   -2.7180 N.am  144  ASN144     -0.1960
     38  CA        19.9280   28.5210   -2.2640 C.3   144  ASN144      0.1819
     39  C         20.2420   27.7570   -0.9410 C.2   144  ASN144      0.2621
     40  O         20.8150   28.2800   -0.0230 O.2   144  ASN144     -0.2715
     41  CB        20.1060   30.0190   -2.1410 C.3   144  ASN144      0.1195
     42  CG        21.5590   30.4140   -1.9240 C.2   144  ASN144      0.2630
     43  OD1       21.8210   31.3280   -1.1620 O.2   144  ASN144     -0.2716
     44  ND2       22.4800   29.6800   -2.4910 N.am  144  ASN144     -0.0877
     45  N         19.7790   26.5190   -0.8580 N.am  145  TRP145     -0.1974
     46  CA        20.0570   25.6730    0.2960 C.3   145  TRP145      0.1640
     47  C         21.5320   25.3720    0.3970 C.2   145  TRP145      0.2290
     48  O         22.2210   25.1190   -0.6420 O.2   145  TRP145     -0.2864
     49  CB        19.2270   24.3740    0.2430 C.3   145  TRP145      0.0576
     50  CG        19.6400   23.4190    1.3210 C.ar  145  TRP145      0.0006
     51  CD1       20.3960   22.3050    1.1640 C.ar  145  TRP145      0.0946
     52  CD2       19.4770   23.5690    2.7620 C.ar  145  TRP145      0.0152
     53  NE1       20.6780   21.7190    2.3690 N.ar  145  TRP145     -0.2442
     54  CE2       20.1350   22.4180    3.3660 C.ar  145  TRP145      0.0810
     55  CE3       18.8190   24.4670    3.5800 C.ar  145  TRP145      0.0012
     56  CZ2       20.1620   22.2210    4.7320 C.ar  145  TRP145      0.0191
     57  CZ3       18.8290   24.2390    4.9640 C.ar  145  TRP145      0.0001
     58  CH2       19.4790   23.1440    5.5180 C.ar  145  TRP145      0.0015
     59  N         24.5280   25.8660    6.4740 N.3   149  TYR149     -0.1241
     60  CA        23.6480   26.7510    7.2460 C.3   149  TYR149      0.1605
     61  C         23.4370   26.2230    8.6840 C.2   149  TYR149      0.2264
     62  O         23.2790   26.9990    9.6160 O.2   149  TYR149     -0.2867
     63  CB        22.3010   26.9580    6.5740 C.3   149  TYR149      0.0534
     64  CG        22.2800   27.7430    5.2710 C.ar  149  TYR149     -0.0201
     65  CD1       23.2870   28.6110    4.9270 C.ar  149  TYR149     -0.0009
     66  CD2       21.2130   27.6070    4.3870 C.ar  149  TYR149     -0.0009
     67  CE1       23.2620   29.2850    3.7300 C.ar  149  TYR149      0.0417
     68  CE2       21.1720   28.2840    3.1700 C.ar  149  TYR149      0.0417
     69  CZ        22.1780   29.1570    2.8720 C.ar  149  TYR149      0.1957
     70  OH        22.1760   29.8110    1.6620 O.3   149  TYR149     -0.2866
     71  N         23.4060   31.0220    9.8510 N.3   217  TYR217     -0.1241
     72  CA        22.1500   31.3150    9.2020 C.3   217  TYR217      0.1605
     73  C         21.5520   32.6160    9.7420 C.2   217  TYR217      0.2264
     74  O         21.4190   32.7870   10.9480 O.2   217  TYR217     -0.2867
     75  CB        21.1440   30.1720    9.4540 C.3   217  TYR217      0.0534
     76  CG        19.9540   30.2210    8.5220 C.ar  217  TYR217     -0.0201
     77  CD1       20.0650   29.8780    7.1880 C.ar  217  TYR217     -0.0009
     78  CD2       18.6860   30.6540    8.9800 C.ar  217  TYR217     -0.0009
     79  CE1       18.9540   29.9440    6.3170 C.ar  217  TYR217      0.0417
     80  CE2       17.6080   30.7250    8.1320 C.ar  217  TYR217      0.0417
     81  CZ        17.7360   30.3690    6.8130 C.ar  217  TYR217      0.1957
     82  OH        16.6610   30.4590    6.0030 O.3   217  TYR217     -0.2866
     83  N         16.2170   36.3880    6.4260 N.3   221  VAL221     -0.1245
     84  CA        17.0820   35.8250    5.3850 C.3   221  VAL221      0.1561
     85  C         17.6270   36.9770    4.5490 C.2   221  VAL221      0.2260
     86  O         16.8880   37.8700    4.1520 O.2   221  VAL221     -0.2867
     87  CB        16.3000   34.7570    4.5850 C.3   221  VAL221      0.0252
     88  CG1       17.0180   34.3780    3.2950 C.3   221  VAL221      0.0019
     89  CG2       16.1350   33.5710    5.5480 C.3   221  VAL221      0.0019
@<TRIPOS>BOND
     1    21    20    2
     2    23    22    1
     3    20    19    1
     4    17    15   am
     5    16    15    2
     6    22    19    1
     7    22    24    1
     8    15    14    1
     9    19    18    1
    10    18    12   am
    11    14    11    1
    12    37    38    1
    13    37    35   am
    14    12    13    2
    15    12    11    1
    16    34    35    1
    17    34    33    1
    18    44    42   am
    19    38    41    1
    20    38    39    1
    21    41    42    1
    22    11    10    1
    23    35    36    2
    24    42    43    2
    25    10     3   am
    26    39    45   am
    27    39    40    2
    28    45    46    1
    29    48    47    2
    30     8     7   ar
    31     3     4    2
    32     3     2    1
    33     7     9   ar
    34     7     6    1
    35     5     6    1
    36     5     2    1
    37    49    46    1
    38    49    50    1
    39    46    47    1
    40     2     1    1
    41    51    50   ar
    42    51    53   ar
    43    50    52   ar
    44    70    69    1
    45    53    54   ar
    46    28    27    2
    47    52    54   ar
    48    52    55   ar
    49    69    68   ar
    50    69    67   ar
    51    68    66   ar
    52    88    87    1
    53    27    26    1
    54    54    56   ar
    55    55    57   ar
    56    67    65   ar
    57    86    85    2
    58    66    64   ar
    59    85    84    1
    60    87    84    1
    61    87    89    1
    62    56    58   ar
    63    26    25    1
    64    26    29    1
    65    65    64   ar
    66    57    58   ar
    67    31    29    1
    68    64    63    1
    69    84    83    1
    70    29    30    1
    71    82    81    1
    72    79    81   ar
    73    79    77   ar
    74    59    60    1
    75    63    60    1
    76    81    80   ar
    77    30    32    1
    78    77    76   ar
    79    60    61    1
    80    80    78   ar
    81    76    78   ar
    82    76    75    1
    83    61    62    2
    84    72    75    1
    85    72    73    1
    86    72    71    1
    87    73    74    2
