@<TRIPOS>MOLECULE
tmp/4eiwC00.pdb
 164 157 0 0 0
SMALL
GASTEIGER

@<TRIPOS>ATOM
      1  N         -9.1590   97.1140  110.4990 N.3    15  ASP15      -0.1225
      2  CA        -9.8210   97.9980  109.5370 C.3    15  ASP15       0.1805
      3  C        -10.8240   97.2330  108.6690 C.2    15  ASP15       0.2598
      4  O        -11.4670   97.8200  107.7930 O.2    15  ASP15      -0.2718
      5  CB        -8.8000   98.7050  108.6380 C.3    15  ASP15       0.1424
      6  CG        -7.6480   99.3170  109.4110 C.2    15  ASP15       0.3668
      7  OD1       -7.3890   98.8960  110.5600 O.co2  15  ASP15      -0.2456
      8  OD2       -6.9960  100.2260  108.8590 O.co2  15  ASP15      -0.2456
      9  N        -10.9490   95.9280  108.9070 N.am   16  VAL16      -0.1966
     10  CA       -11.9290   95.1080  108.1910 C.3    16  VAL16       0.1727
     11  C        -12.9830   94.5470  109.1410 C.2    16  VAL16       0.2616
     12  O        -12.6560   93.9870  110.1880 O.2    16  VAL16      -0.2715
     13  CB       -11.2720   93.9700  107.3760 C.3    16  VAL16       0.0290
     14  CG1      -10.1110   94.5030  106.5510 C.3    16  VAL16       0.0023
     15  CG2      -10.8100   92.8330  108.2760 C.3    16  VAL16       0.0023
     16  N        -14.2470   94.7050  108.7680 N.am   17  ALA17      -0.1977
     17  CA       -15.3520   94.2700  109.6070 C.3    17  ALA17       0.1597
     18  C        -15.8140   92.8740  109.2300 C.2    17  ALA17       0.2287
     19  O        -15.9520   92.5630  108.0510 O.2    17  ALA17      -0.2864
     20  CB       -16.5020   95.2520  109.5080 C.3    17  ALA17       0.0319
     21  N        -18.7430   89.2250   95.7590 N.3    55  PRO55      -0.2103
     22  CA       -19.3040   90.1740   94.7920 C.3    55  PRO55       0.1489
     23  C        -18.2870   91.2220   94.3560 C.2    55  PRO55       0.2418
     24  O        -17.1320   91.1680   94.7720 O.2    55  PRO55      -0.2734
     25  CB       -20.4210   90.8690   95.5770 C.3    55  PRO55       0.0282
     26  CG       -20.7140   89.9950   96.7420 C.3    55  PRO55       0.0208
     27  CD       -19.4900   89.1880   97.0280 C.3    55  PRO55       0.0893
     28  N        -18.7040   92.1670   93.5020 N.am   56  PRO56      -0.2718
     29  CA       -17.8730   93.3520   93.4380 C.3    56  PRO56       0.1535
     30  C        -17.9590   94.0320   94.8030 C.2    56  PRO56       0.2599
     31  O        -18.8980   93.7680   95.5600 O.2    56  PRO56      -0.2715
     32  CB       -18.5630   94.2020   92.3680 C.3    56  PRO56       0.0310
     33  CG       -19.9890   93.7550   92.3800 C.3    56  PRO56       0.0237
     34  CD       -19.9240   92.2880   92.6800 C.3    56  PRO56       0.0939
     35  N        -16.9820   94.8710   95.1280 N.am   57  GLY57      -0.1941
     36  CA       -17.0080   95.6350   96.3710 C.3    57  GLY57       0.2014
     37  C        -17.4730   94.8930   97.6190 C.2    57  GLY57       0.2639
     38  O        -18.3070   95.4050   98.3620 O.2    57  GLY57      -0.2714
     39  N        -16.9410   93.6960   97.8580 N.am   58  VAL58      -0.1963
     40  CA       -17.2560   92.9460   99.0800 C.3    58  VAL58       0.1727
     41  C        -16.1830   93.1010  100.1680 C.2    58  VAL58       0.2617
     42  O        -16.3610   92.6620  101.3060 O.2    58  VAL58      -0.2715
     43  CB       -17.4870   91.4550   98.7760 C.3    58  VAL58       0.0290
     44  CG1      -16.2850   90.6260   99.2000 C.3    58  VAL58       0.0023
     45  CG2      -18.7390   90.9640   99.4780 C.3    58  VAL58       0.0023
     46  N        -15.0740   93.7330   99.8080 N.am   59  GLY59      -0.1940
     47  CA       -13.9440   93.8900  100.7100 C.3    59  GLY59       0.2014
     48  C        -12.7840   93.0070  100.3220 C.2    59  GLY59       0.2639
     49  O        -11.8560   92.8410  101.1050 O.2    59  GLY59      -0.2714
     50  N        -12.8340   92.4340   99.1210 N.am   60  LYS60      -0.1963
     51  CA       -11.7610   91.5620   98.6550 C.3    60  LYS60       0.1728
     52  C        -10.4440   92.2940   98.7150 C.2    60  LYS60       0.2617
     53  O         -9.6120   92.0160   99.5740 O.2    60  LYS60      -0.2715
     54  CB       -11.9650   91.1550   97.2110 C.3    60  LYS60       0.0311
     55  CG       -13.1790   90.3240   96.8960 C.3    60  LYS60       0.0038
     56  CD       -12.9540   89.7650   95.5070 C.3    60  LYS60       0.0206
     57  CE       -14.2280   89.6780   94.7060 C.3    60  LYS60       0.1093
     58  NZ       -14.9500   88.4780   95.1680 N.3    60  LYS60      -0.1314
     59  N        -10.2660   93.2200   97.7750 N.am   61  THR61      -0.1937
     60  CA        -9.0790   94.0560   97.7020 C.3    61  THR61       0.2028
     61  C         -8.7740   94.4910   99.1150 C.2    61  THR61       0.2642
     62  O         -7.6560   94.3440   99.6010 O.2    61  THR61      -0.2714
     63  CB        -9.3420   95.3380   96.8900 C.3    61  THR61       0.1808
     64  OG1      -10.3280   96.1240   97.5700 O.3    61  THR61      -0.2208
     65  CG2       -9.8430   95.0180   95.4790 C.3    61  THR61       0.0379
     66  N         -9.8130   95.0000   99.7660 N.am   62  HIS62      -0.1959
     67  CA        -9.7490   95.4970  101.1280 C.3    62  HIS62       0.1787
     68  C         -9.0430   94.5480  102.0690 C.2    62  HIS62       0.2620
     69  O         -8.0400   94.9160  102.6880 O.2    62  HIS62      -0.2715
     70  CB       -11.1620   95.8290  101.5980 C.3    62  HIS62       0.0785
     71  CG       -11.2230   96.5610  102.9120 C.ar   62  HIS62       0.0821
     72  ND1      -10.1690   97.2100  103.4360 N.ar   62  HIS62      -0.2267
     73  CD2      -12.2780   96.7560  103.7900 C.ar   62  HIS62       0.1154
     74  CE1      -10.5290   97.7720  104.6030 C.ar   62  HIS62       0.1986
     75  NE2      -11.8210   97.4980  104.8140 N.ar   62  HIS62      -0.2212
     76  N         -9.5430   93.3170  102.1710 N.am   63  LEU63      -0.1977
     77  CA        -8.8850   92.2750  102.9570 C.3    63  LEU63       0.1596
     78  C         -7.4460   92.0840  102.5240 C.2    63  LEU63       0.2287
     79  O         -6.5300   92.2200  103.3240 O.2    63  LEU63      -0.2864
     80  CB        -9.6230   90.9440  102.8340 C.3    63  LEU63       0.0297
     81  CG       -10.4360   90.4970  104.0420 C.3    63  LEU63       0.0022
     82  CD1      -11.6330   91.4080  104.2530 C.3    63  LEU63       0.0001
     83  CD2      -10.8760   89.0570  103.8450 C.3    63  LEU63       0.0001
     84  N         -5.3740   93.8250  101.1400 N.3    65  ARG65      -0.1245
     85  CA        -4.5900   94.9550  101.5840 C.3    65  ARG65       0.1563
     86  C         -4.3560   94.9540  103.0760 C.2    65  ARG65       0.2260
     87  O         -3.2980   95.3690  103.5370 O.2    65  ARG65      -0.2867
     88  CB        -5.3500   96.2230  101.2970 C.3    65  ARG65       0.0307
     89  CG        -5.1070   97.2400  102.3980 C.3    65  ARG65       0.0489
     90  CD        -4.0890   98.2170  101.8590 C.3    65  ARG65       0.2205
     91  NE        -4.8770   98.7320  100.7970 N.pl3  65  ARG65      -0.0865
     92  CZ        -4.8550   98.5710   99.4870 C.cat  65  ARG65       0.5346
     93  NH1       -5.9020   99.0920   98.8980 N.pl3  65  ARG65       0.1354
     94  NH2       -3.8770   98.0540   98.7590 N.pl3  65  ARG65       0.1354
     95  N         -6.5460   91.9990   90.8690 N.3   113  ASP113     -0.1239
     96  CA        -7.9700   92.1880   90.6630 C.3   113  ASP113      0.1674
     97  C         -8.3520   91.4450   89.4010 C.2   113  ASP113      0.2266
     98  O         -7.7340   91.6260   88.3540 O.2   113  ASP113     -0.2867
     99  CB        -8.3240   93.6670   90.5090 C.3   113  ASP113      0.1410
    100  CG        -9.8370   93.9250   90.4990 C.2   113  ASP113      0.3668
    101  OD1      -10.6530   92.9980   90.2320 O.co2 113  ASP113     -0.2456
    102  OD2      -10.2080   95.0910   90.7490 O.co2 113  ASP113     -0.2456
    103  N         -8.7520   88.0410   93.0250 N.3   158  ALA158     -0.1245
    104  CA       -10.1370   88.3580   93.3320 C.3   158  ALA158      0.1562
    105  C        -11.0190   88.1300   92.1100 C.2   158  ALA158      0.2260
    106  O        -10.6990   88.6110   91.0300 O.2   158  ALA158     -0.2867
    107  CB       -10.2390   89.8040   93.7820 C.3   158  ALA158      0.0290
    108  N        -15.5960   87.4540   91.3110 N.3   160  ASN160     -0.1240
    109  CA       -16.9210   87.1830   91.8400 C.3   160  ASN160      0.1653
    110  C        -17.3140   85.7320   91.6640 C.2   160  ASN160      0.2266
    111  O        -18.3630   85.3000   92.1390 O.2   160  ASN160     -0.2867
    112  CB       -17.9560   88.0740   91.1450 C.3   160  ASN160      0.1155
    113  CG       -17.8510   89.5430   91.5460 C.2   160  ASN160      0.2627
    114  OD1      -17.2480   89.9000   92.5620 O.2   160  ASN160     -0.2716
    115  ND2      -18.4470   90.4060   90.7310 N.am  160  ASN160     -0.0877
    116  N        -20.0480   89.4750  102.8380 N.3   183  ALA183     -0.1245
    117  CA       -19.8070   90.5940  103.7500 C.3   183  ALA183      0.1562
    118  C        -21.0570   91.1230  104.4590 C.2   183  ALA183      0.2260
    119  O        -20.9990   91.4250  105.6500 O.2   183  ALA183     -0.2867
    120  CB       -19.0920   91.7270  103.0230 C.3   183  ALA183      0.0290
    121  N        -19.0690   98.1250  109.4470 N.3   192  ILE192     -0.1245
    122  CA       -18.6590   98.7660  108.1980 C.3   192  ILE192      0.1561
    123  C        -19.1970  100.1780  108.1560 C.2   192  ILE192      0.2260
    124  O        -18.4240  101.1370  108.1830 O.2   192  ILE192     -0.2867
    125  CB       -19.2080   98.0480  106.9480 C.3   192  ILE192      0.0252
    126  CG1      -18.8980   96.5510  106.9830 C.3   192  ILE192      0.0019
    127  CG2      -18.6650   98.7020  105.6810 C.3   192  ILE192      0.0019
    128  CD1      -17.9320   96.0870  105.9310 C.3   192  ILE192      0.0001
    129  N        -17.3580  102.5910  110.4860 N.3   195  ILE195     -0.1231
    130  CA       -15.9560  102.9490  110.2650 C.3   195  ILE195      0.1692
    131  C        -15.8680  104.1130  109.2730 C.2   195  ILE195      0.2592
    132  O        -15.1050  105.0590  109.4820 O.2   195  ILE195     -0.2718
    133  CB       -15.0760  101.7450  109.8320 C.3   195  ILE195      0.0266
    134  CG1      -15.5080  101.1730  108.4780 C.3   195  ILE195      0.0019
    135  CG2      -15.0620  100.6620  110.9030 C.3   195  ILE195      0.0020
    136  CD1      -14.5060  101.4170  107.3770 C.3   195  ILE195      0.0001
    137  N        -16.6880  104.0520  108.2240 N.am  196  HIS196     -0.1976
    138  CA       -16.7790  105.1280  107.2380 C.3   196  HIS196      0.1656
    139  C        -17.6070  106.3010  107.7010 C.2   196  HIS196      0.2291
    140  O        -17.3730  107.4410  107.2830 O.2   196  HIS196     -0.2864
    141  CB       -17.3190  104.5910  105.9100 C.3   196  HIS196      0.0771
    142  CG       -16.3350  103.7320  105.1420 C.ar  196  HIS196      0.0820
    143  ND1      -16.7080  102.9580  104.1070 N.ar  196  HIS196     -0.2267
    144  CD2      -14.9630  103.5390  105.3020 C.ar  196  HIS196      0.1154
    145  CE1      -15.6300  102.3170  103.6140 C.ar  196  HIS196      0.1986
    146  NE2      -14.5640  102.6670  104.3510 N.ar  196  HIS196     -0.2212
    147  N        -20.1600   96.3410  101.3140 N.3   220  GLY220     -0.1210
    148  CA       -19.1920   97.3200  101.8250 C.3   220  GLY220      0.1956
    149  C        -19.0340   98.5730  100.9780 C.2   220  GLY220      0.2611
    150  O        -19.2780   99.6880  101.4480 O.2   220  GLY220     -0.2717
    151  N        -18.6310   98.3880   99.7250 N.am  221  ALA221     -0.1979
    152  CA       -18.4730   99.5010   98.7950 C.3   221  ALA221      0.1597
    153  C        -19.8000  100.2290   98.5930 C.2   221  ALA221      0.2287
    154  O        -19.8530  101.4600   98.6120 O.2   221  ALA221     -0.2864
    155  CB       -17.9280   99.0040   97.4680 C.3   221  ALA221      0.0319
    156  N        -20.4060  102.3750  101.7450 N.3   224  GLU224     -0.1245
    157  CA       -19.5250  103.5250  101.8110 C.3   224  GLU224      0.1567
    158  C        -20.0300  104.6150  100.8860 C.2   224  GLU224      0.2260
    159  O        -20.2930  105.7260  101.3340 O.2   224  GLU224     -0.2867
    160  CB       -18.0940  103.1380  101.4640 C.3   224  GLU224      0.0388
    161  CG       -17.1220  104.3010  101.5710 C.3   224  GLU224      0.1160
    162  CD       -16.5450  104.7110  100.2360 C.2   224  GLU224      0.3649
    163  OE1      -16.8910  104.0650   99.2200 O.co2 224  GLU224     -0.2457
    164  OE2      -15.7340  105.6670  100.2080 O.co2 224  GLU224     -0.2457
@<TRIPOS>BOND
     1    98    97    2
     2    97    96    1
     3   101   100   ar
     4   100    99    1
     5   100   102   ar
     6    99    96    1
     7    96    95    1
     8   115   113   am
     9   106   105    2
    10   112   113    1
    11   112   109    1
    12   108   109    1
    13   113   114    2
    14   110   109    1
    15   110   111    2
    16   105   104    1
    17    32    33    1
    18    32    29    1
    19    33    34    1
    20    34    28    1
    21   103   104    1
    22   104   107    1
    23    29    28    1
    24    29    30    1
    25    28    23   am
    26    23    24    2
    27    23    22    1
    28    57    58    1
    29    57    56    1
    30    22    25    1
    31    22    21    1
    32    30    35   am
    33    30    31    2
    34    35    36    1
    35    65    63    1
    36    56    55    1
    37    25    26    1
    38    21    27    1
    39    36    37    1
    40    26    27    1
    41    63    64    1
    42    63    60    1
    43    55    54    1
    44    54    51    1
    45   155   152    1
    46    37    39   am
    47    37    38    2
    48    60    59    1
    49    60    61    1
    50    59    52   am
    51    39    40    1
    52   153   154    2
    53   153   152    1
    54    51    52    1
    55    51    50    1
    56    52    53    2
    57    94    92    1
    58    43    40    1
    59    43    44    1
    60    43    45    1
    61   152   151    1
    62    93    92    1
    63    40    41    1
    64    61    62    2
    65    61    66   am
    66    50    48   am
    67   163   162   ar
    68    92    91    2
    69   151   149   am
    70    66    67    1
    71    46    41   am
    72    46    47    1
    73    41    42    2
    74   164   162   ar
    75   162   161    1
    76    48    47    1
    77    48    49    2
    78    91    90    1
    79   158   159    2
    80   158   157    1
    81   149   150    2
    82   149   148    1
    83    67    70    1
    84    67    68    1
    85    84    85    1
    86    88    85    1
    87    88    89    1
    88   147   148    1
    89   160   161    1
    90   160   157    1
    91    85    86    1
    92    70    71    1
    93   156   157    1
    94    90    89    1
    95    68    76   am
    96    68    69    2
    97    76    77    1
    98    78    77    1
    99    78    79    2
   100    80    77    1
   101    80    81    1
   102   116   117    1
   103    71    72   ar
   104    71    73   ar
   105   120   117    1
   106    86    87    2
   107    72    74   ar
   108   145   143   ar
   109   145   146   ar
   110   117   118    1
   111    73    75   ar
   112    83    81    1
   113    81    82    1
   114   143   142   ar
   115   146   144   ar
   116   118   119    2
   117    74    75   ar
   118   142   144   ar
   119   142   141    1
   120   127   125    1
   121   141   138    1
   122   128   126    1
   123    14    13    1
   124   125   126    1
   125   125   122    1
   126   138   139    1
   127   138   137    1
   128   140   139    2
   129    13    10    1
   130    13    15    1
   131   136   134    1
   132     4     3    2
   133    19    18    2
   134   123   124    2
   135   123   122    1
   136    10     9    1
   137    10    11    1
   138   122   121    1
   139   137   131   am
   140   134   133    1
   141     5     6    1
   142     5     2    1
   143     3     9   am
   144     3     2    1
   145    16    11   am
   146    16    17    1
   147     8     6   ar
   148    11    12    2
   149    18    17    1
   150   131   132    2
   151   131   130    1
   152     6     7   ar
   153    20    17    1
   154     2     1    1
   155   133   130    1
   156   133   135    1
   157   130   129    1
