@<TRIPOS>MOLECULE
tmp/4eixA00.pdb
 97 94 0 0 0
SMALL
GASTEIGER

@<TRIPOS>ATOM
      1  N         36.8900   10.5750   -6.0030 N.3     2  LEU2       -0.1231
      2  CA        36.3510    9.3520   -5.5670 C.3     2  LEU2        0.1693
      3  C         37.3880    8.6450   -4.7670 C.2     2  LEU2        0.2591
      4  O         37.0630    7.8630   -3.9350 O.2     2  LEU2       -0.2718
      5  CB        35.8560    8.5390   -6.7320 C.3     2  LEU2        0.0284
      6  CG        34.6310    9.1930   -7.3170 C.3     2  LEU2        0.0019
      7  CD1       34.0060    8.3770   -8.3900 C.3     2  LEU2        0.0001
      8  CD2       33.6020    9.5380   -6.2860 C.3     2  LEU2        0.0001
      9  N         38.6510    8.9180   -5.0200 N.am    3  LEU3       -0.1980
     10  CA        39.7280    8.2980   -4.2390 C.3     3  LEU3        0.1596
     11  C         39.5620    8.5320   -2.7320 C.2     3  LEU3        0.2287
     12  O         39.6100    7.5870   -1.9470 O.2     3  LEU3       -0.2864
     13  CB        41.1070    8.8440   -4.6490 C.3     3  LEU3        0.0297
     14  CG        41.6850    8.6140   -6.0490 C.3     3  LEU3        0.0022
     15  CD1       41.0400    7.3710   -6.6800 C.3     3  LEU3        0.0001
     16  CD2       41.4420    9.8580   -6.9170 C.3     3  LEU3        0.0001
     17  N         36.8910    9.5930   -1.0090 N.3     5  PHE5       -0.1227
     18  CA        35.6190    9.0430   -0.5800 C.3     5  PHE5        0.1736
     19  C         35.6910    7.5450   -0.4120 C.2     5  PHE5        0.2596
     20  O         35.3080    7.0080    0.6210 O.2     5  PHE5       -0.2718
     21  CB        34.5570    9.4310   -1.6060 C.3     5  PHE5        0.0547
     22  CG        33.1530    9.0640   -1.2210 C.ar    5  PHE5       -0.0202
     23  CD1       32.7180    9.1620    0.0920 C.ar    5  PHE5       -0.0042
     24  CD2       32.2370    8.7020   -2.1980 C.ar    5  PHE5       -0.0042
     25  CE1       31.3870    8.9100    0.4230 C.ar    5  PHE5       -0.0003
     26  CE2       30.9070    8.4500   -1.8760 C.ar    5  PHE5       -0.0003
     27  CZ        30.4840    8.5570   -0.5620 C.ar    5  PHE5       -0.0000
     28  N         36.1960    6.8660   -1.4290 N.am    6  GLY6       -0.1957
     29  CA        36.2950    5.4220   -1.3480 C.3     6  GLY6        0.1869
     30  C         37.0780    4.9870   -0.1270 C.2     6  GLY6        0.2309
     31  O         36.6950    4.0600    0.5720 O.2     6  GLY6       -0.2863
     32  N         35.1690    5.5170    2.9700 N.3     9  ILE9       -0.1245
     33  CA        34.1390    4.4590    3.0510 C.3     9  ILE9        0.1561
     34  C         34.6690    3.1520    3.6590 C.2     9  ILE9        0.2260
     35  O         34.0070    2.5150    4.4790 O.2     9  ILE9       -0.2867
     36  CB        33.5990    4.0550    1.6510 C.3     9  ILE9        0.0252
     37  CG1       33.0040    5.2590    0.9120 C.3     9  ILE9        0.0019
     38  CG2       32.5530    2.9580    1.8010 C.3     9  ILE9        0.0019
     39  CD1       32.3300    4.9300   -0.4030 C.3     9  ILE9        0.0001
     40  N         34.0390    0.6060   -1.4300 N.3    17  ALA17      -0.1231
     41  CA        33.0720    1.4360   -2.1480 C.3    17  ALA17       0.1694
     42  C         32.6590    0.7480   -3.4450 C.2    17  ALA17       0.2591
     43  O         31.4750    0.5990   -3.7250 O.2    17  ALA17      -0.2718
     44  CB        33.6680    2.7990   -2.4380 C.3    17  ALA17       0.0304
     45  N         33.6340    0.3650   -4.2600 N.am   18  ILE18      -0.1980
     46  CA        33.3380   -0.3780   -5.4830 C.3    18  ILE18       0.1595
     47  C         33.7470   -1.7740   -4.9820 C.2    18  ILE18       0.2287
     48  O         34.9070   -1.9890   -4.6190 O.2    18  ILE18      -0.2864
     49  CB        34.2720   -0.0050   -6.6540 C.3    18  ILE18       0.0276
     50  CG1       34.0820    1.4510   -7.0450 C.3    18  ILE18       0.0022
     51  CG2       33.9580   -0.8730   -7.8650 C.3    18  ILE18       0.0022
     52  CD1       35.2610    1.9990   -7.8240 C.3    18  ILE18       0.0001
     53  N         29.1710   -0.4150   -2.7220 N.3    21  TYR21      -0.1227
     54  CA        28.3890    0.8140   -2.7940 C.3    21  TYR21       0.1736
     55  C         28.1900    1.4890   -4.1470 C.2    21  TYR21       0.2596
     56  O         27.3780    2.4140   -4.2600 O.2    21  TYR21      -0.2718
     57  CB        29.0070    1.8220   -1.8320 C.3    21  TYR21       0.0548
     58  CG        28.8180    1.4490   -0.3860 C.ar   21  TYR21      -0.0200
     59  CD1       27.5620    1.5350    0.2100 C.ar   21  TYR21      -0.0009
     60  CD2       29.8810    1.0130    0.3900 C.ar   21  TYR21      -0.0009
     61  CE1       27.3700    1.2020    1.5430 C.ar   21  TYR21       0.0417
     62  CE2       29.7000    0.6770    1.7210 C.ar   21  TYR21       0.0417
     63  CZ        28.4420    0.7760    2.2900 C.ar   21  TYR21       0.1957
     64  OH        28.2540    0.4460    3.6100 O.3    21  TYR21      -0.2866
     65  N         28.9210    1.0570   -5.1660 N.am   22  SER22      -0.1952
     66  CA        28.7780    1.6790   -6.4740 C.3    22  SER22       0.1924
     67  C         27.4840    1.3000   -7.1830 C.2    22  SER22       0.2314
     68  O         27.0410    2.0120   -8.0820 O.2    22  SER22      -0.2863
     69  CB        29.9810    1.3470   -7.3500 C.3    22  SER22       0.2116
     70  OG        30.5060    0.0790   -7.0050 O.3    22  SER22      -0.2180
     71  N         25.7550    5.2390   -6.3240 N.3    29  GLY29      -0.1210
     72  CA        26.4640    5.0730   -7.5690 C.3    29  GLY29       0.1956
     73  C         25.8650    5.7170   -8.7890 C.2    29  GLY29       0.2611
     74  O         26.5130    6.5610   -9.4340 O.2    29  GLY29      -0.2717
     75  N         24.6570    5.3310   -9.1650 N.am   30  TRP30      -0.1976
     76  CA        24.0740    5.9100  -10.3760 C.3    30  TRP30       0.1640
     77  C         23.3940    7.2550  -10.1860 C.2    30  TRP30       0.2290
     78  O         23.6400    8.2010  -10.9280 O.2    30  TRP30      -0.2864
     79  CB        23.1220    4.9380  -11.1020 C.3    30  TRP30       0.0576
     80  CG        23.4570    4.8750  -12.5330 C.ar   30  TRP30       0.0006
     81  CD1       24.7010    4.7640  -13.0780 C.ar   30  TRP30       0.0946
     82  CD2       22.5410    4.9050  -13.6470 C.ar   30  TRP30       0.0152
     83  NE1       24.6270    4.7170  -14.4360 N.ar   30  TRP30      -0.2442
     84  CE2       23.3240    4.8010  -14.8270 C.ar   30  TRP30       0.0810
     85  CE3       21.1490    5.0150  -13.7500 C.ar   30  TRP30       0.0012
     86  CZ2       22.7400    4.8050  -16.1050 C.ar   30  TRP30       0.0191
     87  CZ3       20.5570    5.0180  -15.0400 C.ar   30  TRP30       0.0001
     88  CH2       21.3520    4.9140  -16.1890 C.ar   30  TRP30       0.0015
     89  N         33.8130   14.3910   -8.1060 N.3    60  LYS60      -0.1245
     90  CA        34.4920   13.2020   -8.5850 C.3    60  LYS60       0.1561
     91  C         35.9900   13.3280   -8.8280 C.2    60  LYS60       0.2260
     92  O         36.7010   12.3320   -8.7220 O.2    60  LYS60      -0.2867
     93  CB        33.8190   12.7040   -9.8550 C.3    60  LYS60       0.0271
     94  CG        32.5430   11.9310   -9.6210 C.3    60  LYS60       0.0035
     95  CD        31.6100   11.9240  -10.8340 C.3    60  LYS60       0.0206
     96  CE        31.7660   10.6970  -11.7170 C.3    60  LYS60       0.1093
     97  NZ        30.5190   10.4240  -12.5100 N.3    60  LYS60      -0.1314
@<TRIPOS>BOND
     1    88    86   ar
     2    88    87   ar
     3    86    84   ar
     4    87    85   ar
     5    84    83   ar
     6    84    82   ar
     7    83    81   ar
     8    85    82   ar
     9    82    80   ar
    10    81    80   ar
    11    80    79    1
    12    97    96    1
    13    96    95    1
    14    79    76    1
    15    78    77    2
    16    95    94    1
    17    76    77    1
    18    76    75    1
    19    93    94    1
    20    93    90    1
    21    74    73    2
    22    75    73   am
    23    91    92    2
    24    91    90    1
    25    73    72    1
    26    90    89    1
    27     7     6    1
    28    68    67    2
    29    51    49    1
    30    52    50    1
    31    72    71    1
    32    69    70    1
    33    69    66    1
    34     6     5    1
    35     6     8    1
    36    67    66    1
    37    50    49    1
    38    16    14    1
    39     5     2    1
    40    15    14    1
    41    49    46    1
    42    66    65    1
    43    14    13    1
    44     1     2    1
    45     2     3    1
    46    46    47    1
    47    46    45    1
    48    65    55   am
    49     9     3   am
    50     9    10    1
    51    47    48    2
    52     3     4    2
    53    13    10    1
    54    56    55    2
    55    45    42   am
    56    10    11    1
    57    55    54    1
    58    43    42    2
    59    42    41    1
    60    54    53    1
    61    54    57    1
    62    11    12    2
    63    44    41    1
    64    24    26   ar
    65    24    22   ar
    66    41    40    1
    67    26    27   ar
    68    57    58    1
    69    21    22    1
    70    21    18    1
    71    28    29    1
    72    28    19   am
    73    29    30    1
    74    22    23   ar
    75    17    18    1
    76    18    19    1
    77    27    25   ar
    78    19    20    2
    79    39    37    1
    80    58    59   ar
    81    58    60   ar
    82    30    31    2
    83    23    25   ar
    84    59    61   ar
    85    60    62   ar
    86    37    36    1
    87    61    63   ar
    88    36    38    1
    89    36    33    1
    90    62    63   ar
    91    63    64    1
    92    32    33    1
    93    33    34    1
    94    34    35    2
