@<TRIPOS>MOLECULE
tmp/4eixA01.pdb
 99 100 0 0 0
SMALL
GASTEIGER

@<TRIPOS>ATOM
      1  N         25.7550    5.2390   -6.3240 N.3    29  GLY29      -0.1210
      2  CA        26.4640    5.0730   -7.5690 C.3    29  GLY29       0.1956
      3  C         25.8650    5.7170   -8.7890 C.2    29  GLY29       0.2612
      4  O         26.5130    6.5610   -9.4340 O.2    29  GLY29      -0.2717
      5  N         24.6570    5.3310   -9.1650 N.am   30  TRP30      -0.1962
      6  CA        24.0740    5.9100  -10.3760 C.3    30  TRP30       0.1771
      7  C         23.3940    7.2550  -10.1860 C.2    30  TRP30       0.2620
      8  O         23.6400    8.2010  -10.9280 O.2    30  TRP30      -0.2715
      9  CB        23.1220    4.9380  -11.1020 C.3    30  TRP30       0.0590
     10  CG        23.4570    4.8750  -12.5330 C.ar   30  TRP30       0.0006
     11  CD1       24.7010    4.7640  -13.0780 C.ar   30  TRP30       0.0946
     12  CD2       22.5410    4.9050  -13.6470 C.ar   30  TRP30       0.0152
     13  NE1       24.6270    4.7170  -14.4360 N.ar   30  TRP30      -0.2442
     14  CE2       23.3240    4.8010  -14.8270 C.ar   30  TRP30       0.0810
     15  CE3       21.1490    5.0150  -13.7500 C.ar   30  TRP30       0.0012
     16  CZ2       22.7400    4.8050  -16.1050 C.ar   30  TRP30       0.0191
     17  CZ3       20.5570    5.0180  -15.0400 C.ar   30  TRP30       0.0001
     18  CH2       21.3520    4.9140  -16.1890 C.ar   30  TRP30       0.0015
     19  N         22.5250    7.3470   -9.1870 N.am   31  GLY31      -0.1954
     20  CA        21.8120    8.5840   -8.9300 C.3    31  GLY31       0.1869
     21  C         20.4240    8.5850   -9.5410 C.2    31  GLY31       0.2309
     22  O         19.4970    8.0030   -8.9790 O.2    31  GLY31      -0.2863
     23  N         23.8340   12.3340   -2.9560 N.3    48  ASP48      -0.1239
     24  CA        23.6090   12.8570   -4.2980 C.3    48  ASP48       0.1674
     25  C         22.9780   14.2380   -4.1810 C.2    48  ASP48       0.2266
     26  O         23.1210   15.0840   -5.0640 O.2    48  ASP48      -0.2867
     27  CB        22.6970   11.9230   -5.0940 C.3    48  ASP48       0.1410
     28  CG        23.3810   10.6250   -5.4740 C.2    48  ASP48       0.3668
     29  OD1       24.5760   10.4620   -5.1460 O.co2  48  ASP48      -0.2456
     30  OD2       22.7250    9.7660   -6.1010 O.co2  48  ASP48      -0.2456
     31  N         25.9960   16.8250   -3.1900 N.3    51  TYR51      -0.1227
     32  CA        26.7810   17.2790   -4.3320 C.3    51  TYR51       0.1736
     33  C         25.9630   18.2460   -5.1850 C.2    51  TYR51       0.2596
     34  O         26.5230   19.0910   -5.8820 O.2    51  TYR51      -0.2718
     35  CB        27.2320   16.0920   -5.1970 C.3    51  TYR51       0.0548
     36  CG        28.3900   15.2720   -4.6500 C.ar   51  TYR51      -0.0200
     37  CD1       29.1000   15.6740   -3.5100 C.ar   51  TYR51      -0.0009
     38  CD2       28.7900   14.0970   -5.2890 C.ar   51  TYR51      -0.0009
     39  CE1       30.1750   14.9240   -3.0220 C.ar   51  TYR51       0.0417
     40  CE2       29.8580   13.3420   -4.8130 C.ar   51  TYR51       0.0417
     41  CZ        30.5440   13.7570   -3.6810 C.ar   51  TYR51       0.1957
     42  OH        31.5790   12.9880   -3.2160 O.3    51  TYR51      -0.2866
     43  N         24.6400   18.1280   -5.1080 N.am   52  GLY52      -0.1957
     44  CA        23.7580   18.9820   -5.8850 C.3    52  GLY52       0.1869
     45  C         23.7580   20.4560   -5.5260 C.2    52  GLY52       0.2309
     46  O         23.3710   21.2870   -6.3480 O.2    52  GLY52      -0.2863
     47  N         26.4390   22.1510   -4.8450 N.3    54  LEU54      -0.1231
     48  CA        27.7110   22.6940   -5.3170 C.3    54  LEU54       0.1678
     49  C         27.4850   22.4470   -6.7940 C.2    54  LEU54       0.2434
     50  O         27.7930   21.3750   -7.3030 O.2    54  LEU54      -0.2733
     51  CB        28.8700   21.8650   -4.7640 C.3    54  LEU54       0.0284
     52  CG        28.7680   21.4430   -3.2990 C.3    54  LEU54       0.0019
     53  CD1       29.9620   20.6080   -2.9090 C.3    54  LEU54       0.0001
     54  CD2       28.6700   22.6800   -2.4340 C.3    54  LEU54       0.0001
     55  N         26.9360   23.4350   -7.5030 N.am   55  PRO55      -0.2718
     56  CA        26.8950   23.3050   -8.9560 C.3    55  PRO55       0.1535
     57  C         28.2010   23.5310   -9.6760 C.2    55  PRO55       0.2599
     58  O         28.4430   22.9560  -10.6970 O.2    55  PRO55      -0.2715
     59  CB        25.7900   24.2910   -9.3820 C.3    55  PRO55       0.0310
     60  CG        25.3570   24.9960   -8.0830 C.3    55  PRO55       0.0237
     61  CD        26.4610   24.7590   -7.0950 C.3    55  PRO55       0.0939
     62  N         29.0610   24.3980   -9.1630 N.am   56  ASP56      -0.1958
     63  CA        30.3240   24.6400   -9.8470 C.3    56  ASP56       0.1840
     64  C         31.5690   23.9550   -9.2570 C.2    56  ASP56       0.2622
     65  O         32.6770   24.4110   -9.4300 O.2    56  ASP56      -0.2715
     66  CB        30.5670   26.1700  -10.0150 C.3    56  ASP56       0.1450
     67  CG        29.4650   26.8830  -10.8550 C.2    56  ASP56       0.3671
     68  OD1       29.2820   28.1100  -10.6680 O.co2  56  ASP56      -0.2456
     69  OD2       28.7840   26.2420  -11.6890 O.co2  56  ASP56      -0.2456
     70  N         31.3920   22.8090   -8.5950 N.am   57  CYS57      -0.1954
     71  CA        32.5220   22.0430   -8.0470 C.3    57  CYS57       0.1843
     72  C         32.6020   20.7400   -8.7920 C.2    57  CYS57       0.2625
     73  O         31.7200   20.3560   -9.4900 O.2    57  CYS57      -0.2714
     74  CB        32.3820   21.7540   -6.5410 C.3    57  CYS57       0.0997
     75  SG        32.1410   23.2050   -5.4680 S.3    57  CYS57      -0.0797
     76  N         33.6730   19.9820   -8.6240 N.am   58  ASN58      -0.1958
     77  CA        33.8130   18.7260   -9.3200 C.3    58  ASN58       0.1804
     78  C         34.2020   17.6150   -8.3580 C.2    58  ASN58       0.2463
     79  O         35.3260   17.1070   -8.3540 O.2    58  ASN58      -0.2730
     80  CB        34.8020   18.9200  -10.4780 C.3    58  ASN58       0.1195
     81  CG        34.3870   20.0850  -11.3830 C.2    58  ASN58       0.2630
     82  OD1       33.6370   19.9110  -12.3380 O.2    58  ASN58      -0.2716
     83  ND2       34.8430   21.2870  -11.0470 N.am   58  ASN58      -0.0877
     84  N         33.2130   17.1840   -7.5500 N.am   59  PRO59      -0.2716
     85  CA        33.2860   16.1390   -6.5230 C.3    59  PRO59       0.1536
     86  C         34.0740   14.9060   -6.9150 C.2    59  PRO59       0.2598
     87  O         34.8840   14.4070   -6.1490 O.2    59  PRO59      -0.2715
     88  CB        31.8190   15.8050   -6.2560 C.3    59  PRO59       0.0310
     89  CG        31.1000   17.0670   -6.6150 C.3    59  PRO59       0.0237
     90  CD        31.8030   17.4850   -7.8670 C.3    59  PRO59       0.0939
     91  N         33.8130   14.3910   -8.1060 N.am   60  LYS60      -0.1978
     92  CA        34.4920   13.2020   -8.5850 C.3    60  LYS60       0.1596
     93  C         35.9900   13.3280   -8.8280 C.2    60  LYS60       0.2287
     94  O         36.7010   12.3320   -8.7220 O.2    60  LYS60      -0.2864
     95  CB        33.8190   12.7040   -9.8550 C.3    60  LYS60       0.0298
     96  CG        32.5430   11.9310   -9.6210 C.3    60  LYS60       0.0038
     97  CD        31.6100   11.9240  -10.8340 C.3    60  LYS60       0.0206
     98  CE        31.7660   10.6970  -11.7170 C.3    60  LYS60       0.1093
     99  NZ        30.5190   10.4240  -12.5100 N.3    60  LYS60      -0.1314
@<TRIPOS>BOND
     1    18    16   ar
     2    18    17   ar
     3    16    14   ar
     4    17    15   ar
     5    14    13   ar
     6    14    12   ar
     7    13    11   ar
     8    15    12   ar
     9    12    10   ar
    10    11    10   ar
    11    10     9    1
    12    99    98    1
    13    82    81    2
    14    98    97    1
    15    69    67   ar
    16    81    83   am
    17    81    80    1
    18     9     6    1
    19     8     7    2
    20    67    68   ar
    21    67    66    1
    22    97    96    1
    23    58    57    2
    24    80    77    1
    25     6     7    1
    26     6     5    1
    27     7    19   am
    28    66    63    1
    29    95    96    1
    30    95    92    1
    31    63    64    1
    32    63    62    1
    33    57    62   am
    34    57    56    1
    35    21    22    2
    36    21    20    1
    37    73    72    2
    38     4     3    2
    39    65    64    2
    40    59    56    1
    41    59    60    1
    42    77    76    1
    43    77    78    1
    44    64    70   am
    45    19    20    1
    46     5     3   am
    47    56    55    1
    48    93    94    2
    49    93    92    1
    50    72    76   am
    51    72    71    1
    52     3     2    1
    53    70    71    1
    54    92    91    1
    55    78    79    2
    56    78    84   am
    57    91    86   am
    58    60    61    1
    59    71    74    1
    60    90    84    1
    61    90    89    1
    62     2     1    1
    63    84    85    1
    64    55    61    1
    65    55    49   am
    66    50    49    2
    67    86    85    1
    68    86    87    2
    69    49    48    1
    70    89    88    1
    71    74    75    1
    72    85    88    1
    73    46    45    2
    74    30    28   ar
    75    44    45    1
    76    44    43    1
    77    34    33    2
    78    28    29   ar
    79    28    27    1
    80    48    47    1
    81    48    51    1
    82    38    40   ar
    83    38    36   ar
    84    35    36    1
    85    35    32    1
    86    33    43   am
    87    33    32    1
    88    27    24    1
    89    26    25    2
    90    40    41   ar
    91    51    52    1
    92    36    37   ar
    93    32    31    1
    94    24    25    1
    95    24    23    1
    96    41    42    1
    97    41    39   ar
    98    37    39   ar
    99    52    53    1
   100    52    54    1
