@<TRIPOS>MOLECULE
tmp/4eiyA10.pdb
 125 119 0 0 0
SMALL
GASTEIGER

@<TRIPOS>ATOM
      1  N        -12.0660  -23.5430   12.5190 N.3    33  VAL33      -0.1245
      2  CA       -11.9370  -24.2410   13.8100 C.3    33  VAL33       0.1561
      3  C        -13.2720  -24.8260   14.2560 C.2    33  VAL33       0.2260
      4  O        -13.3180  -25.9490   14.7610 O.2    33  VAL33      -0.2867
      5  CB       -11.3220  -23.3480   14.9070 C.3    33  VAL33       0.0252
      6  CG1      -11.3320  -24.0020   16.3090 C.3    33  VAL33       0.0019
      7  CG2       -9.8740  -22.9370   14.5180 C.3    33  VAL33       0.0019
      8  N         -7.2350  -22.8170   20.3340 N.3    45  TYR45      -0.1241
      9  CA        -8.1310  -21.9740   21.1280 C.3    45  TYR45       0.1605
     10  C         -7.4980  -20.5910   21.2710 C.2    45  TYR45       0.2264
     11  O         -8.1740  -19.5670   21.1580 O.2    45  TYR45      -0.2867
     12  CB        -8.4200  -22.6110   22.4790 C.3    45  TYR45       0.0534
     13  CG        -9.1570  -23.9540   22.3350 C.ar   45  TYR45      -0.0201
     14  CD1       -9.8570  -24.2740   21.1640 C.ar   45  TYR45      -0.0009
     15  CD2       -9.1540  -24.8790   23.3570 C.ar   45  TYR45      -0.0009
     16  CE1      -10.5310  -25.5060   21.0380 C.ar   45  TYR45       0.0417
     17  CE2       -9.8230  -26.0790   23.2380 C.ar   45  TYR45       0.0417
     18  CZ       -10.4970  -26.3910   22.0750 C.ar   45  TYR45       0.1957
     19  OH       -11.1610  -27.6000   21.9550 O.3    45  TYR45      -0.2866
     20  N         -7.9380  -18.7680   17.9230 N.3    48  VAL48      -0.1231
     21  CA        -9.2770  -18.2030   17.8010 C.3    48  VAL48       0.1692
     22  C         -9.3650  -16.8950   18.6400 C.2    48  VAL48       0.2592
     23  O         -9.9470  -15.9220   18.2050 O.2    48  VAL48      -0.2718
     24  CB       -10.3190  -19.2090   18.2330 C.3    48  VAL48       0.0266
     25  CG1      -11.6950  -18.5210   18.4010 C.3    48  VAL48       0.0020
     26  CG2      -10.3880  -20.4090   17.2090 C.3    48  VAL48       0.0020
     27  N         -8.7700  -16.8820   19.8270 N.am   49  SER49      -0.1952
     28  CA        -8.7410  -15.6620   20.6430 C.3    49  SER49       0.1924
     29  C         -8.0200  -14.5380   19.8660 C.2    49  SER49       0.2314
     30  O         -8.4620  -13.3770   19.8180 O.2    49  SER49      -0.2863
     31  CB        -8.0610  -15.9090   22.0000 C.3    49  SER49       0.2116
     32  OG        -8.0770  -14.7100   22.7650 O.3    49  SER49      -0.2180
     33  N        -10.2740  -13.3580   17.0950 N.3    52  ALA52      -0.1245
     34  CA       -11.3190  -12.4960   17.6810 C.3    52  ALA52       0.1562
     35  C        -10.8130  -11.0760   17.8930 C.2    52  ALA52       0.2260
     36  O        -11.5180  -10.1020   17.6070 O.2    52  ALA52      -0.2867
     37  CB       -11.8390  -13.0880   19.0350 C.3    52  ALA52       0.0290
     38  N        -12.1770   -7.7000   15.9830 N.3    56  ALA56      -0.1245
     39  CA       -12.4550   -6.4810   16.7660 C.3    56  ALA56       0.1562
     40  C        -11.6800   -5.2820   16.2510 C.2    56  ALA56       0.2260
     41  O        -12.1740   -4.1450   16.3070 O.2    56  ALA56      -0.2867
     42  CB       -12.2260   -6.7100   18.3220 C.3    56  ALA56       0.0290
     43  N        -14.2990   -2.4320   15.4250 N.3    60  LEU60      -0.1245
     44  CA       -14.2460   -1.3570   16.4350 C.3    60  LEU60       0.1561
     45  C        -13.0360   -0.4520   16.3740 C.2    60  LEU60       0.2260
     46  O        -13.2040    0.7810   16.3460 O.2    60  LEU60      -0.2867
     47  CB       -14.4040   -1.9210   17.8400 C.3    60  LEU60       0.0270
     48  CG       -15.7470   -2.5120   18.2130 C.3    60  LEU60       0.0019
     49  CD1      -15.6150   -3.1450   19.6300 C.3    60  LEU60       0.0001
     50  CD2      -16.8620   -1.4660   18.1760 C.3    60  LEU60       0.0001
     51  N        -12.9230    3.5170   15.3550 N.3    64  PHE64      -0.1241
     52  CA       -12.4350    4.4430   16.3840 C.3    64  PHE64       0.1605
     53  C        -11.2510    5.2750   15.8350 C.2    64  PHE64       0.2264
     54  O        -11.1330    6.4670   16.1250 O.2    64  PHE64      -0.2867
     55  CB       -11.9800    3.6760   17.6390 C.3    64  PHE64       0.0534
     56  CG       -13.1040    3.0770   18.4690 C.ar   64  PHE64      -0.0203
     57  CD1      -14.4550    3.2570   18.1690 C.ar   64  PHE64      -0.0042
     58  CD2      -12.7780    2.3630   19.6300 C.ar   64  PHE64      -0.0042
     59  CE1      -15.4520    2.6710   18.9800 C.ar   64  PHE64      -0.0003
     60  CE2      -13.7620    1.8010   20.4310 C.ar   64  PHE64      -0.0003
     61  CZ       -15.1010    1.9700   20.1040 C.ar   64  PHE64      -0.0000
     62  N        -11.0450    6.4710   25.7660 N.3    81  PHE81      -0.1241
     63  CA       -11.5120    5.1450   25.4440 C.3    81  PHE81       0.1605
     64  C        -11.3320    4.8390   23.9520 C.2    81  PHE81       0.2264
     65  O        -10.8160    3.7810   23.5860 O.2    81  PHE81      -0.2867
     66  CB       -12.9440    4.9210   25.8930 C.3    81  PHE81       0.0534
     67  CG       -13.4390    3.5740   25.5870 C.ar   81  PHE81      -0.0203
     68  CD1      -13.1170    2.4930   26.3920 C.ar   81  PHE81      -0.0042
     69  CD2      -14.1970    3.3440   24.4600 C.ar   81  PHE81      -0.0042
     70  CE1      -13.5920    1.2150   26.0730 C.ar   81  PHE81      -0.0003
     71  CE2      -14.6400    2.1000   24.1500 C.ar   81  PHE81      -0.0003
     72  CZ       -14.3420    1.0280   24.9410 C.ar   81  PHE81      -0.0000
     73  N         -8.7240    1.8020   23.2110 N.3    85  PHE85      -0.1241
     74  CA        -9.3530    0.4860   22.9890 C.3    85  PHE85       0.1605
     75  C         -8.4540   -0.4400   22.1400 C.2    85  PHE85       0.2264
     76  O         -8.2990   -1.6140   22.4550 O.2    85  PHE85      -0.2867
     77  CB       -10.7720    0.5890   22.3760 C.3    85  PHE85       0.0534
     78  CG       -11.4590   -0.7650   22.2570 C.ar   85  PHE85      -0.0203
     79  CD1      -11.8280   -1.4520   23.3840 C.ar   85  PHE85      -0.0042
     80  CD2      -11.6490   -1.3660   21.0430 C.ar   85  PHE85      -0.0042
     81  CE1      -12.4080   -2.6960   23.3030 C.ar   85  PHE85      -0.0003
     82  CE2      -12.2430   -2.6270   20.9650 C.ar   85  PHE85      -0.0003
     83  CZ       -12.6090   -3.2760   22.0960 C.ar   85  PHE85      -0.0000
     84  N         -9.2580  -22.1680   28.3290 N.3   124  LYS124     -0.1245
     85  CA       -10.3590  -21.1910   28.3850 C.3   124  LYS124      0.1561
     86  C        -10.2260  -20.2280   29.5770 C.2   124  LYS124      0.2260
     87  O        -10.5260  -19.0410   29.4620 O.2   124  LYS124     -0.2867
     88  CB       -11.7260  -21.8940   28.4250 C.3   124  LYS124      0.0271
     89  CG       -12.1570  -22.4510   27.0920 C.3   124  LYS124      0.0035
     90  CD       -13.4360  -23.3030   27.1890 C.3   124  LYS124      0.0206
     91  CE       -13.4110  -24.4420   26.1660 C.3   124  LYS124      0.1093
     92  NZ       -14.3850  -25.5270   26.4760 N.3   124  LYS124     -0.1314
     93  N         -7.3480  -17.7560   28.7320 N.3   127  ILE127     -0.1245
     94  CA        -7.8620  -16.7910   27.7500 C.3   127  ILE127      0.1561
     95  C         -8.7460  -15.7050   28.4220 C.2   127  ILE127      0.2260
     96  O         -8.5840  -14.4920   28.1720 O.2   127  ILE127     -0.2867
     97  CB        -8.6160  -17.5170   26.6130 C.3   127  ILE127      0.0252
     98  CG1       -7.6090  -18.3210   25.7850 C.3   127  ILE127      0.0019
     99  CG2       -9.4580  -16.5000   25.7510 C.3   127  ILE127      0.0019
    100  CD1       -8.2460  -19.2910   24.8180 C.3   127  ILE127      0.0001
    101  N         -7.8470  -11.6950   28.7130 N.3   131  TRP131     -0.1241
    102  CA        -8.7090  -10.6030   28.2350 C.3   131  TRP131      0.1605
    103  C         -8.9400   -9.5720   29.3220 C.2   131  TRP131      0.2264
    104  O         -8.9010   -8.3650   29.0490 O.2   131  TRP131     -0.2867
    105  CB       -10.0210  -11.1100   27.6720 C.3   131  TRP131      0.0550
    106  CG        -9.9320  -11.5390   26.2220 C.ar  131  TRP131      0.0003
    107  CD1       -9.8250  -12.8090   25.7370 C.ar  131  TRP131      0.0946
    108  CD2       -9.8970  -10.6700   25.0910 C.ar  131  TRP131      0.0152
    109  NE1       -9.7640  -12.7870   24.3530 N.ar  131  TRP131     -0.2442
    110  CE2       -9.7960  -11.4830   23.9350 C.ar  131  TRP131      0.0810
    111  CE3       -9.9390   -9.2730   24.9400 C.ar  131  TRP131      0.0012
    112  CZ2       -9.7480  -10.9430   22.6510 C.ar  131  TRP131      0.0191
    113  CZ3       -9.8900   -8.7440   23.6730 C.ar  131  TRP131      0.0001
    114  CH2       -9.7840   -9.5760   22.5460 C.ar  131  TRP131      0.0015
    115  N         -7.7510   -5.5730   29.1520 N.3   135  PHE135     -0.1241
    116  CA        -8.5640   -4.3900   29.4350 C.3   135  PHE135      0.1605
    117  C         -7.8910   -3.4690   30.4630 C.2   135  PHE135      0.2264
    118  O         -7.7980   -2.2430   30.2290 O.2   135  PHE135     -0.2867
    119  CB        -9.9990   -4.7720   29.8190 C.3   135  PHE135      0.0534
    120  CG       -10.8910   -4.9330   28.6450 C.ar  135  PHE135     -0.0203
    121  CD1      -11.0760   -6.1700   28.0280 C.ar  135  PHE135     -0.0042
    122  CD2      -11.5700   -3.8360   28.1160 C.ar  135  PHE135     -0.0042
    123  CE1      -11.9070   -6.2930   26.9520 C.ar  135  PHE135     -0.0003
    124  CE2      -12.3840   -3.9880   27.0180 C.ar  135  PHE135     -0.0003
    125  CZ       -12.5500   -5.2070   26.4470 C.ar  135  PHE135     -0.0000
@<TRIPOS>BOND
     1     1     2    1
     2     2     3    1
     3     2     5    1
     4     3     4    2
     5     7     5    1
     6     5     6    1
     7    51    52    1
     8    43    44    1
     9    53    54    2
    10    53    52    1
    11    38    39    1
    12    40    41    2
    13    40    39    1
    14    46    45    2
    15    45    44    1
    16    52    55    1
    17    44    47    1
    18    39    42    1
    19    33    34    1
    20    26    24    1
    21    36    35    2
    22    55    56    1
    23    34    35    1
    24    34    37    1
    25    21    20    1
    26    21    24    1
    27    21    22    1
    28    47    48    1
    29    57    56   ar
    30    57    59   ar
    31    50    48    1
    32    23    22    2
    33    48    49    1
    34    24    25    1
    35    56    58   ar
    36    22    27   am
    37    59    61   ar
    38    58    60   ar
    39    30    29    2
    40    27    28    1
    41    29    28    1
    42    61    60   ar
    43     8     9    1
    44    28    31    1
    45    82    80   ar
    46    82    83   ar
    47    16    14   ar
    48    16    18   ar
    49    80    78   ar
    50     9    10    1
    51     9    12    1
    52    11    10    2
    53    14    13   ar
    54    19    18    1
    55    31    32    1
    56    18    17   ar
    57    83    81   ar
    58    75    76    2
    59    75    74    1
    60    78    77    1
    61    78    79   ar
    62    13    12    1
    63    13    15   ar
    64    77    74    1
    65   114   112   ar
    66   114   113   ar
    67   112   110   ar
    68    74    73    1
    69    17    15   ar
    70    81    79   ar
    71    65    64    2
    72   113   111   ar
    73   110   109   ar
    74   110   108   ar
    75    64    63    1
    76    71    69   ar
    77    71    72   ar
    78   109   107   ar
    79    69    67   ar
    80   100    98    1
    81   111   108   ar
    82    72    70   ar
    83   108   106   ar
    84    63    62    1
    85    63    66    1
    86    67    66    1
    87    67    68   ar
    88   107   106   ar
    89    99    97    1
    90    98    97    1
    91    70    68   ar
    92    91    92    1
    93    91    90    1
    94   106   105    1
    95   125   123   ar
    96   125   124   ar
    97    97    94    1
    98   123   121   ar
    99   124   122   ar
   100    89    90    1
   101    89    88    1
   102   105   102    1
   103    94    95    1
   104    94    93    1
   105   121   120   ar
   106   122   120   ar
   107    96    95    2
   108   102   101    1
   109   102   103    1
   110    84    85    1
   111    85    88    1
   112    85    86    1
   113   120   119    1
   114   104   103    2
   115   115   116    1
   116   116   119    1
   117   116   117    1
   118    87    86    2
   119   118   117    2
