@<TRIPOS>MOLECULE
tmp/4ej2A00.pdb
 224 215 0 0 0
SMALL
GASTEIGER

@<TRIPOS>ATOM
      1  N         33.0020   20.1960   39.2810 N.3    77  GLU77      -0.1245
      2  CA        31.6870   20.6390   38.8560 C.3    77  GLU77       0.1567
      3  C         30.7180   19.4940   38.6020 C.2    77  GLU77       0.2260
      4  O         31.0570   18.5060   37.9240 O.2    77  GLU77      -0.2867
      5  CB        31.8090   21.5450   37.6380 C.3    77  GLU77       0.0388
      6  CG        32.5960   22.7840   37.9500 C.3    77  GLU77       0.1160
      7  CD        32.5420   23.8070   36.8850 C.2    77  GLU77       0.3649
      8  OE1       33.5520   24.5280   36.7510 O.co2  77  GLU77      -0.2457
      9  OE2       31.5010   23.8840   36.1830 O.co2  77  GLU77      -0.2457
     10  N         29.3410   25.5750   36.0440 N.3   122  ASN122     -0.1225
     11  CA        29.2420   26.7280   35.1850 C.3   122  ASN122      0.1785
     12  C         28.5540   26.5020   33.8910 C.2   122  ASN122      0.2598
     13  O         27.9140   27.4170   33.4180 O.2   122  ASN122     -0.2718
     14  CB        30.6100   27.2960   34.8170 C.3   122  ASN122      0.1169
     15  CG        31.2860   27.9850   35.9710 C.2   122  ASN122      0.2627
     16  OD1       30.9390   29.1060   36.3470 O.2   122  ASN122     -0.2716
     17  ND2       32.2300   27.2950   36.5690 N.am  122  ASN122     -0.0877
     18  N         28.7120   25.3370   33.2680 N.am  123  GLY123     -0.1942
     19  CA        28.2860   25.1500   31.8680 C.3   123  GLY123      0.2014
     20  C         28.4590   23.7130   31.4150 C.2   123  GLY123      0.2639
     21  O         28.1140   22.7700   32.1600 O.2   123  GLY123     -0.2714
     22  N         29.0220   23.5270   30.2230 N.am  124  GLY124     -0.1939
     23  CA        29.0180   22.2340   29.5580 C.3   124  GLY124      0.2014
     24  C         29.8290   21.2030   30.3160 C.2   124  GLY124      0.2638
     25  O         29.4790   20.0230   30.3730 O.2   124  GLY124     -0.2714
     26  N         30.9200   21.6470   30.9160 N.am  125  LEU125     -0.1977
     27  CA        31.8040   20.7540   31.6670 C.3   125  LEU125      0.1596
     28  C         31.0810   20.1520   32.9050 C.2   125  LEU125      0.2287
     29  O         31.1140   18.9250   33.1060 O.2   125  LEU125     -0.2864
     30  CB        33.1490   21.4520   31.9920 C.3   125  LEU125      0.0297
     31  CG        34.2560   20.8060   32.8430 C.3   125  LEU125      0.0022
     32  CD1       35.5880   21.4840   32.6050 C.3   125  LEU125      0.0001
     33  CD2       33.9330   20.9030   34.3240 C.3   125  LEU125      0.0001
     34  N         28.2470   17.9640   31.5990 N.3   128  LEU128     -0.1245
     35  CA        28.7410   16.6620   31.1330 C.3   128  LEU128      0.1561
     36  C         28.7980   15.7130   32.3040 C.2   128  LEU128      0.2260
     37  O         28.3260   14.5940   32.2080 O.2   128  LEU128     -0.2867
     38  CB        30.1260   16.7490   30.5410 C.3   128  LEU128      0.0270
     39  CG        30.4960   15.5080   29.7180 C.3   128  LEU128      0.0019
     40  CD1       29.7090   15.5040   28.4440 C.3   128  LEU128      0.0001
     41  CD2       31.9970   15.4520   29.3680 C.3   128  LEU128      0.0001
     42  N         34.4520   31.4360   36.7330 N.3   265  ASN265     -0.1225
     43  CA        35.1290   31.5460   35.4180 C.3   265  ASN265      0.1785
     44  C         34.9920   30.3200   34.5850 C.2   265  ASN265      0.2597
     45  O         35.3310   29.2550   35.0650 O.2   265  ASN265     -0.2718
     46  CB        36.6390   31.5490   35.5470 C.3   265  ASN265      0.1169
     47  CG        37.1370   32.5930   36.4330 C.2   265  ASN265      0.2627
     48  OD1       36.8880   33.7790   36.2040 O.2   265  ASN265     -0.2716
     49  ND2       37.8950   32.1790   37.4620 N.am  265  ASN265     -0.0877
     50  N         34.6510   30.4440   33.3170 N.am  266  ASP266     -0.1974
     51  CA        34.9610   29.3450   32.4330 C.3   266  ASP266      0.1709
     52  C         35.8070   29.8000   31.2240 C.2   266  ASP266      0.2293
     53  O         36.1850   28.9970   30.3510 O.2   266  ASP266     -0.2864
     54  CB        33.6850   28.7160   32.0060 C.3   266  ASP266      0.1436
     55  CG        32.7630   29.7010   31.4450 C.2   266  ASP266      0.3671
     56  OD1       32.8370   30.8840   31.8750 O.co2 266  ASP266     -0.2456
     57  OD2       31.9950   29.2960   30.5540 O.co2 266  ASP266     -0.2456
     58  N         38.8120   32.0100   31.6980 N.3   268  PHE268     -0.1241
     59  CA        40.1600   32.4170   32.0220 C.3   268  PHE268      0.1605
     60  C         40.7160   31.4200   33.0710 C.2   268  PHE268      0.2264
     61  O         40.0220   30.4550   33.4500 O.2   268  PHE268     -0.2867
     62  CB        40.0530   33.8480   32.5560 C.3   268  PHE268      0.0534
     63  CG        41.2570   34.6970   32.3090 C.ar  268  PHE268     -0.0203
     64  CD1       41.7870   34.8430   31.0130 C.ar  268  PHE268     -0.0042
     65  CD2       41.8560   35.3990   33.3840 C.ar  268  PHE268     -0.0042
     66  CE1       42.9480   35.6670   30.7770 C.ar  268  PHE268     -0.0003
     67  CE2       43.0060   36.2200   33.1840 C.ar  268  PHE268     -0.0003
     68  CZ        43.5610   36.3560   31.8720 C.ar  268  PHE268     -0.0000
     69  N         39.0210   17.2560   33.2680 N.3   313  ASP313     -0.1225
     70  CA        39.9530   18.3360   33.0130 C.3   313  ASP313      0.1805
     71  C         41.0530   18.2750   34.0390 C.2   313  ASP313      0.2598
     72  O         41.1740   17.3020   34.7630 O.2   313  ASP313     -0.2718
     73  CB        39.2860   19.7170   32.9200 C.3   313  ASP313      0.1424
     74  CG        40.0750   20.6430   32.0190 C.2   313  ASP313      0.3668
     75  OD1       39.7470   20.9550   30.8460 O.co2 313  ASP313     -0.2456
     76  OD2       41.1490   20.9660   32.4700 O.co2 313  ASP313     -0.2456
     77  N         41.8700   19.2980   34.1290 N.am  314  THR314     -0.1939
     78  CA        43.0140   19.1760   34.9890 C.3   314  THR314      0.2028
     79  C         42.6940   19.6390   36.3970 C.2   314  THR314      0.2642
     80  O         43.5720   19.6750   37.2450 O.2   314  THR314     -0.2714
     81  CB        44.1920   20.0030   34.4530 C.3   314  THR314      0.1808
     82  OG1       43.8630   21.3830   34.5620 O.3   314  THR314     -0.2208
     83  CG2       44.4880   19.6640   32.9960 C.3   314  THR314      0.0379
     84  N         41.4470   20.0100   36.6570 N.am  315  HIS315     -0.1973
     85  CA        41.0920   20.5130   37.9790 C.3   315  HIS315      0.1656
     86  C         41.4350   19.5530   39.1080 C.2   315  HIS315      0.2291
     87  O         41.8660   19.9920   40.1720 O.2   315  HIS315     -0.2864
     88  CB        39.6280   20.9550   38.0290 C.3   315  HIS315      0.0771
     89  CG        39.2510   21.8690   36.9000 C.ar  315  HIS315      0.0820
     90  ND1       37.9550   21.9950   36.4440 N.ar  315  HIS315     -0.2267
     91  CD2       40.0110   22.6720   36.1110 C.ar  315  HIS315      0.1154
     92  CE1       37.9300   22.8640   35.4440 C.ar  315  HIS315      0.1986
     93  NE2       39.1650   23.2810   35.2160 N.ar  315  HIS315     -0.2212
     94  N         42.5240   11.1290   31.6940 N.3   348  TYR348     -0.1241
     95  CA        42.3310   12.5400   31.6340 C.3   348  TYR348      0.1605
     96  C         41.5510   12.9550   30.4030 C.2   348  TYR348      0.2264
     97  O         41.8870   12.5660   29.2830 O.2   348  TYR348     -0.2867
     98  CB        43.7180   13.1810   31.6640 C.3   348  TYR348      0.0534
     99  CG        43.8190   14.5860   31.1570 C.ar  348  TYR348     -0.0201
    100  CD1       44.6190   14.8830   30.0560 C.ar  348  TYR348     -0.0009
    101  CD2       43.1250   15.6300   31.7720 C.ar  348  TYR348     -0.0009
    102  CE1       44.7460   16.1960   29.5670 C.ar  348  TYR348      0.0417
    103  CE2       43.2210   16.9400   31.2700 C.ar  348  TYR348      0.0417
    104  CZ        44.0430   17.2130   30.1720 C.ar  348  TYR348      0.1957
    105  OH        44.1600   18.4980   29.6880 O.3   348  TYR348     -0.2866
    106  N         40.4390   16.2810   28.2500 N.3   350  ASN350     -0.1225
    107  CA        40.7300   17.7010   28.0550 C.3   350  ASN350      0.1785
    108  C         39.4860   18.3340   27.4810 C.2   350  ASN350      0.2597
    109  O         38.8280   17.7270   26.6530 O.2   350  ASN350     -0.2718
    110  CB        41.9510   17.8610   27.1320 C.3   350  ASN350      0.1169
    111  CG        42.0930   19.2710   26.5160 C.2   350  ASN350      0.2627
    112  OD1       41.4000   19.6210   25.5610 O.2   350  ASN350     -0.2716
    113  ND2       43.0490   20.0390   27.0130 N.am  350  ASN350     -0.0877
    114  N         39.1660   19.5610   27.9000 N.am  351  HIS351     -0.1961
    115  CA        37.9370   20.1830   27.4130 C.3   351  HIS351      0.1787
    116  C         38.1160   21.4270   26.5670 C.2   351  HIS351      0.2620
    117  O         37.1370   22.0640   26.2010 O.2   351  HIS351     -0.2715
    118  CB        37.0460   20.5160   28.5800 C.3   351  HIS351      0.0785
    119  CG        36.5150   19.3230   29.2790 C.ar  351  HIS351      0.0821
    120  ND1       35.3570   18.6940   28.8900 N.ar  351  HIS351     -0.2267
    121  CD2       36.9730   18.6400   30.3530 C.ar  351  HIS351      0.1154
    122  CE1       35.1120   17.6770   29.7000 C.ar  351  HIS351      0.1986
    123  NE2       36.0790   17.6200   30.5950 N.ar  351  HIS351     -0.2212
    124  N         39.3530   21.8070   26.2820 N.am  352  THR352     -0.1951
    125  CA        39.5650   23.0250   25.5020 C.3   352  THR352      0.1897
    126  C         40.9880   23.1380   24.9960 C.2   352  THR352      0.2313
    127  O         41.9070   22.5230   25.5540 O.2   352  THR352     -0.2863
    128  CB        39.3320   24.2680   26.3390 C.3   352  THR352      0.1794
    129  OG1       39.3580   25.4250   25.4900 O.3   352  THR352     -0.2208
    130  CG2       40.4510   24.3920   27.4060 C.3   352  THR352      0.0378
    131  N         42.7470   29.2560   28.9830 N.3   357  ALA357     -0.1231
    132  CA        41.9530   28.3340   29.7860 C.3   357  ALA357      0.1694
    133  C         42.8050   27.2660   30.5230 C.2   357  ALA357      0.2592
    134  O         42.2960   26.6020   31.4050 O.2   357  ALA357     -0.2718
    135  CB        40.9250   27.6700   28.9340 C.3   357  ALA357      0.0304
    136  N         44.0910   27.1010   30.1820 N.am  358  LEU358     -0.1966
    137  CA        44.9020   26.0370   30.7820 C.3   358  LEU358      0.1728
    138  C         45.4980   26.3740   32.1550 C.2   358  LEU358      0.2616
    139  O         46.0020   27.4660   32.3420 O.2   358  LEU358     -0.2715
    140  CB        46.0530   25.6420   29.8690 C.3   358  LEU358      0.0311
    141  CG        45.8600   25.0820   28.4590 C.3   358  LEU358      0.0022
    142  CD1       47.2120   24.3840   28.0720 C.3   358  LEU358      0.0001
    143  CD2       44.6400   24.1390   28.2700 C.3   358  LEU358      0.0001
    144  N         45.4510   25.4160   33.0920 N.am  359  GLU359     -0.1977
    145  CA        45.9600   25.6140   34.4420 C.3   359  GLU359      0.1602
    146  C         47.4530   25.5770   34.4550 C.2   359  GLU359      0.2287
    147  O         48.0480   24.5640   34.1200 O.2   359  GLU359     -0.2864
    148  CB        45.4200   24.5560   35.3880 C.3   359  GLU359      0.0415
    149  CG        43.9440   24.6860   35.5640 C.3   359  GLU359      0.1163
    150  CD        43.4430   23.9630   36.7670 C.2   359  GLU359      0.3649
    151  OE1       43.4260   22.7100   36.7720 O.co2 359  GLU359     -0.2457
    152  OE2       43.0450   24.6660   37.7060 O.co2 359  GLU359     -0.2457
    153  N         48.2270   20.2730   32.5410 N.3   416  ALA416     -0.1245
    154  CA        47.9390   19.3640   31.4150 C.3   416  ALA416      0.1562
    155  C         49.0920   18.3680   31.2040 C.2   416  ALA416      0.2260
    156  O         48.8650   17.1220   31.0610 O.2   416  ALA416     -0.2867
    157  CB        47.6380   20.1080   30.1290 C.3   416  ALA416      0.0290
    158  N         36.9630   15.5460   23.2340 N.3   429  VAL429     -0.1245
    159  CA        35.5290   15.4410   23.5230 C.3   429  VAL429      0.1561
    160  C         34.7210   15.5570   22.2590 C.2   429  VAL429      0.2260
    161  O         33.4980   15.5810   22.2970 O.2   429  VAL429     -0.2867
    162  CB        35.0700   16.3930   24.6600 C.3   429  VAL429      0.0252
    163  CG1       35.6400   15.9560   26.0160 C.3   429  VAL429      0.0019
    164  CG2       35.4350   17.8790   24.3510 C.3   429  VAL429      0.0019
    165  N         31.4330   13.7460   23.1140 N.3   458  ASN458     -0.1240
    166  CA        30.4000   14.0000   24.1200 C.3   458  ASN458      0.1653
    167  C         29.0270   13.5050   23.6930 C.2   458  ASN458      0.2266
    168  O         28.7940   13.1710   22.5290 O.2   458  ASN458     -0.2867
    169  CB        30.3390   15.4850   24.4790 C.3   458  ASN458      0.1155
    170  CG        31.5210   15.9480   25.4040 C.2   458  ASN458      0.2627
    171  OD1       31.8040   17.1500   25.4850 O.2   458  ASN458     -0.2716
    172  ND2       32.1840   15.0020   26.0950 N.am  458  ASN458     -0.0877
    173  N         34.6780   33.6250   22.0570 N.3   547  TYR547     -0.1227
    174  CA        34.7960   32.5420   21.0800 C.3   547  TYR547      0.1736
    175  C         33.4370   32.0130   20.6220 C.2   547  TYR547      0.2595
    176  O         33.3510   31.4620   19.5510 O.2   547  TYR547     -0.2718
    177  CB        35.7490   31.4300   21.5360 C.3   547  TYR547      0.0548
    178  CG        35.1560   30.3140   22.3570 C.ar  547  TYR547     -0.0200
    179  CD1       34.5520   29.2310   21.7500 C.ar  547  TYR547     -0.0009
    180  CD2       35.2880   30.2940   23.7470 C.ar  547  TYR547     -0.0009
    181  CE1       34.0540   28.1730   22.5030 C.ar  547  TYR547      0.0417
    182  CE2       34.7620   29.2410   24.5270 C.ar  547  TYR547      0.0417
    183  CZ        34.1590   28.1990   23.8920 C.ar  547  TYR547      0.1957
    184  OH        33.6460   27.1700   24.6170 O.3   547  TYR547     -0.2866
    185  N         32.3870   32.1980   21.4180 N.am  548  LYS548     -0.1980
    186  CA        31.1040   31.5760   21.0860 C.3   548  LYS548      0.1596
    187  C         30.3290   32.5160   20.1860 C.2   548  LYS548      0.2287
    188  O         29.3120   32.1360   19.5970 O.2   548  LYS548     -0.2864
    189  CB        30.3250   31.1950   22.3290 C.3   548  LYS548      0.0298
    190  CG        30.8140   29.9520   23.0760 C.3   548  LYS548      0.0038
    191  CD        30.3640   30.0370   24.5490 C.3   548  LYS548      0.0206
    192  CE        30.7820   28.8400   25.4180 C.3   548  LYS548      0.1093
    193  NZ        30.1990   27.5390   24.9480 N.3   548  LYS548     -0.1314
    194  N         35.4470   25.6510   19.8400 N.3   646  GLU646     -0.1231
    195  CA        34.4550   24.9510   20.7150 C.3   646  GLU646      0.1699
    196  C         34.7930   23.4670   20.7510 C.2   646  GLU646      0.2592
    197  O         34.5390   22.7910   19.7920 O.2   646  GLU646     -0.2718
    198  CB        33.0070   25.1130   20.1950 C.3   646  GLU646      0.0402
    199  CG        31.8820   24.6000   21.1550 C.3   646  GLU646      0.1161
    200  CD        31.7890   25.4330   22.4390 C.2   646  GLU646      0.3649
    201  OE1       32.5850   25.1750   23.3630 O.co2 646  GLU646     -0.2457
    202  OE2       30.9730   26.3890   22.5210 O.co2 646  GLU646     -0.2457
    203  N         35.3580   22.9590   21.8450 N.am  647  ALA647     -0.1966
    204  CA        35.9220   21.6160   21.8340 C.3   647  ALA647      0.1728
    205  C         34.9300   20.5760   21.3130 C.2   647  ALA647      0.2617
    206  O         35.2700   19.7270   20.4790 O.2   647  ALA647     -0.2715
    207  CB        36.4540   21.2190   23.2160 C.3   647  ALA647      0.0334
    208  N         33.7020   20.6510   21.8270 N.am  648  SER648     -0.1936
    209  CA        32.6310   19.7680   21.3990 C.3   648  SER648      0.2055
    210  C         31.3350   20.4990   21.3700 C.2   648  SER648      0.2644
    211  O         30.7180   20.5420   20.3200 O.2   648  SER648     -0.2714
    212  CB        32.4630   18.5480   22.3150 C.3   648  SER648      0.2130
    213  OG        31.1450   18.0130   22.1450 O.3   648  SER648     -0.2179
    214  N         30.9200   21.0420   22.5180 N.am  649  GLY649     -0.1939
    215  CA        29.5820   21.6000   22.6830 C.3   649  GLY649      0.2014
    216  C         28.5750   20.5110   23.0110 C.2   649  GLY649      0.2639
    217  O         28.6630   19.3550   22.5320 O.2   649  GLY649     -0.2714
    218  N         27.5880   20.8370   23.8280 N.am  650  THR650     -0.1950
    219  CA        26.5780   19.8380   24.0960 C.3   650  THR650      0.1897
    220  C         25.1630   20.3940   23.9800 C.2   650  THR650      0.2313
    221  O         24.2180   19.6450   23.6740 O.2   650  THR650     -0.2863
    222  CB        26.8030   19.1780   25.4170 C.3   650  THR650      0.1794
    223  OG1       26.8350   20.1890   26.4090 O.3   650  THR650     -0.2208
    224  CG2       28.1220   18.4370   25.4110 C.3   650  THR650      0.0378
@<TRIPOS>BOND
     1   176   175    2
     2   188   187    2
     3   197   196    2
     4   194   195    1
     5   187   186    1
     6   198   195    1
     7   198   199    1
     8   211   210    2
     9   206   205    2
    10   175   174    1
    11   175   185   am
    12   195   196    1
    13   196   203   am
    14   174   177    1
    15   174   173    1
    16   186   185    1
    17   186   189    1
    18   199   200    1
    19   205   208   am
    20   205   204    1
    21   210   209    1
    22   210   214   am
    23   209   208    1
    24   209   212    1
    25   177   178    1
    26   179   178   ar
    27   179   181   ar
    28   204   203    1
    29   204   207    1
    30   213   212    1
    31   160   161    2
    32   160   159    1
    33   189   190    1
    34   178   180   ar
    35   200   202   ar
    36   200   201   ar
    37   181   183   ar
    38   214   215    1
    39   168   167    2
    40   217   216    2
    41   215   216    1
    42   216   218   am
    43   190   191    1
    44   165   166    1
    45   158   159    1
    46   159   162    1
    47   221   220    2
    48   167   166    1
    49   180   182   ar
    50   218   219    1
    51   183   182   ar
    52   183   184    1
    53   220   219    1
    54   219   222    1
    55   166   169    1
    56   164   162    1
    57   169   170    1
    58   191   192    1
    59   162   163    1
    60   193   192    1
    61   126   125    1
    62   126   127    2
    63   170   171    2
    64   170   172   am
    65   224   222    1
    66   222   223    1
    67   129   128    1
    68   125   124    1
    69   125   128    1
    70   112   111    2
    71   117   116    2
    72   124   116   am
    73   128   130    1
    74   111   113   am
    75   111   110    1
    76   116   115    1
    77   109   108    2
    78   110   107    1
    79   115   114    1
    80   115   118    1
    81   108   114   am
    82   108   107    1
    83   107   106    1
    84   142   141    1
    85   143   141    1
    86    40    39    1
    87   141   140    1
    88   118   119    1
    89   120   119   ar
    90   120   122   ar
    91   135   132    1
    92   131   132    1
    93   119   121   ar
    94    97    96    2
    95    41    39    1
    96    23    22    1
    97    23    24    1
    98   102   100   ar
    99   102   104   ar
   100   105   104    1
   101   122   123   ar
   102    39    38    1
   103   132   133    1
   104   140   137    1
   105   100    99   ar
   106   157   154    1
   107   104   103   ar
   108   136   133   am
   109   136   137    1
   110    22    20   am
   111    24    25    2
   112    24    26   am
   113    53    52    2
   114   121   123   ar
   115    96    95    1
   116   133   134    2
   117    38    35    1
   118    57    55   ar
   119    66    64   ar
   120    66    68   ar
   121   137   138    1
   122    75    74   ar
   123    26    27    1
   124    64    63   ar
   125   156   155    2
   126    35    34    1
   127    35    36    1
   128    99    98    1
   129    99   101   ar
   130   155   154    1
   131    52    51    1
   132   103   101   ar
   133   154   153    1
   134    20    19    1
   135    20    21    2
   136    55    56   ar
   137    55    54    1
   138    95    98    1
   139    95    94    1
   140    27    30    1
   141    27    28    1
   142    58    59    1
   143    19    18    1
   144    68    67   ar
   145    30    31    1
   146    54    51    1
   147    74    76   ar
   148    74    73    1
   149    59    62    1
   150    59    60    1
   151   138   139    2
   152   138   144   am
   153    37    36    2
   154    63    62    1
   155    63    65   ar
   156    51    50    1
   157    32    31    1
   158    31    33    1
   159    28    29    2
   160    73    70    1
   161    83    81    1
   162    70    69    1
   163    70    71    1
   164    60    61    2
   165   144   145    1
   166    67    65   ar
   167    18    12   am
   168    50    44   am
   169    13    12    2
   170    12    11    1
   171    71    77   am
   172    71    72    2
   173   147   146    2
   174    77    78    1
   175   145   146    1
   176   145   148    1
   177    81    82    1
   178    81    78    1
   179    44    45    2
   180    44    43    1
   181    14    11    1
   182    14    15    1
   183    78    79    1
   184    11    10    1
   185    93    92   ar
   186    93    91   ar
   187   148   149    1
   188    43    46    1
   189    43    42    1
   190    92    90   ar
   191    46    47    1
   192   149   150    1
   193    15    16    2
   194    15    17   am
   195    91    89   ar
   196     9     7   ar
   197    48    47    2
   198    79    84   am
   199    79    80    2
   200    47    49   am
   201    90    89   ar
   202    84    85    1
   203     8     7   ar
   204   150   151   ar
   205   150   152   ar
   206     7     6    1
   207    89    88    1
   208     5     6    1
   209     5     2    1
   210     4     3    2
   211    85    88    1
   212    85    86    1
   213     3     2    1
   214     2     1    1
   215    86    87    2
