@<TRIPOS>MOLECULE
tmp/4ej4A00.pdb
 168 162 0 0 0
SMALL
GASTEIGER

@<TRIPOS>ATOM
      1  N         71.9820   50.9480  -11.0710 N.3    65  GLN65      -0.1245
      2  CA        70.6480   50.6660  -11.5880 C.3    65  GLN65       0.1566
      3  C         69.8890   51.9140  -12.0220 C.2    65  GLN65       0.2260
      4  O         68.8990   51.8190  -12.7470 O.2    65  GLN65      -0.2867
      5  CB        69.8240   49.8780  -10.5740 C.3    65  GLN65       0.0367
      6  CG        69.8290   48.3870  -10.8250 C.3    65  GLN65       0.0905
      7  CD        68.6360   47.7040  -10.2070 C.2    65  GLN65       0.2608
      8  OE1       67.7500   47.2170  -10.9120 O.2    65  GLN65      -0.2717
      9  NE2       68.5990   47.6660   -8.8820 N.am   65  GLN65      -0.0878
     10  N         72.7950   41.7150  -10.0620 N.3    85  LEU85      -0.1245
     11  CA        71.6710   40.7730  -10.1300 C.3    85  LEU85       0.1561
     12  C         71.6390   39.8260   -8.9290 C.2    85  LEU85       0.2260
     13  O         70.6090   39.7010   -8.2380 O.2    85  LEU85      -0.2867
     14  CB        71.7030   39.9690  -11.4310 C.3    85  LEU85       0.0270
     15  CG        70.9590   40.5790  -12.6150 C.3    85  LEU85       0.0019
     16  CD1       70.7320   39.5240  -13.6760 C.3    85  LEU85       0.0001
     17  CD2       69.6370   41.1850  -12.1720 C.3    85  LEU85       0.0001
     18  N         70.6290   41.5880   -5.8430 N.3    88  ASP88      -0.1225
     19  CA        69.1990   41.8850   -5.8890 C.3    88  ASP88       0.1805
     20  C         68.3680   40.6840   -5.4120 C.2    88  ASP88       0.2597
     21  O         67.5220   40.8010   -4.4970 O.2    88  ASP88      -0.2718
     22  CB        68.7930   42.2950   -7.3060 C.3    88  ASP88       0.1424
     23  CG        67.4250   42.9390   -7.3570 C.2    88  ASP88       0.3668
     24  OD1       67.0390   43.6150   -6.3780 O.co2  88  ASP88      -0.2456
     25  OD2       66.7380   42.7740   -8.3850 O.co2  88  ASP88      -0.2456
     26  N         68.6310   39.5250   -6.0150 N.am   89  TYR89      -0.1976
     27  CA        67.9250   38.3000   -5.6330 C.3    89  TYR89       0.1639
     28  C         68.1590   37.9230   -4.1650 C.2    89  TYR89       0.2290
     29  O         67.2160   37.5610   -3.4350 O.2    89  TYR89      -0.2864
     30  CB        68.3030   37.1420   -6.5630 C.3    89  TYR89       0.0560
     31  CG        67.4140   37.0520   -7.7850 C.ar   89  TYR89      -0.0198
     32  CD1       67.9350   37.1210   -9.0730 C.ar   89  TYR89      -0.0009
     33  CD2       66.0440   36.9180   -7.6460 C.ar   89  TYR89      -0.0009
     34  CE1       67.1040   37.0420  -10.1860 C.ar   89  TYR89       0.0417
     35  CE2       65.2120   36.8430   -8.7410 C.ar   89  TYR89       0.0417
     36  CZ        65.7390   36.9040  -10.0070 C.ar   89  TYR89       0.1957
     37  OH        64.8830   36.8240  -11.0830 O.3    89  TYR89      -0.2866
     38  N         68.9890   39.8830   -1.5490 N.3    91  ASN91      -0.1225
     39  CA        68.1900   40.7800   -0.7260 C.3    91  ASN91       0.1785
     40  C         66.7330   40.3410   -0.6850 C.2    91  ASN91       0.2597
     41  O         66.1560   40.1650    0.4010 O.2    91  ASN91      -0.2718
     42  CB        68.3030   42.2170   -1.2340 C.3    91  ASN91       0.1169
     43  CG        67.3720   43.1660   -0.5070 C.2    91  ASN91       0.2627
     44  OD1       66.5530   43.8470   -1.1270 O.2    91  ASN91      -0.2716
     45  ND2       67.4890   43.2120    0.8160 N.am   91  ASN91      -0.0877
     46  N         66.1590   40.1340   -1.8720 N.am   92  MET92      -0.1979
     47  CA        64.7700   39.6760   -1.9690 C.3    92  MET92       0.1605
     48  C         64.4660   38.4430   -1.1100 C.2    92  MET92       0.2287
     49  O         63.4020   38.3700   -0.4870 O.2    92  MET92      -0.2864
     50  CB        64.3580   39.4080   -3.4240 C.3    92  MET92       0.0413
     51  CG        63.0110   38.7000   -3.5290 C.3    92  MET92       0.0598
     52  SD        62.1520   38.9690   -5.0850 S.3    92  MET92      -0.1393
     53  CE        63.2730   38.1570   -6.2020 C.3    92  MET92       0.0692
     54  N         60.7700   29.8480  -12.7260 N.3   173  THR173     -0.1203
     55  CA        61.4310   30.7060  -11.7530 C.3   173  THR173      0.1994
     56  C         60.5100   31.7850  -11.1840 C.2   173  THR173      0.2617
     57  O         60.4710   31.9850   -9.9690 O.2   173  THR173     -0.2717
     58  CB        62.7180   31.3240  -12.3290 C.3   173  THR173      0.1784
     59  OG1       63.8050   30.4140  -12.1270 O.3   173  THR173     -0.2211
     60  CG2       63.0470   32.6510  -11.6510 C.3   173  THR173      0.0376
     61  N         59.7610   32.4680  -12.0440 N.am  174  LYS174     -0.1979
     62  CA        58.8400   33.4960  -11.5560 C.3   174  LYS174      0.1596
     63  C         57.8320   32.8970  -10.5770 C.2   174  LYS174      0.2287
     64  O         57.4640   33.5300   -9.5820 O.2   174  LYS174     -0.2864
     65  CB        58.1200   34.1990  -12.7130 C.3   174  LYS174      0.0298
     66  CG        59.0480   34.8870  -13.7010 C.3   174  LYS174      0.0038
     67  CD        60.0480   35.7850  -12.9890 C.3   174  LYS174      0.0206
     68  CE        61.0240   36.4140  -13.9700 C.3   174  LYS174      0.1093
     69  NZ        60.3520   37.3980  -14.8630 N.3   174  LYS174     -0.1314
     70  N         59.6760   31.7000   -7.1820 N.3   177  VAL177     -0.1245
     71  CA        60.0000   32.9280   -6.4720 C.3   177  VAL177      0.1561
     72  C         58.7230   33.6170   -5.9770 C.2   177  VAL177      0.2260
     73  O         58.7430   34.3330   -4.9800 O.2   177  VAL177     -0.2867
     74  CB        60.8820   33.8640   -7.3390 C.3   177  VAL177      0.0252
     75  CG1       61.1320   35.1910   -6.6410 C.3   177  VAL177      0.0019
     76  CG2       62.2080   33.1800   -7.6540 C.3   177  VAL177      0.0019
     77  N         56.6860   45.2790   -0.7410 N.3   388  TRP388     -0.1241
     78  CA        57.0020   44.1680   -1.6340 C.3   388  TRP388      0.1605
     79  C         55.7930   43.4320   -2.2020 C.2   388  TRP388      0.2264
     80  O         55.9490   42.5750   -3.0670 O.2   388  TRP388     -0.2867
     81  CB        57.9160   43.1690   -0.9290 C.3   388  TRP388      0.0550
     82  CG        59.3090   43.6580   -0.7580 C.ar  388  TRP388      0.0003
     83  CD1       59.7350   44.6410    0.0860 C.ar  388  TRP388      0.0946
     84  CD2       60.4710   43.1820   -1.4410 C.ar  388  TRP388      0.0152
     85  NE1       61.0930   44.8080   -0.0320 N.ar  388  TRP388     -0.2442
     86  CE2       61.5690   43.9230   -0.9630 C.ar  388  TRP388      0.0810
     87  CE3       60.6910   42.2010   -2.4120 C.ar  388  TRP388      0.0012
     88  CZ2       62.8670   43.7130   -1.4220 C.ar  388  TRP388      0.0191
     89  CZ3       61.9770   41.9960   -2.8660 C.ar  388  TRP388      0.0001
     90  CH2       63.0500   42.7470   -2.3700 C.ar  388  TRP388      0.0015
     91  N         55.1940   44.7790   -6.2480 N.3   391  ILE391     -0.1231
     92  CA        56.1950   44.2730   -7.1790 C.3   391  ILE391      0.1692
     93  C         56.1850   42.7420   -7.3290 C.2   391  ILE391      0.2592
     94  O         56.4140   42.2250   -8.4220 O.2   391  ILE391     -0.2718
     95  CB        57.6040   44.7970   -6.8120 C.3   391  ILE391      0.0266
     96  CG1       58.6270   44.3940   -7.8690 C.3   391  ILE391      0.0019
     97  CG2       58.0240   44.3040   -5.4380 C.3   391  ILE391      0.0020
     98  CD1       58.2590   44.8190   -9.2590 C.3   391  ILE391      0.0001
     99  N         55.8950   42.0250   -6.2440 N.am  392  HIS392     -0.1976
    100  CA        55.8450   40.5590   -6.2730 C.3   392  HIS392      0.1656
    101  C         54.6420   40.0560   -7.0610 C.2   392  HIS392      0.2291
    102  O         54.7660   39.1850   -7.9230 O.2   392  HIS392     -0.2864
    103  CB        55.7860   39.9870   -4.8520 C.3   392  HIS392      0.0771
    104  CG        57.0940   39.4600   -4.3510 C.ar  392  HIS392      0.0820
    105  ND1       57.7900   38.4590   -4.9940 N.ar  392  HIS392     -0.2267
    106  CD2       57.8250   39.7840   -3.2580 C.ar  392  HIS392      0.1154
    107  CE1       58.8980   38.1960   -4.3240 C.ar  392  HIS392      0.1986
    108  NE2       58.9440   38.9860   -3.2670 N.ar  392  HIS392     -0.2212
    109  N         54.9930   41.1930  -10.9550 N.3   395  VAL395     -0.1245
    110  CA        55.8750   40.3220  -11.7350 C.3   395  VAL395      0.1561
    111  C         55.1770   39.0300  -12.1700 C.2   395  VAL395      0.2260
    112  O         55.4260   38.5100  -13.2600 O.2   395  VAL395     -0.2867
    113  CB        57.1800   40.0100  -10.9580 C.3   395  VAL395      0.0252
    114  CG1       57.9310   38.8340  -11.5700 C.3   395  VAL395      0.0019
    115  CG2       58.0650   41.2410  -10.9080 C.3   395  VAL395      0.0019
    116  N         52.4090   40.2850  -14.6970 N.3   398  TRP398     -0.1227
    117  CA        53.1180   40.6640  -15.9190 C.3   398  TRP398      0.1737
    118  C         53.4820   39.4740  -16.8100 C.2   398  TRP398      0.2596
    119  O         53.3840   39.5550  -18.0330 O.2   398  TRP398     -0.2718
    120  CB        54.3830   41.4400  -15.5560 C.3   398  TRP398      0.0564
    121  CG        55.1930   41.9170  -16.7200 C.ar  398  TRP398      0.0003
    122  CD1       56.1530   41.2210  -17.3960 C.ar  398  TRP398      0.0946
    123  CD2       55.1370   43.2130  -17.3250 C.ar  398  TRP398      0.0152
    124  NE1       56.6910   42.0000  -18.3940 N.ar  398  TRP398     -0.2442
    125  CE2       56.0830   43.2280  -18.3700 C.ar  398  TRP398      0.0810
    126  CE3       54.3750   44.3600  -17.0900 C.ar  398  TRP398      0.0012
    127  CZ2       56.2860   44.3460  -19.1760 C.ar  398  TRP398      0.0191
    128  CZ3       54.5780   45.4670  -17.8900 C.ar  398  TRP398      0.0001
    129  CH2       55.5250   45.4520  -18.9200 C.ar  398  TRP398      0.0015
    130  N         53.9040   38.3740  -16.1960 N.am  399  THR399     -0.1953
    131  CA        54.3420   37.2020  -16.9500 C.3   399  THR399      0.1897
    132  C         53.1710   36.2610  -17.2700 C.2   399  THR399      0.2313
    133  O         53.3190   35.3000  -18.0270 O.2   399  THR399     -0.2863
    134  CB        55.4800   36.4550  -16.2040 C.3   399  THR399      0.1794
    135  OG1       56.4610   37.4030  -15.7680 O.3   399  THR399     -0.2208
    136  CG2       56.1610   35.4280  -17.1020 C.3   399  THR399      0.0378
    137  N         54.6470   49.9090  -12.9080 N.3   414  LEU414     -0.1245
    138  CA        55.6830   48.9080  -12.6590 C.3   414  LEU414      0.1561
    139  C         56.9420   49.5140  -12.0480 C.2   414  LEU414      0.2260
    140  O         57.3890   49.0830  -10.9830 O.2   414  LEU414     -0.2867
    141  CB        56.0430   48.1840  -13.9600 C.3   414  LEU414      0.0270
    142  CG        57.3530   47.3900  -13.9500 C.3   414  LEU414      0.0019
    143  CD1       57.1440   45.9750  -13.4350 C.3   414  LEU414      0.0001
    144  CD2       57.9870   47.3820  -15.3330 C.3   414  LEU414      0.0001
    145  N         58.8910   48.7260   -8.4870 N.3   418  ILE418     -0.1245
    146  CA        60.2850   48.3140   -8.3190 C.3   418  ILE418      0.1561
    147  C         60.9190   49.2550   -7.3060 C.2   418  ILE418      0.2260
    148  O         61.5610   48.8310   -6.3270 O.2   418  ILE418     -0.2867
    149  CB        61.0840   48.4380   -9.6370 C.3   418  ILE418      0.0252
    150  CG1       60.3450   47.7700  -10.8020 C.3   418  ILE418      0.0019
    151  CG2       62.4950   47.8760   -9.4610 C.3   418  ILE418      0.0019
    152  CD1       60.8700   46.3970  -11.1750 C.3   418  ILE418      0.0001
    153  N         59.5820   48.8050   -3.6030 N.3   421  GLY421     -0.1210
    154  CA        60.2640   47.6160   -3.1260 C.3   421  GLY421      0.1956
    155  C         61.6840   47.9170   -2.6860 C.2   421  GLY421      0.2611
    156  O         62.1400   47.4150   -1.6580 O.2   421  GLY421     -0.2717
    157  N         62.3860   48.7500   -3.4510 N.am  422  TYR422     -0.1976
    158  CA        63.7270   49.1750   -3.0390 C.3   422  TYR422      0.1639
    159  C         63.7390   50.0860   -1.8110 C.2   422  TYR422      0.2290
    160  O         64.5620   49.9140   -0.9110 O.2   422  TYR422     -0.2864
    161  CB        64.4630   49.8550   -4.1920 C.3   422  TYR422      0.0560
    162  CG        65.1330   48.8750   -5.1130 C.ar  422  TYR422     -0.0198
    163  CD1       66.1800   48.0860   -4.6620 C.ar  422  TYR422     -0.0009
    164  CD2       64.7220   48.7340   -6.4290 C.ar  422  TYR422     -0.0009
    165  CE1       66.8000   47.1830   -5.4950 C.ar  422  TYR422      0.0417
    166  CE2       65.3390   47.8320   -7.2730 C.ar  422  TYR422      0.0417
    167  CZ        66.3770   47.0580   -6.7960 C.ar  422  TYR422      0.1957
    168  OH        67.0040   46.1540   -7.6220 O.3   422  TYR422     -0.2866
@<TRIPOS>BOND
     1   127   129   ar
     2   127   125   ar
     3   129   128   ar
     4   124   125   ar
     5   124   122   ar
     6   125   123   ar
     7   119   118    2
     8   133   132    2
     9   128   126   ar
    10   122   121   ar
    11   123   126   ar
    12   123   121   ar
    13   132   131    1
    14   136   134    1
    15   131   134    1
    16   131   130    1
    17   118   130   am
    18   118   117    1
    19   121   120    1
    20   134   135    1
    21   117   120    1
    22   117   116    1
    23   144   142    1
    24    69    68    1
    25    68    67    1
    26   141   142    1
    27   141   138    1
    28   142   143    1
    29    66    67    1
    30    66    65    1
    31    16    15    1
    32   112   111    2
    33   137   138    1
    34     4     3    2
    35    54    55    1
    36    65    62    1
    37   138   139    1
    38    15    17    1
    39    15    14    1
    40    58    59    1
    41    58    55    1
    42    58    60    1
    43   111   110    1
    44   139   140    2
    45    61    62    1
    46    61    56   am
    47     3     2    1
    48    55    56    1
    49   110   113    1
    50   110   109    1
    51     2     1    1
    52     2     5    1
    53   114   113    1
    54    62    63    1
    55    14    11    1
    56    56    57    2
    57   152   150    1
    58    37    36    1
    59   113   115    1
    60     8     7    2
    61     6     5    1
    62     6     7    1
    63   150   149    1
    64    63    64    2
    65     7     9   am
    66    34    36   ar
    67    34    32   ar
    68    11    10    1
    69    11    12    1
    70    36    35   ar
    71   149   151    1
    72   149   146    1
    73    98    96    1
    74    32    31   ar
    75    12    13    2
    76    35    33   ar
    77   145   146    1
    78    94    93    2
    79    25    23   ar
    80   146   147    1
    81   102   101    2
    82    96    95    1
    83    31    33   ar
    84    31    30    1
    85    76    74    1
    86   168   167    1
    87    23    22    1
    88    23    24   ar
    89    74    75    1
    90    74    71    1
    91    93    92    1
    92    93    99   am
    93    22    19    1
    94   147   148    2
    95   166   167   ar
    96   166   164   ar
    97    70    71    1
    98    92    95    1
    99    92    91    1
   100   101   100    1
   101    95    97    1
   102   167   165   ar
   103    30    27    1
   104    71    72    1
   105   164   162   ar
   106   100    99    1
   107   100   103    1
   108    53    52    1
   109    26    27    1
   110    26    20   am
   111    72    73    2
   112    19    18    1
   113    19    20    1
   114    27    28    1
   115   165   163   ar
   116    20    21    2
   117   162   163   ar
   118   162   161    1
   119    52    51    1
   120   105   104   ar
   121   105   107   ar
   122   103   104    1
   123   104   106   ar
   124   107   108   ar
   125   161   158    1
   126    28    29    2
   127   153   154    1
   128    51    50    1
   129   157   158    1
   130   157   155   am
   131    50    47    1
   132   108   106   ar
   133   154   155    1
   134    80    79    2
   135   158   159    1
   136    89    87   ar
   137    89    90   ar
   138   155   156    2
   139    87    84   ar
   140    90    88   ar
   141    79    78    1
   142    47    46    1
   143    47    48    1
   144    46    40   am
   145   159   160    2
   146    78    81    1
   147    78    77    1
   148    38    39    1
   149    84    86   ar
   150    84    82   ar
   151    88    86   ar
   152    42    39    1
   153    42    43    1
   154    44    43    2
   155    48    49    2
   156    86    85   ar
   157    81    82    1
   158    82    83   ar
   159    39    40    1
   160    40    41    2
   161    43    45   am
   162    85    83   ar
