@<TRIPOS>MOLECULE
tmp/4ej7A00.pdb
 185 171 0 0 0
SMALL
GASTEIGER

@<TRIPOS>ATOM
      1  N         71.7010   23.5300   57.8310 N.3    30  ASP30      -0.1239
      2  CA        71.4560   24.8440   58.4130 C.3    30  ASP30       0.1674
      3  C         70.0300   25.3140   58.1510 C.2    30  ASP30       0.2266
      4  O         69.4880   25.1120   57.0630 O.2    30  ASP30      -0.2867
      5  CB        72.4500   25.8750   57.8810 C.3    30  ASP30       0.1410
      6  CG        72.0010   27.2980   58.1450 C.2    30  ASP30       0.3668
      7  OD1       72.1230   27.7600   59.2980 O.co2  30  ASP30      -0.2456
      8  OD2       71.5160   27.9530   57.1990 O.co2  30  ASP30      -0.2456
      9  N         69.1600   28.5850   59.4790 N.3    32  VAL32      -0.1231
     10  CA        69.2410   30.0260   59.6940 C.3    32  VAL32       0.1692
     11  C         69.1610   30.8190   58.3890 C.2    32  VAL32       0.2593
     12  O         68.3950   31.7770   58.2840 O.2    32  VAL32      -0.2718
     13  CB        70.5420   30.4080   60.4330 C.3    32  VAL32       0.0266
     14  CG1       70.6550   31.9200   60.5820 C.3    32  VAL32       0.0020
     15  CG2       70.6000   29.7240   61.7900 C.3    32  VAL32       0.0020
     16  N         69.9550   30.4140   57.4010 N.am   33  GLY33      -0.1942
     17  CA        70.0330   31.1180   56.1310 C.3    33  GLY33       0.2014
     18  C         68.7190   31.1850   55.3730 C.2    33  GLY33       0.2639
     19  O         67.9420   30.2300   55.3700 O.2    33  GLY33      -0.2714
     20  N         68.4740   32.3200   54.7240 N.am   34  GLN34      -0.1963
     21  CA        67.2280   32.5410   53.9960 C.3    34  GLN34       0.1733
     22  C         67.4870   33.0630   52.5850 C.2    34  GLN34       0.2617
     23  O         66.6250   33.7090   51.9900 O.2    34  GLN34      -0.2715
     24  CB        66.3390   33.5360   54.7500 C.3    34  GLN34       0.0408
     25  CG        66.1800   33.2430   56.2350 C.3    34  GLN34       0.0908
     26  CD        65.5580   31.8850   56.4970 C.2    34  GLN34       0.2608
     27  OE1       64.7710   31.3830   55.6920 O.2    34  GLN34      -0.2717
     28  NE2       65.9140   31.2780   57.6260 N.am   34  GLN34      -0.0878
     29  N         68.6710   32.7840   52.0490 N.am   35  SER35      -0.1950
     30  CA        69.0500   33.3100   50.7400 C.3    35  SER35       0.1924
     31  C         68.6950   32.3660   49.5930 C.2    35  SER35       0.2314
     32  O         68.7460   32.7560   48.4280 O.2    35  SER35      -0.2863
     33  CB        70.5460   33.6270   50.6990 C.3    35  SER35       0.2116
     34  OG        71.3080   32.4360   50.6460 O.3    35  SER35      -0.2180
     35  N         70.3540   29.4520   49.1280 N.3    37  ALA37      -0.1245
     36  CA        71.4580   28.5000   49.0820 C.3    37  ALA37       0.1562
     37  C         71.2510   27.4150   50.1320 C.2    37  ALA37       0.2260
     38  O         70.8200   27.7040   51.2480 O.2    37  ALA37      -0.2867
     39  CB        72.7890   29.2080   49.3040 C.3    37  ALA37       0.0290
     40  N         72.7400   24.9290   52.8070 N.3    39  ILE39      -0.1245
     41  CA        73.9260   24.9970   53.6430 C.3    39  ILE39       0.1561
     42  C         73.9800   23.8440   54.6360 C.2    39  ILE39       0.2260
     43  O         72.9870   23.5270   55.2930 O.2    39  ILE39      -0.2867
     44  CB        73.9780   26.3310   54.4030 C.3    39  ILE39       0.0252
     45  CG1       73.9940   27.4910   53.4080 C.3    39  ILE39       0.0019
     46  CG2       75.1900   26.3870   55.3270 C.3    39  ILE39       0.0019
     47  CD1       74.0540   28.8290   54.0560 C.3    39  ILE39       0.0001
     48  N         76.4850   21.9180   57.7870 N.3    41  ARG41      -0.1245
     49  CA        77.6660   21.8710   58.6320 C.3    41  ARG41       0.1563
     50  C         78.2420   20.4650   58.5730 C.2    41  ARG41       0.2260
     51  O         77.5090   19.4820   58.6770 O.2    41  ARG41      -0.2867
     52  CB        77.3410   22.2430   60.0810 C.3    41  ARG41       0.0307
     53  CG        78.5580   22.1860   61.0010 C.3    41  ARG41       0.0489
     54  CD        78.1820   22.3100   62.4720 C.3    41  ARG41       0.2205
     55  NE        77.6340   23.6240   62.7980 N.pl3  41  ARG41      -0.0865
     56  CZ        78.3610   24.6620   63.2000 C.cat  41  ARG41       0.5346
     57  NH1       77.7740   25.8200   63.4750 N.pl3  41  ARG41       0.1354
     58  NH2       79.6780   24.5450   63.3270 N.pl3  41  ARG41       0.1354
     59  N         81.7990   24.0160   56.4650 N.3    52  PHE52      -0.1241
     60  CA        80.4970   24.4140   55.9570 C.3    52  PHE52       0.1605
     61  C         80.4670   24.2880   54.4410 C.2    52  PHE52       0.2264
     62  O         81.4080   24.6890   53.7550 O.2    52  PHE52      -0.2867
     63  CB        80.1550   25.8420   56.3810 C.3    52  PHE52       0.0534
     64  CG        79.3860   25.9200   57.6670 C.ar   52  PHE52      -0.0203
     65  CD1       80.0460   25.9960   58.8820 C.ar   52  PHE52      -0.0042
     66  CD2       78.0020   25.9080   57.6610 C.ar   52  PHE52      -0.0042
     67  CE1       79.3360   26.0640   60.0660 C.ar   52  PHE52      -0.0003
     68  CE2       77.2880   25.9740   58.8420 C.ar   52  PHE52      -0.0003
     69  CZ        77.9540   26.0530   60.0450 C.ar   52  PHE52      -0.0000
     70  N         78.2190   25.4050   51.2000 N.3    54  LYS54      -0.1245
     71  CA        77.1640   26.2900   50.7230 C.3    54  LYS54       0.1561
     72  C         76.9320   26.0440   49.2390 C.2    54  LYS54       0.2260
     73  O         77.8400   26.2150   48.4260 O.2    54  LYS54      -0.2867
     74  CB        77.5530   27.7480   50.9690 C.3    54  LYS54       0.0271
     75  CG        76.4340   28.7510   50.7570 C.3    54  LYS54       0.0035
     76  CD        76.8400   30.1160   51.2920 C.3    54  LYS54       0.0206
     77  CE        75.7190   31.1330   51.1530 C.3    54  LYS54       0.1093
     78  NZ        76.0610   32.4250   51.8170 N.3    54  LYS54      -0.1314
     79  N         80.7260   35.2020   46.4900 N.3    67  GLU67      -0.1245
     80  CA        81.1600   35.0540   47.8710 C.3    67  GLU67       0.1567
     81  C         82.5470   34.4210   47.9380 C.2    67  GLU67       0.2260
     82  O         83.3800   34.8160   48.7490 O.2    67  GLU67      -0.2867
     83  CB        80.1530   34.2220   48.6720 C.3    67  GLU67       0.0388
     84  CG        80.5670   33.9870   50.1200 C.3    67  GLU67       0.1160
     85  CD        79.4620   33.3700   50.9620 C.2    67  GLU67       0.3649
     86  OE1       78.4200   32.9750   50.3930 O.co2  67  GLU67      -0.2457
     87  OE2       79.6370   33.2850   52.1980 O.co2  67  GLU67      -0.2457
     88  N         86.4750   32.6880   57.0090 N.3    79  PRO79      -0.2116
     89  CA        86.5860   31.2460   56.7790 C.3    79  PRO79       0.1372
     90  C         87.6120   30.9560   55.6870 C.2    79  PRO79       0.2244
     91  O         87.7880   31.7590   54.7730 O.2    79  PRO79      -0.2868
     92  CB        85.1850   30.8630   56.2910 C.3    79  PRO79       0.0268
     93  CG        84.2880   31.8870   56.8800 C.3    79  PRO79       0.0207
     94  CD        85.0830   33.1610   56.8990 C.3    79  PRO79       0.0892
     95  N         84.0040   25.6860   53.0440 N.3    95  THR95      -0.1203
     96  CA        84.8990   26.5010   53.8590 C.3    95  THR95       0.1994
     97  C         85.0360   25.9670   55.2830 C.2    95  THR95       0.2619
     98  O         84.2660   25.1060   55.7100 O.2    95  THR95      -0.2717
     99  CB        84.4180   27.9630   53.9290 C.3    95  THR95       0.1784
    100  OG1       83.0950   28.0090   54.4800 O.3    95  THR95      -0.2211
    101  CG2       84.4110   28.5870   52.5450 C.3    95  THR95       0.0376
    102  N         86.0200   26.4830   56.0130 N.am   96  THR96      -0.1938
    103  CA        86.1900   26.1250   57.4150 C.3    96  THR96       0.2028
    104  C         85.1130   26.7880   58.2610 C.2    96  THR96       0.2642
    105  O         84.7400   27.9390   58.0230 O.2    96  THR96      -0.2714
    106  CB        87.5660   26.5560   57.9660 C.3    96  THR96       0.1808
    107  OG1       87.7450   27.9630   57.7630 O.3    96  THR96      -0.2208
    108  CG2       88.6910   25.7920   57.2810 C.3    96  THR96       0.0379
    109  N         84.6150   26.0550   59.2490 N.am   97  ALA97      -0.1963
    110  CA        83.6450   26.6020   60.1810 C.3    97  ALA97       0.1728
    111  C         84.3310   27.5410   61.1640 C.2    97  ALA97       0.2616
    112  O         85.3940   27.2270   61.6990 O.2    97  ALA97      -0.2715
    113  CB        82.9410   25.4830   60.9270 C.3    97  ALA97       0.0334
    114  N         83.7270   28.7020   61.3860 N.am   98  ILE98      -0.1977
    115  CA        84.1760   29.5970   62.4400 C.3    98  ILE98       0.1596
    116  C         83.4430   29.2300   63.7240 C.2    98  ILE98       0.2287
    117  O         82.2200   29.3440   63.7990 O.2    98  ILE98      -0.2864
    118  CB        83.9050   31.0700   62.0920 C.3    98  ILE98       0.0276
    119  CG1       84.6080   31.4450   60.7860 C.3    98  ILE98       0.0022
    120  CG2       84.3680   31.9770   63.2220 C.3    98  ILE98       0.0022
    121  CD1       84.5510   32.9240   60.4650 C.3    98  ILE98       0.0001
    122  N         76.8960   33.4770   66.6830 N.3   102  THR102     -0.1218
    123  CA        76.7490   34.7500   65.9900 C.3   102  THR102      0.1862
    124  C         76.4950   35.8670   66.9930 C.2   102  THR102      0.2287
    125  O         76.0930   35.6100   68.1290 O.2   102  THR102     -0.2866
    126  CB        75.5960   34.7180   64.9640 C.3   102  THR102      0.1770
    127  OG1       74.3370   34.6880   65.6480 O.3   102  THR102     -0.2211
    128  CG2       75.7180   33.4990   64.0610 C.3   102  THR102      0.0375
    129  N         73.0020   35.7170   68.4370 N.3   105  GLN105     -0.1245
    130  CA        72.7930   34.7290   69.4900 C.3   105  GLN105      0.1566
    131  C         73.2530   35.2360   70.8530 C.2   105  GLN105      0.2260
    132  O         72.5080   35.1690   71.8280 O.2   105  GLN105     -0.2867
    133  CB        73.5130   33.4220   69.1580 C.3   105  GLN105      0.0367
    134  CG        72.9950   32.7210   67.9180 C.3   105  GLN105      0.0905
    135  CD        73.6800   31.3920   67.6830 C.2   105  GLN105      0.2608
    136  OE1       73.3400   30.3870   68.3080 O.2   105  GLN105     -0.2717
    137  NE2       74.6610   31.3800   66.7860 N.am  105  GLN105     -0.0878
    138  N         76.8450   43.1700   53.9300 N.3   193  ASP193     -0.1239
    139  CA        75.7850   42.6200   54.7620 C.3   193  ASP193      0.1674
    140  C         76.3010   42.4650   56.1870 C.2   193  ASP193      0.2266
    141  O         76.4160   41.3540   56.7090 O.2   193  ASP193     -0.2867
    142  CB        75.3060   41.2770   54.2050 C.3   193  ASP193      0.1410
    143  CG        74.0730   40.7520   54.9200 C.2   193  ASP193      0.3668
    144  OD1       73.7580   39.5530   54.7550 O.co2 193  ASP193     -0.2456
    145  OD2       73.4250   41.5340   55.6510 O.co2 193  ASP193     -0.2456
    146  N         73.9210   38.2640   62.3050 N.3   197  ASP197     -0.1225
    147  CA        74.0520   36.8410   62.0040 C.3   197  ASP197      0.1805
    148  C         75.2710   36.5340   61.1380 C.2   197  ASP197      0.2597
    149  O         75.5400   35.3740   60.8290 O.2   197  ASP197     -0.2718
    150  CB        72.7820   36.3020   61.3390 C.3   197  ASP197      0.1424
    151  CG        71.7340   35.8660   62.3490 C.2   197  ASP197      0.3668
    152  OD1       72.1060   35.2040   63.3450 O.co2 197  ASP197     -0.2456
    153  OD2       70.5420   36.1860   62.1480 O.co2 197  ASP197     -0.2456
    154  N         76.0030   37.5700   60.7450 N.am  198  ASN198     -0.1974
    155  CA        77.2000   37.3830   59.9270 C.3   198  ASN198      0.1688
    156  C         78.4890   37.6230   60.7020 C.2   198  ASN198      0.2292
    157  O         79.5820   37.5700   60.1410 O.2   198  ASN198     -0.2864
    158  CB        77.1590   38.2780   58.6860 C.3   198  ASN198      0.1181
    159  CG        76.1230   37.8250   57.6780 C.2   198  ASN198      0.2629
    160  OD1       75.7060   36.6680   57.6820 O.2   198  ASN198     -0.2716
    161  ND2       75.7100   38.7320   56.8030 N.am  198  ASN198     -0.0877
    162  N         80.6510   36.4610   64.1330 N.3   200  ILE200     -0.1245
    163  CA        80.7260   35.3400   65.0670 C.3   200  ILE200      0.1561
    164  C         81.6440   35.5890   66.2640 C.2   200  ILE200      0.2260
    165  O         82.8200   35.9120   66.1080 O.2   200  ILE200     -0.2867
    166  CB        81.1430   34.0440   64.3400 C.3   200  ILE200      0.0252
    167  CG1       80.0830   33.6680   63.3000 C.3   200  ILE200      0.0019
    168  CG2       81.3440   32.9100   65.3330 C.3   200  ILE200      0.0019
    169  CD1       80.3830   32.4010   62.5380 C.3   200  ILE200      0.0001
    170  N         81.3090   36.1670   58.1060 N.3   210  ILE210     -0.1231
    171  CA        80.9880   35.2950   56.9820 C.3   210  ILE210      0.1692
    172  C         80.0150   36.0090   56.0500 C.2   210  ILE210      0.2592
    173  O         79.6830   37.1740   56.2780 O.2   210  ILE210     -0.2718
    174  CB        80.3370   33.9880   57.4620 C.3   210  ILE210      0.0266
    175  CG1       79.0370   34.2900   58.2090 C.3   210  ILE210      0.0019
    176  CG2       81.2880   33.2110   58.3600 C.3   210  ILE210      0.0020
    177  CD1       78.2940   33.0570   58.6600 C.3   210  ILE210      0.0001
    178  N         79.5700   35.3090   55.0050 N.am  211  ASP211     -0.1974
    179  CA        78.5490   35.8260   54.0900 C.3   211  ASP211      0.1709
    180  C         79.0440   37.1010   53.4100 C.2   211  ASP211      0.2293
    181  O         78.4130   38.1540   53.5040 O.2   211  ASP211     -0.2864
    182  CB        77.2510   36.0830   54.8610 C.3   211  ASP211      0.1436
    183  CG        76.0240   36.1130   53.9720 C.2   211  ASP211      0.3671
    184  OD1       76.1400   35.8410   52.7580 O.co2 211  ASP211     -0.2456
    185  OD2       74.9300   36.3960   54.5060 O.co2 211  ASP211     -0.2456
@<TRIPOS>BOND
     1    79    80    1
     2    80    81    1
     3    80    83    1
     4    81    82    2
     5    73    72    2
     6    32    31    2
     7    83    84    1
     8    36    35    1
     9    36    39    1
    10    36    37    1
    11    72    71    1
    12    31    30    1
    13    84    85    1
    14    37    38    2
    15    86    85   ar
    16    34    33    1
    17    33    30    1
    18    71    74    1
    19    71    70    1
    20    30    29    1
    21    75    74    1
    22    75    76    1
    23    85    87   ar
    24    77    76    1
    25    77    78    1
    26    23    22    2
    27    29    22   am
    28   101    99    1
    29    22    21    1
    30   184   183   ar
    31    40    41    1
    32    95    96    1
    33    45    47    1
    34    45    44    1
    35   180   181    2
    36   180   179    1
    37    41    44    1
    38    41    42    1
    39    62    61    2
    40    96    99    1
    41    96    97    1
    42    99   100    1
    43   138   139    1
    44   183   185   ar
    45   183   182    1
    46    21    20    1
    47    21    24    1
    48   179   182    1
    49   179   178    1
    50   142   139    1
    51   142   143    1
    52    44    46    1
    53    61    60    1
    54    42    43    2
    55    20    18   am
    56    24    25    1
    57   144   143   ar
    58   139   140    1
    59    91    90    2
    60   143   145   ar
    61   178   172   am
    62    97    98    2
    63    97   102   am
    64    19    18    2
    65    18    17    1
    66    90    89    1
    67    27    26    2
    68    60    63    1
    69    60    59    1
    70   102   103    1
    71   172   173    2
    72   172   171    1
    73    17    16    1
    74   140   141    2
    75    25    26    1
    76    92    89    1
    77    92    93    1
    78    63    64    1
    79    26    28   am
    80    89    88    1
    81   161   159   am
    82    93    94    1
    83    94    88    1
    84   171   174    1
    85   171   170    1
    86     4     3    2
    87     8     6   ar
    88   108   106    1
    89    16    11   am
    90   103   106    1
    91   103   104    1
    92   174   175    1
    93   174   176    1
    94    66    64   ar
    95    66    68   ar
    96    64    65   ar
    97   159   160    2
    98   159   158    1
    99   107   106    1
   100    48    49    1
   101     1     2    1
   102     5     6    1
   103     5     2    1
   104   105   104    2
   105     6     7   ar
   106     3     2    1
   107   175   177    1
   108   104   109   am
   109    12    11    2
   110    11    10    1
   111    50    49    1
   112    50    51    2
   113    49    52    1
   114   158   155    1
   115    68    69   ar
   116    65    67   ar
   117   109   110    1
   118     9    10    1
   119    10    13    1
   120   155   156    1
   121   155   154    1
   122    69    67   ar
   123    52    53    1
   124   157   156    2
   125   110   113    1
   126   110   111    1
   127    13    14    1
   128    13    15    1
   129   121   119    1
   130   154   148   am
   131   119   118    1
   132   149   148    2
   133    53    54    1
   134   148   147    1
   135   111   114   am
   136   111   112    2
   137   150   147    1
   138   150   151    1
   139   114   115    1
   140   147   146    1
   141   118   115    1
   142   118   120    1
   143   153   151   ar
   144   151   152   ar
   145   115   116    1
   146    54    55    1
   147   169   167    1
   148    55    56    2
   149    56    58    1
   150    56    57    1
   151   167   166    1
   152   116   117    2
   153   128   126    1
   154   162   163    1
   155   166   163    1
   156   166   168    1
   157   126   127    1
   158   126   123    1
   159   163   164    1
   160   123   122    1
   161   123   124    1
   162   165   164    2
   163   137   135   am
   164   124   125    2
   165   135   134    1
   166   135   136    2
   167   134   133    1
   168   129   130    1
   169   133   130    1
   170   130   131    1
   171   131   132    2
