@<TRIPOS>MOLECULE
tmp/4ejdA00.pdb
 122 115 0 0 0
SMALL
GASTEIGER

@<TRIPOS>ATOM
      1  N          3.2850   -0.7020    5.1930 N.3     8  ARG8       -0.1245
      2  CA         4.0560   -0.2040    6.3250 C.3     8  ARG8        0.1563
      3  C          3.8890   -1.1440    7.5230 C.2     8  ARG8        0.2260
      4  O          2.7710   -1.5350    7.8280 O.2     8  ARG8       -0.2867
      5  CB         3.6300    1.2080    6.7100 C.3     8  ARG8        0.0307
      6  CG         3.9280    2.2320    5.6310 C.3     8  ARG8        0.0489
      7  CD         3.4730    3.6170    5.9780 C.3     8  ARG8        0.2205
      8  NE         3.7440    4.5330    4.8650 N.pl3   8  ARG8       -0.0865
      9  CZ         3.1400    5.6920    4.6640 C.cat   8  ARG8        0.5346
     10  NH1        2.2300    6.1450    5.5180 N.pl3   8  ARG8        0.1354
     11  NH2        3.5750    6.4730    3.6910 N.pl3   8  ARG8        0.1354
     12  N          5.0450    2.4970   13.8530 N.3    23  LEU23      -0.1245
     13  CA         5.7820    1.9320   12.7410 C.3    23  LEU23       0.1561
     14  C          7.0880    1.3470   13.2260 C.2    23  LEU23       0.2260
     15  O          7.8750    2.0620   13.8480 O.2    23  LEU23      -0.2867
     16  CB         6.0710    3.0850   11.7750 C.3    23  LEU23       0.0270
     17  CG         6.8080    2.8120   10.4900 C.3    23  LEU23       0.0019
     18  CD1        5.9680    1.9210    9.6210 C.3    23  LEU23       0.0001
     19  CD2        7.1580    4.1270    9.7770 C.3    23  LEU23       0.0001
     20  N         10.6230    0.6760   12.6720 N.3    25  ASP25      -0.1239
     21  CA        11.5340    1.3440   11.7320 C.3    25  ASP25       0.1674
     22  C         12.9900    1.0030   12.0200 C.2    25  ASP25       0.2266
     23  O         13.6210    1.5660   12.9100 O.2    25  ASP25      -0.2867
     24  CB        11.3780    2.8600   11.8010 C.3    25  ASP25       0.1410
     25  CG        12.1550    3.5540   10.7480 C.2    25  ASP25       0.3668
     26  OD1       12.8270    2.8600    9.9520 O.co2  25  ASP25      -0.2456
     27  OD2       12.0900    4.8030   10.7170 O.co2  25  ASP25      -0.2456
     28  N         15.3840    1.8740   10.2650 N.3    27  GLY27      -0.1210
     29  CA        16.1420    3.0840    9.9600 C.3    27  GLY27       0.1956
     30  C         15.9900    4.1950   10.9720 C.2    27  GLY27       0.2612
     31  O         16.3550    5.3470   10.7030 O.2    27  GLY27      -0.2717
     32  N         15.4780    3.8760   12.1490 N.am   28  ALA28      -0.1965
     33  CA        15.3760    4.8290   13.2430 C.3    28  ALA28       0.1728
     34  C         16.2630    4.3800   14.3690 C.2    28  ALA28       0.2616
     35  O         16.1230    3.2720   14.8990 O.2    28  ALA28      -0.2715
     36  CB        13.9330    4.9410   13.7250 C.3    28  ALA28       0.0334
     37  N         17.1790    5.2430   14.7820 N.am   29  ASP29      -0.1957
     38  CA        18.0630    4.9010   15.8910 C.3    29  ASP29       0.1840
     39  C         17.2580    4.8190   17.1960 C.2    29  ASP29       0.2622
     40  O         17.5070    3.9710   18.0500 O.2    29  ASP29      -0.2715
     41  CB        19.1650    5.9450   16.0750 C.3    29  ASP29       0.1450
     42  CG        20.0820    6.0910   14.8750 C.2    29  ASP29       0.3671
     43  OD1       20.4220    5.0980   14.1960 O.co2  29  ASP29      -0.2456
     44  OD2       20.6570    7.2070   14.7600 O.co2  29  ASP29      -0.2456
     45  N         16.2830    5.7250   17.3080 N.am   30  ASP30      -0.1971
     46  CA        15.5100    5.9710   18.5090 C.3    30  ASP30       0.1709
     47  C         14.0160    5.9360   18.2120 C.2    30  ASP30       0.2293
     48  O         13.6040    5.9030   17.0670 O.2    30  ASP30      -0.2864
     49  CB        15.8940    7.3350   19.0920 C.3    30  ASP30       0.1436
     50  CG        17.4030    7.5080   19.3640 C.2    30  ASP30       0.3671
     51  OD1       18.0640    6.5880   19.8880 O.co2  30  ASP30      -0.2456
     52  OD2       17.9440    8.5460   18.9040 O.co2  30  ASP30      -0.2456
     53  N         10.2970    7.5550   18.5920 N.3    32  VAL32      -0.1245
     54  CA         9.6630    8.8760   18.6820 C.3    32  VAL32       0.1561
     55  C          8.1600    8.7380   18.5240 C.2    32  VAL32       0.2260
     56  O          7.6820    8.2180   17.5110 O.2    32  VAL32      -0.2867
     57  CB        10.1740    9.8940   17.6600 C.3    32  VAL32       0.0252
     58  CG1       10.7500    9.4050   16.3620 C.3    32  VAL32       0.0019
     59  CG2        9.6370   11.2900   17.8480 C.3    32  VAL32       0.0019
     60  N         16.0830   17.0110   23.5400 N.3    45  LYS45      -0.1231
     61  CA        16.9130   16.3580   22.5360 C.3    45  LYS45       0.1693
     62  C         16.4790   16.8340   21.1480 C.2    45  LYS45       0.2592
     63  O         15.3240   17.1830   20.9140 O.2    45  LYS45      -0.2718
     64  CB        16.7640   14.8180   22.6370 C.3    45  LYS45       0.0285
     65  CG        17.7250   14.0050   21.7690 C.3    45  LYS45       0.0035
     66  CD        17.6090   12.5030   22.0080 C.3    45  LYS45       0.0206
     67  CE        18.5870   11.7130   21.1490 C.3    45  LYS45       0.1093
     68  NZ        18.4360   10.2290   21.2590 N.3    45  LYS45      -0.1314
     69  N         17.4410   16.8300   20.2290 N.am   46  MET46      -0.1965
     70  CA        17.2000   17.0010   18.7940 C.3    46  MET46       0.1736
     71  C         17.3170   15.6370   18.1140 C.2    46  MET46       0.2616
     72  O         18.1820   14.8320   18.4540 O.2    46  MET46      -0.2715
     73  CB        18.2520   17.9260   18.1720 C.3    46  MET46       0.0427
     74  CG        18.3110   19.3010   18.7870 C.3    46  MET46       0.0599
     75  SD        16.7950   20.2480   18.6110 S.3    46  MET46      -0.1393
     76  CE        16.9070   20.7600   16.8950 C.3    46  MET46       0.0692
     77  N         16.4700   15.3950   17.1190 N.am   47  ILE47      -0.1963
     78  CA        16.6820   14.2920   16.2230 C.3    47  ILE47       0.1727
     79  C         16.5370   14.7520   14.7760 C.2    47  ILE47       0.2617
     80  O         15.9190   15.7710   14.4920 O.2    47  ILE47      -0.2715
     81  CB        15.8250   13.0900   16.5690 C.3    47  ILE47       0.0290
     82  CG1       14.3670   13.4380   16.4430 C.3    47  ILE47       0.0022
     83  CG2       16.1530   12.5870   17.9680 C.3    47  ILE47       0.0023
     84  CD1       13.4630   12.2410   16.6140 C.3    47  ILE47       0.0001
     85  N         17.2020   14.0440   13.8780 N.am   48  GLY48      -0.1940
     86  CA        17.1960   14.4060   12.4730 C.3    48  GLY48       0.2014
     87  C         16.5630   13.3380   11.6240 C.2    48  GLY48       0.2639
     88  O         16.5510   12.1740   11.9530 O.2    48  GLY48      -0.2714
     89  N         16.1710   13.7450   10.4420 N.am   49  GLY49      -0.1939
     90  CA        15.8930   12.7870    9.3860 C.3    49  GLY49       0.2014
     91  C         15.6460   13.4980    8.0960 C.2    49  GLY49       0.2638
     92  O         16.2320   14.5350    7.8390 O.2    49  GLY49      -0.2714
     93  N         14.7870   12.9230    7.2740 N.am   50  ILE50      -0.1977
     94  CA        14.4990   13.5540    6.0070 C.3    50  ILE50       0.1596
     95  C         13.7010   14.8400    6.2780 C.2    50  ILE50       0.2287
     96  O         12.7300   14.8510    7.0460 O.2    50  ILE50      -0.2864
     97  CB        13.8300   12.5570    5.0370 C.3    50  ILE50       0.0276
     98  CG1       14.9310   11.6760    4.3800 C.3    50  ILE50       0.0022
     99  CG2       13.0410   13.3120    3.9580 C.3    50  ILE50       0.0022
    100  CD1       14.4510   10.3810    3.7680 C.3    50  ILE50       0.0001
    101  N          5.1060   12.9780   12.4850 N.3    81  PRO81      -0.2102
    102  CA         3.8950   12.6600   11.7430 C.3    81  PRO81       0.1504
    103  C          3.3880   11.2290   11.9310 C.2    81  PRO81       0.2575
    104  O          2.2410   10.9300   11.6170 O.2    81  PRO81      -0.2718
    105  CB         4.3150   12.8700   10.2880 C.3    81  PRO81       0.0282
    106  CG         5.7730   12.5540   10.2850 C.3    81  PRO81       0.0208
    107  CD         6.2940   13.0380   11.6070 C.3    81  PRO81       0.0893
    108  N          4.2260   10.3620   12.4940 N.am   82  VAL82      -0.1980
    109  CA         3.8380    8.9740   12.7560 C.3    82  VAL82       0.1595
    110  C          4.6300    8.4940   13.9440 C.2    82  VAL82       0.2287
    111  O          5.7830    8.8470   14.1300 O.2    82  VAL82      -0.2864
    112  CB         4.0430    8.0510   11.5420 C.3    82  VAL82       0.0276
    113  CG1        5.5090    8.0260   11.1660 C.3    82  VAL82       0.0022
    114  CG2        3.5110    6.6520   11.8230 C.3    82  VAL82       0.0022
    115  N          6.9430    6.0670   15.8030 N.3    84  ILE84      -0.1245
    116  CA         8.0330    5.2530   15.2780 C.3    84  ILE84       0.1561
    117  C          8.7360    4.5190   16.4180 C.2    84  ILE84       0.2260
    118  O          9.1510    5.1270   17.4150 O.2    84  ILE84      -0.2867
    119  CB         9.0650    6.1230   14.5560 C.3    84  ILE84       0.0252
    120  CG1        8.4200    6.7160   13.2900 C.3    84  ILE84       0.0019
    121  CG2       10.3430    5.3480   14.2790 C.3    84  ILE84       0.0019
    122  CD1        9.1770    7.8180   12.5690 C.3    84  ILE84       0.0001
@<TRIPOS>BOND
     1    11     9    1
     2   100    98    1
     3    99    97    1
     4    98    97    1
     5     9     8    2
     6     9    10    1
     7     8     7    1
     8    97    94    1
     9     1     2    1
    10     6     7    1
    11     6     5    1
    12    94    95    1
    13    94    93    1
    14    95    96    2
    15     2     5    1
    16     2     3    1
    17    93    91   am
    18     3     4    2
    19    92    91    2
    20    91    90    1
    21    90    89    1
    22    18    17    1
    23    19    17    1
    24    26    25   ar
    25    29    28    1
    26    29    30    1
    27   106   105    1
    28   106   107    1
    29   105   102    1
    30    89    87   am
    31    17    16    1
    32    31    30    2
    33    27    25   ar
    34    25    24    1
    35    30    32   am
    36   113   112    1
    37   112   114    1
    38   112   109    1
    39   107   101    1
    40   104   103    2
    41    87    88    2
    42    87    86    1
    43    21    24    1
    44    21    22    1
    45    21    20    1
    46   102   103    1
    47   102   101    1
    48    16    13    1
    49   103   108   am
    50    22    23    2
    51    32    33    1
    52    86    85    1
    53   108   109    1
    54   122   120    1
    55    13    14    1
    56    13    12    1
    57   109   110    1
    58    14    15    2
    59    33    36    1
    60    33    34    1
    61   120   119    1
    62    85    79   am
    63   110   111    2
    64    43    42   ar
    65   121   119    1
    66    34    37   am
    67    34    35    2
    68    80    79    2
    69   119   116    1
    70    44    42   ar
    71    79    78    1
    72    37    38    1
    73    42    41    1
    74   116   115    1
    75   116   117    1
    76    38    41    1
    77    38    39    1
    78    78    81    1
    79    78    77    1
    80    58    57    1
    81   117   118    2
    82    82    81    1
    83    82    84    1
    84    81    83    1
    85    76    75    1
    86    48    47    2
    87    77    71   am
    88    39    45   am
    89    39    40    2
    90    45    46    1
    91    56    55    2
    92    57    59    1
    93    57    54    1
    94    71    72    2
    95    71    70    1
    96    73    74    1
    97    73    70    1
    98    47    46    1
    99    46    49    1
   100    55    54    1
   101    53    54    1
   102    75    74    1
   103    70    69    1
   104    52    50   ar
   105    49    50    1
   106    50    51   ar
   107    69    62   am
   108    63    62    2
   109    62    61    1
   110    67    68    1
   111    67    66    1
   112    65    66    1
   113    65    64    1
   114    61    64    1
   115    61    60    1
