@<TRIPOS>MOLECULE
tmp/4ejeA00.pdb
 157 153 0 0 0
SMALL
GASTEIGER

@<TRIPOS>ATOM
      1  N         23.7300   25.5840    8.8890 N.3    31  LYS31      -0.1231
      2  CA        23.3720   25.1450   10.2210 C.3    31  LYS31       0.1693
      3  C         21.9200   25.3840   10.5420 C.2    31  LYS31       0.2592
      4  O         21.4220   24.7940   11.4750 O.2    31  LYS31      -0.2718
      5  CB        24.2510   25.8720   11.2200 C.3    31  LYS31       0.0285
      6  CG        25.6700   25.3350   11.2010 C.3    31  LYS31       0.0035
      7  CD        25.7980   24.0070   11.9330 C.3    31  LYS31       0.0206
      8  CE        27.2720   23.6880   12.1410 C.3    31  LYS31       0.1093
      9  NZ        28.0440   24.9480   12.3530 N.3    31  LYS31      -0.1314
     10  N         21.2290   26.2440    9.7900 N.am   32  ASP32      -0.1974
     11  CA        19.8040   26.4500   10.0900 C.3    32  ASP32       0.1709
     12  C         18.8130   25.4760    9.3960 C.2    32  ASP32       0.2293
     13  O         17.6010   25.5850    9.6290 O.2    32  ASP32      -0.2864
     14  CB        19.4360   27.9340    9.8830 C.3    32  ASP32       0.1436
     15  CG        18.1480   28.2820   10.5410 C.2    32  ASP32       0.3671
     16  OD1       18.0720   27.9810   11.7440 O.co2  32  ASP32      -0.2456
     17  OD2       17.2290   28.8370    9.8860 O.co2  32  ASP32      -0.2456
     18  N         16.2850   27.9540    7.1400 N.3    56  THR56      -0.1218
     19  CA        16.6580   29.0650    6.2980 C.3    56  THR56       0.1862
     20  C         18.0530   28.9000    5.7000 C.2    56  THR56       0.2287
     21  O         18.8490   28.1160    6.2000 O.2    56  THR56      -0.2866
     22  CB        16.5680   30.4130    7.0560 C.3    56  THR56       0.1770
     23  OG1       17.6830   30.5450    7.9310 O.3    56  THR56      -0.2211
     24  CG2       15.2160   30.5790    7.8350 C.3    56  THR56       0.0375
     25  N         21.6240   40.1220   -0.4710 N.3    61  TYR61      -0.1227
     26  CA        20.8850   40.9110   -1.4210 C.3    61  TYR61       0.1736
     27  C         21.0190   42.3690   -1.0930 C.2    61  TYR61       0.2595
     28  O         20.6510   42.8250    0.0280 O.2    61  TYR61      -0.2718
     29  CB        19.4370   40.5390   -1.4060 C.3    61  TYR61       0.0548
     30  CG        18.5650   41.3460   -2.3240 C.ar   61  TYR61      -0.0200
     31  CD1       18.5890   41.1400   -3.7080 C.ar   61  TYR61      -0.0009
     32  CD2       17.6700   42.2880   -1.8090 C.ar   61  TYR61      -0.0009
     33  CE1       17.7300   41.8660   -4.5550 C.ar   61  TYR61       0.0417
     34  CE2       16.8250   43.0440   -2.6330 C.ar   61  TYR61       0.0417
     35  CZ        16.8560   42.8040   -3.9980 C.ar   61  TYR61       0.1957
     36  OH        16.0280   43.5210   -4.8030 O.3    61  TYR61      -0.2866
     37  N         21.5600   43.0860   -2.0840 N.am   62  ARG62      -0.1980
     38  CA        21.8960   44.5110   -1.9480 C.3    62  ARG62       0.1597
     39  C         22.6600   44.8400   -0.6470 C.2    62  ARG62       0.2287
     40  O         22.2580   45.6960    0.1070 O.2    62  ARG62      -0.2864
     41  CB        20.6080   45.3230   -2.0880 C.3    62  ARG62       0.0334
     42  CG        19.9960   45.1030   -3.4590 C.3    62  ARG62       0.0492
     43  CD        18.7730   45.9500   -3.7750 C.3    62  ARG62       0.2205
     44  NE        18.4890   45.8440   -5.2130 N.pl3  62  ARG62      -0.0865
     45  CZ        17.7330   46.6860   -5.9200 C.cat  62  ARG62       0.5346
     46  NH1       17.1480   47.7400   -5.3450 N.pl3  62  ARG62       0.1354
     47  NH2       17.5640   46.4670   -7.2200 N.pl3  62  ARG62       0.1354
     48  N         22.1740   40.3100    4.3550 N.3    65  THR65      -0.1203
     49  CA        21.9670   38.8930    4.2880 C.3    65  THR65       0.1994
     50  C         20.6050   38.5990    4.8500 C.2    65  THR65       0.2618
     51  O         20.2580   39.0300    5.9500 O.2    65  THR65      -0.2717
     52  CB        23.0670   38.1030    5.0040 C.3    65  THR65       0.1784
     53  OG1       24.2860   38.3480    4.2930 O.3    65  THR65      -0.2211
     54  CG2       22.7620   36.5640    4.9520 C.3    65  THR65       0.0376
     55  N         19.8170   37.8750    4.0760 N.am   66  TYR66      -0.1961
     56  CA        18.5290   37.5000    4.6050 C.3    66  TYR66       0.1771
     57  C         18.4750   35.9990    4.8500 C.2    66  TYR66       0.2620
     58  O         19.1570   35.2350    4.1940 O.2    66  TYR66      -0.2715
     59  CB        17.4470   37.9750    3.6480 C.3    66  TYR66       0.0574
     60  CG        17.4580   39.4580    3.5250 C.ar   66  TYR66      -0.0198
     61  CD1       18.2110   40.0930    2.5270 C.ar   66  TYR66      -0.0009
     62  CD2       16.7480   40.2390    4.4530 C.ar   66  TYR66      -0.0009
     63  CE1       18.2600   41.4830    2.4350 C.ar   66  TYR66       0.0417
     64  CE2       16.7910   41.6170    4.3880 C.ar   66  TYR66       0.0417
     65  CZ        17.5130   42.2330    3.3610 C.ar   66  TYR66       0.1957
     66  OH        17.5080   43.6020    3.2840 O.3    66  TYR66      -0.2866
     67  N         17.6240   35.5880    5.7750 N.am   67  ASN67      -0.1958
     68  CA        17.4470   34.1910    6.0530 C.3    67  ASN67       0.1819
     69  C         16.2190   33.7010    5.4240 C.2    67  ASN67       0.2621
     70  O         15.1240   33.7770    6.0340 O.2    67  ASN67      -0.2715
     71  CB        17.4020   34.0170    7.5610 C.3    67  ASN67       0.1195
     72  CG        18.6360   34.5800    8.1910 C.2    67  ASN67       0.2630
     73  OD1       19.7580   34.2880    7.7510 O.2    67  ASN67      -0.2716
     74  ND2       18.4430   35.4160    9.2050 N.am   67  ASN67      -0.0877
     75  N         16.3600   33.2550    4.1580 N.am   68  ILE68      -0.1964
     76  CA        15.1700   32.9420    3.3730 C.3    68  ILE68       0.1712
     77  C         14.6780   31.5780    3.8100 C.2    68  ILE68       0.2458
     78  O         15.4480   30.6520    3.8660 O.2    68  ILE68      -0.2730
     79  CB        15.5940   32.8640    1.8490 C.3    68  ILE68       0.0289
     80  CG1       15.9980   34.2410    1.3160 C.3    68  ILE68       0.0022
     81  CG2       14.4780   32.3520    1.0050 C.3    68  ILE68       0.0023
     82  CD1       14.8630   35.2600    1.3550 C.3    68  ILE68       0.0001
     83  N         13.3900   31.4360    4.1400 N.am   69  PRO69      -0.2727
     84  CA        12.8890   30.1590    4.5840 C.3    69  PRO69       0.1402
     85  C         12.5020   29.1630    3.4580 C.2    69  PRO69       0.2269
     86  O         11.7750   29.5130    2.5450 O.2    69  PRO69      -0.2865
     87  CB        11.6580   30.5500    5.3440 C.3    69  PRO69       0.0296
     88  CG        11.1530   31.7940    4.6060 C.3    69  PRO69       0.0237
     89  CD        12.3980   32.5270    4.2360 C.3    69  PRO69       0.0939
     90  N          6.7990   33.1960    6.0770 N.3    90  THR90      -0.1218
     91  CA         5.9800   33.5010    7.2570 C.3    90  THR90       0.1862
     92  C          4.8270   34.4770    6.8640 C.2    90  THR90       0.2287
     93  O          4.6980   34.9210    5.6670 O.2    90  THR90      -0.2866
     94  CB         6.8630   34.0790    8.3860 C.3    90  THR90       0.1770
     95  OG1        7.3760   35.3480    7.9810 O.3    90  THR90      -0.2211
     96  CG2        8.0900   33.1750    8.6760 C.3    90  THR90       0.0375
     97  N          4.6070   37.6260    7.8640 N.3    92  SER92      -0.1202
     98  CA         5.1820   38.9230    7.4180 C.3    92  SER92       0.2020
     99  C          5.7310   38.9940    5.9800 C.2    92  SER92       0.2621
    100  O          6.1650   40.0720    5.5870 O.2    92  SER92      -0.2717
    101  CB         6.2710   39.4380    8.3710 C.3    92  SER92       0.2103
    102  OG         7.1840   38.4230    8.7890 O.3    92  SER92      -0.2182
    103  N          5.7190   37.9120    5.1850 N.am   93  MET93      -0.1933
    104  CA         6.2660   37.9730    3.7980 C.3    93  MET93       0.1821
    105  C          5.2210   37.6730    2.7660 C.2    93  MET93       0.2332
    106  O          4.1960   37.1400    3.1080 O.2    93  MET93      -0.2860
    107  CB         7.4460   36.9900    3.5600 C.2    93  MET93       0.0096
    108  CG         8.3060   36.6600    4.7620 C.2    93  MET93       0.0285
    109  SD         9.5290   35.3380    4.5530 S.3    93  MET93      -0.1125
    110  CE        10.4950   35.5970    6.0460 C.3    93  MET93       0.0742
    111  N          7.0190   36.4630   -4.3830 N.3    96  LYS96      -0.1245
    112  CA         7.1050   37.1450   -5.6600 C.3    96  LYS96       0.1561
    113  C          7.1370   36.0970   -6.8030 C.2    96  LYS96       0.2260
    114  O          8.1390   35.4570   -7.0260 O.2    96  LYS96      -0.2867
    115  CB         8.3810   37.9870   -5.6330 C.3    96  LYS96       0.0271
    116  CG         8.5660   38.9110   -6.8170 C.3    96  LYS96       0.0035
    117  CD         7.8210   40.2210   -6.6220 C.3    96  LYS96       0.0206
    118  CE         8.1650   41.1820   -7.7530 C.3    96  LYS96       0.1093
    119  NZ         7.1360   42.2220   -8.0220 N.3    96  LYS96      -0.1314
    120  N         15.0030   37.7950   -5.2820 N.3   137  PRO137     -0.2116
    121  CA        14.4240   37.2010   -4.0720 C.3   137  PRO137      0.1372
    122  C         13.0100   36.6420   -4.3430 C.2   137  PRO137      0.2244
    123  O         12.2430   37.2660   -5.0350 O.2   137  PRO137     -0.2868
    124  CB        14.3590   38.3790   -3.0980 C.3   137  PRO137      0.0268
    125  CG        15.3970   39.3510   -3.5670 C.3   137  PRO137      0.0207
    126  CD        15.5720   39.1370   -5.0460 C.3   137  PRO137      0.0892
    127  N         10.8520   35.8980   -1.8820 N.3   139  VAL139     -0.1231
    128  CA         9.9650   36.4660   -0.8320 C.3   139  VAL139      0.1692
    129  C         10.4450   37.8980   -0.6210 C.2   139  VAL139      0.2592
    130  O         11.6560   38.1620   -0.6630 O.2   139  VAL139     -0.2718
    131  CB         9.9270   35.7110    0.4980 C.3   139  VAL139      0.0266
    132  CG1        8.9770   34.4870    0.4250 C.3   139  VAL139      0.0020
    133  CG2       11.3250   35.3120    0.9620 C.3   139  VAL139      0.0020
    134  N          9.4990   38.8350   -0.5210 N.am  140  PHE140     -0.1962
    135  CA         9.7820   40.1600    0.0750 C.3   140  PHE140      0.1771
    136  C          8.9810   40.3630    1.3590 C.2   140  PHE140      0.2620
    137  O          7.9210   39.7850    1.5200 O.2   140  PHE140     -0.2715
    138  CB         9.4640   41.2840   -0.8890 C.3   140  PHE140      0.0574
    139  CG        10.4970   41.4500   -1.9600 C.ar  140  PHE140     -0.0200
    140  CD1       10.4420   40.6850   -3.0870 C.ar  140  PHE140     -0.0042
    141  CD2       11.5250   42.3520   -1.8220 C.ar  140  PHE140     -0.0042
    142  CE1       11.3830   40.8130   -4.0870 C.ar  140  PHE140     -0.0003
    143  CE2       12.4740   42.5070   -2.8170 C.ar  140  PHE140     -0.0003
    144  CZ        12.4060   41.7300   -3.9450 C.ar  140  PHE140     -0.0000
    145  N          9.4970   41.1830    2.2680 N.am  141  SER141     -0.1950
    146  CA         8.7700   41.6190    3.4520 C.3   141  SER141      0.1924
    147  C          7.5420   42.4710    3.0250 C.2   141  SER141      0.2314
    148  O          7.5400   43.1680    1.9670 O.2   141  SER141     -0.2863
    149  CB         9.7300   42.4520    4.2970 C.3   141  SER141      0.2116
    150  OG         9.2730   42.6060    5.6280 O.3   141  SER141     -0.2180
    151  N          4.9500   45.5480    3.6120 N.3   143  PRO143     -0.2116
    152  CA         4.6860   46.9230    4.0950 C.3   143  PRO143      0.1372
    153  C          4.1650   47.0300    5.5320 C.2   143  PRO143      0.2244
    154  O          3.4920   46.1110    6.0180 O.2   143  PRO143     -0.2868
    155  CB         3.5940   47.3880    3.1420 C.3   143  PRO143      0.0268
    156  CG         3.9260   46.7030    1.8340 C.3   143  PRO143      0.0207
    157  CD         4.7040   45.4440    2.1580 C.3   143  PRO143      0.0892
@<TRIPOS>BOND
     1   119   118    1
     2   118   117    1
     3    47    45    1
     4   114   113    2
     5   116   117    1
     6   116   115    1
     7   113   112    1
     8    45    46    1
     9    45    44    2
    10   112   115    1
    11   112   111    1
    12   120   126    1
    13   120   121    1
    14    44    43    1
    15   126   125    1
    16   123   122    2
    17    36    35    1
    18    33    35   ar
    19    33    31   ar
    20   122   121    1
    21   142   144   ar
    22   142   140   ar
    23   121   124    1
    24    35    34   ar
    25   144   143   ar
    26    43    42    1
    27    31    30   ar
    28   125   124    1
    29    42    41    1
    30   140   139   ar
    31   143   141   ar
    32    34    32   ar
    33    30    32   ar
    34    30    29    1
    35    41    38    1
    36    37    38    1
    37    37    27   am
    38   139   141   ar
    39   139   138    1
    40    38    39    1
    41   127   128    1
    42    26    29    1
    43    26    27    1
    44    26    25    1
    45    27    28    2
    46   138   135    1
    47   128   129    1
    48   128   131    1
    49   130   129    2
    50    39    40    2
    51   129   134   am
    52   134   135    1
    53   135   136    1
    54   132   131    1
    55   131   133    1
    56    81    79    1
    57    80    82    1
    58    80    79    1
    59   136   137    2
    60   136   145   am
    61   156   157    1
    62   156   155    1
    63    79    76    1
    64   148   147    2
    65   157   151    1
    66   145   146    1
    67    63    61   ar
    68    63    65   ar
    69    61    60   ar
    70    86    85    2
    71   105   106    2
    72   105   104    1
    73   147   146    1
    74   155   152    1
    75    66    65    1
    76    65    64   ar
    77    76    77    1
    78    76    75    1
    79   146   149    1
    80    85    84    1
    81    60    59    1
    82    60    62   ar
    83   107   104    1
    84   107   108    2
    85   151   152    1
    86    59    56    1
    87   104   103    1
    88    77    78    2
    89    77    83   am
    90    55    56    1
    91    55    50   am
    92   152   153    1
    93    83    89    1
    94    83    84    1
    95    75    69   am
    96    58    57    2
    97    89    88    1
    98    49    48    1
    99    49    50    1
   100    49    52    1
   101    53    52    1
   102   149   150    1
   103    64    62   ar
   104   109   108    1
   105   109   110    1
   106    84    87    1
   107    56    57    1
   108    88    87    1
   109    57    67   am
   110    50    51    2
   111    54    52    1
   112   103    99   am
   113    69    70    2
   114    69    68    1
   115   153   154    2
   116   100    99    2
   117    93    92    2
   118    20    21    2
   119    20    19    1
   120    67    68    1
   121    99    98    1
   122    68    71    1
   123    90    91    1
   124    19    22    1
   125    19    18    1
   126    92    91    1
   127    22    24    1
   128    22    23    1
   129    91    94    1
   130    98    97    1
   131    98   101    1
   132    71    72    1
   133    73    72    2
   134    95    94    1
   135    72    74   am
   136   101   102    1
   137    94    96    1
   138     1     2    1
   139    12    13    2
   140    12    11    1
   141    10    11    1
   142    10     3   am
   143    14    11    1
   144    14    15    1
   145    17    15   ar
   146     2     3    1
   147     2     5    1
   148    15    16   ar
   149     3     4    2
   150     6     5    1
   151     6     7    1
   152     7     8    1
   153     8     9    1
