@<TRIPOS>MOLECULE
tmp/4ejfC00.pdb
 125 120 0 0 0
SMALL
GASTEIGER

@<TRIPOS>ATOM
      1  N         38.7490  -15.0720   29.7670 N.3    27  PHE27      -0.1241
      2  CA        37.6900  -14.5960   30.6470 C.3    27  PHE27       0.1605
      3  C         37.6080  -15.4770   31.8900 C.2    27  PHE27       0.2264
      4  O         37.5690  -16.7020   31.7850 O.2    27  PHE27      -0.2867
      5  CB        36.3660  -14.6300   29.8770 C.3    27  PHE27       0.0534
      6  CG        35.2340  -13.9240   30.5620 C.ar   27  PHE27      -0.0203
      7  CD1       35.3800  -12.6270   31.0210 C.ar   27  PHE27      -0.0042
      8  CD2       34.0070  -14.5500   30.7130 C.ar   27  PHE27      -0.0042
      9  CE1       34.3300  -11.9750   31.6410 C.ar   27  PHE27      -0.0003
     10  CE2       32.9540  -13.9040   31.3300 C.ar   27  PHE27      -0.0003
     11  CZ        33.1150  -12.6160   31.7940 C.ar   27  PHE27      -0.0000
     12  N         35.4010  -16.4530   33.7690 N.3    29  HIS29      -0.1226
     13  CA        34.2680  -17.3710   33.8630 C.3    29  HIS29       0.1752
     14  C         34.4910  -18.6770   33.1090 C.2    29  HIS29       0.2595
     15  O         33.7340  -19.6340   33.2720 O.2    29  HIS29      -0.2718
     16  CB        32.9850  -16.6970   33.3720 C.3    29  HIS29       0.0759
     17  CG        31.7600  -17.5410   33.5410 C.ar   29  HIS29       0.0818
     18  ND1       31.2340  -17.8490   34.7770 N.ar   29  HIS29      -0.2268
     19  CD2       30.9610  -18.1470   32.6300 C.ar   29  HIS29       0.1154
     20  CE1       30.1620  -18.6060   34.6200 C.ar   29  HIS29       0.1986
     21  NE2       29.9750  -18.8010   33.3280 N.ar   29  HIS29      -0.2212
     22  N         35.5300  -18.7140   32.2840 N.am   30  LEU30      -0.1980
     23  CA        35.8230  -19.9020   31.4940 C.3    30  LEU30       0.1596
     24  C         36.7420  -20.8570   32.2460 C.2    30  LEU30       0.2287
     25  O         36.9190  -22.0080   31.8470 O.2    30  LEU30      -0.2864
     26  CB        36.4290  -19.5080   30.1470 C.3    30  LEU30       0.0297
     27  CG        35.4490  -18.8090   29.2020 C.3    30  LEU30       0.0022
     28  CD1       36.1790  -18.0970   28.0730 C.3    30  LEU30       0.0001
     29  CD2       34.4290  -19.8020   28.6560 C.3    30  LEU30       0.0001
     30  N         35.2830  -13.3510   20.9710 N.3    64  ALA64      -0.1231
     31  CA        34.5810  -14.0560   19.9050 C.3    64  ALA64       0.1694
     32  C         34.0540  -13.1000   18.8390 C.2    64  ALA64       0.2591
     33  O         34.2010  -13.3480   17.6430 O.2    64  ALA64      -0.2718
     34  CB        33.4450  -14.8860   20.4800 C.3    64  ALA64       0.0304
     35  N         33.4480  -12.0030   19.2820 N.am   65  GLU65      -0.1979
     36  CA        32.8220  -11.0530   18.3680 C.3    65  GLU65       0.1602
     37  C         33.8190  -10.3570   17.4420 C.2    65  GLU65       0.2287
     38  O         33.6470  -10.3710   16.2240 O.2    65  GLU65      -0.2864
     39  CB        31.9930  -10.0250   19.1420 C.3    65  GLU65       0.0415
     40  CG        30.7910  -10.6240   19.8560 C.3    65  GLU65       0.1163
     41  CD        29.9070   -9.5750   20.4960 C.2    65  GLU65       0.3649
     42  OE1       30.0210   -9.3670   21.7220 O.co2  65  GLU65      -0.2457
     43  OE2       29.0930   -8.9620   19.7720 O.co2  65  GLU65      -0.2457
     44  N         35.3880  -12.8860   14.9930 N.3    68  LEU68      -0.1245
     45  CA        34.5040  -13.2520   13.8900 C.3    68  LEU68       0.1561
     46  C         34.3740  -12.1480   12.8450 C.2    68  LEU68       0.2260
     47  O         34.4150  -12.4150   11.6440 O.2    68  LEU68      -0.2867
     48  CB        33.1280  -13.6630   14.4140 C.3    68  LEU68       0.0270
     49  CG        33.0770  -15.0690   15.0130 C.3    68  LEU68       0.0019
     50  CD1       31.7120  -15.3550   15.6140 C.3    68  LEU68       0.0001
     51  CD2       33.4280  -16.1030   13.9540 C.3    68  LEU68       0.0001
     52  N         35.7810  -12.5430    9.1220 N.3    72  HIS72      -0.1241
     53  CA        34.7710  -12.3760    8.0880 C.3    72  HIS72       0.1621
     54  C         35.2230  -11.3100    7.0980 C.2    72  HIS72       0.2264
     55  O         34.8490  -11.3350    5.9250 O.2    72  HIS72      -0.2867
     56  CB        33.4230  -11.9960    8.6960 C.3    72  HIS72       0.0745
     57  CG        32.3230  -11.8800    7.6880 C.ar   72  HIS72       0.0817
     58  ND1       31.8500  -10.6670    7.2370 N.ar   72  HIS72      -0.2268
     59  CD2       31.6120  -12.8290    7.0330 C.ar   72  HIS72       0.1154
     60  CE1       30.8900  -10.8730    6.3520 C.ar   72  HIS72       0.1986
     61  NE2       30.7270  -12.1750    6.2100 N.ar   72  HIS72      -0.2212
     62  N         35.0870  -27.0690   19.1230 N.3    97  HIS97      -0.1241
     63  CA        35.1370  -25.6800   19.5110 C.3    97  HIS97       0.1621
     64  C         36.5720  -25.2090   19.8060 C.2    97  HIS97       0.2264
     65  O         37.4050  -25.9070   20.4330 O.2    97  HIS97      -0.2867
     66  CB        34.1930  -25.4510   20.7070 C.3    97  HIS97       0.0745
     67  CG        32.7430  -25.6320   20.3640 C.ar   97  HIS97       0.0817
     68  ND1       32.0160  -26.7450   20.7320 N.ar   97  HIS97      -0.2268
     69  CD2       31.9010  -24.8600   19.6370 C.ar   97  HIS97       0.1154
     70  CE1       30.7890  -26.6490   20.2480 C.ar   97  HIS97       0.1986
     71  NE2       30.6940  -25.5150   19.5790 N.ar   97  HIS97      -0.2212
     72  N         36.4640  -14.8510   25.3560 N.3   102  ASP102     -0.1225
     73  CA        35.2850  -14.8320   26.2210 C.3   102  ASP102      0.1805
     74  C         34.2150  -15.8620   25.8690 C.2   102  ASP102      0.2598
     75  O         33.2120  -15.9840   26.5730 O.2   102  ASP102     -0.2718
     76  CB        34.6500  -13.4440   26.1890 C.3   102  ASP102      0.1424
     77  CG        34.0850  -13.0990   24.8250 C.2   102  ASP102      0.3668
     78  OD1       34.6900  -13.5010   23.8080 O.co2 102  ASP102     -0.2456
     79  OD2       33.0290  -12.4360   24.7710 O.co2 102  ASP102     -0.2456
     80  N         34.4140  -16.5910   24.7800 N.am  103  ALA103     -0.1966
     81  CA        33.4110  -17.5440   24.3310 C.3   103  ALA103      0.1728
     82  C         34.0130  -18.5170   23.3310 C.2   103  ALA103      0.2616
     83  O         35.1190  -18.3020   22.8340 O.2   103  ALA103     -0.2715
     84  CB        32.2260  -16.8060   23.7160 C.3   103  ALA103      0.0334
     85  N         33.2890  -19.5920   23.0390 N.am  104  LYS104     -0.1963
     86  CA        33.7790  -20.5690   22.0770 C.3   104  LYS104      0.1728
     87  C         33.1540  -20.3960   20.7030 C.2   104  LYS104      0.2616
     88  O         32.0220  -19.9330   20.5670 O.2   104  LYS104     -0.2715
     89  CB        33.5930  -21.9990   22.5890 C.3   104  LYS104      0.0311
     90  CG        32.1690  -22.3360   22.9900 C.3   104  LYS104      0.0038
     91  CD        32.1130  -23.5950   23.8530 C.3   104  LYS104      0.0206
     92  CE        30.6900  -23.8660   24.3370 C.3   104  LYS104      0.1093
     93  NZ        30.6450  -25.1470   25.0950 N.3   104  LYS104     -0.1314
     94  N         33.9330  -20.7430   19.6900 N.am  105  ILE105     -0.1963
     95  CA        33.5040  -20.6490   18.3160 C.3   105  ILE105      0.1727
     96  C         33.6980  -22.0140   17.7010 C.2   105  ILE105      0.2616
     97  O         34.6270  -22.7390   18.0570 O.2   105  ILE105     -0.2715
     98  CB        34.3740  -19.6560   17.5400 C.3   105  ILE105      0.0290
     99  CG1       34.4540  -18.3210   18.2810 C.3   105  ILE105      0.0022
    100  CG2       33.8440  -19.4720   16.1300 C.3   105  ILE105      0.0023
    101  CD1       35.2870  -17.2840   17.5700 C.3   105  ILE105      0.0001
    102  N         32.8180  -22.3690   16.7780 N.am  106  GLU106     -0.1977
    103  CA        32.9770  -23.6140   16.0540 C.3   106  GLU106      0.1602
    104  C         33.9910  -23.4400   14.9410 C.2   106  GLU106      0.2287
    105  O         33.9620  -22.4510   14.2020 O.2   106  GLU106     -0.2864
    106  CB        31.6500  -24.0780   15.4780 C.3   106  GLU106      0.0415
    107  CG        30.9030  -25.0290   16.3820 C.3   106  GLU106      0.1163
    108  CD        29.8080  -25.7370   15.6340 C.2   106  GLU106      0.3649
    109  OE1       29.3120  -25.1690   14.6390 O.co2 106  GLU106     -0.2457
    110  OE2       29.4460  -26.8630   16.0200 O.co2 106  GLU106     -0.2457
    111  N         32.5790  -23.0120   11.6520 N.3   109  THR109     -0.1218
    112  CA        32.0900  -21.6560   11.4410 C.3   109  THR109      0.1862
    113  C         33.1930  -20.7910   10.8430 C.2   109  THR109      0.2287
    114  O         32.9390  -19.9330    9.9980 O.2   109  THR109     -0.2866
    115  CB        31.6080  -21.0260   12.7610 C.3   109  THR109      0.1770
    116  OG1       30.4560  -21.7330   13.2380 O.3   109  THR109     -0.2211
    117  CG2       31.2500  -19.5630   12.5600 C.3   109  THR109      0.0375
    118  N         33.6680  -19.9170    6.1670 N.3   113  LEU113     -0.1245
    119  CA        33.7140  -18.6030    5.5370 C.3   113  LEU113      0.1561
    120  C         34.5470  -18.6020    4.2600 C.2   113  LEU113      0.2260
    121  O         34.4090  -17.7100    3.4230 O.2   113  LEU113     -0.2867
    122  CB        34.2710  -17.5700    6.5180 C.3   113  LEU113      0.0270
    123  CG        33.4890  -17.3900    7.8190 C.3   113  LEU113      0.0019
    124  CD1       34.2320  -16.4610    8.7660 C.3   113  LEU113      0.0001
    125  CD2       32.0900  -16.8670    7.5340 C.3   113  LEU113      0.0001
@<TRIPOS>BOND
     1   121   120    2
     2   120   119    1
     3   119   118    1
     4   119   122    1
     5    55    54    2
     6    61    60   ar
     7    61    59   ar
     8    60    58   ar
     9   122   123    1
    10    59    57   ar
    11    54    53    1
    12    58    57   ar
    13   125   123    1
    14    57    56    1
    15   123   124    1
    16    53    56    1
    17    53    52    1
    18   114   113    2
    19   113   112    1
    20   112   111    1
    21   112   115    1
    22    47    46    2
    23   117   115    1
    24   115   116    1
    25    46    45    1
    26    45    48    1
    27    45    44    1
    28    51    49    1
    29   105   104    2
    30    48    49    1
    31   109   108   ar
    32   104   103    1
    33    49    50    1
    34   106   103    1
    35   106   107    1
    36   108   110   ar
    37   108   107    1
    38   103   102    1
    39   100    98    1
    40    38    37    2
    41   102    96   am
    42    37    36    1
    43    98    99    1
    44    98    95    1
    45   101    99    1
    46    33    32    2
    47    96    97    2
    48    96    95    1
    49    95    94    1
    50    36    39    1
    51    36    35    1
    52    32    35   am
    53    32    31    1
    54    62    63    1
    55    39    40    1
    56    63    64    1
    57    63    66    1
    58    71    69   ar
    59    71    70   ar
    60    69    67   ar
    61    94    87   am
    62    43    41   ar
    63    64    65    2
    64    40    41    1
    65    31    34    1
    66    31    30    1
    67    70    68   ar
    68    67    66    1
    69    67    68   ar
    70    41    42   ar
    71    88    87    2
    72    87    86    1
    73    86    89    1
    74    86    85    1
    75    89    90    1
    76    83    82    2
    77    90    91    1
    78    85    82   am
    79    82    81    1
    80    84    81    1
    81    78    77   ar
    82    91    92    1
    83    81    80    1
    84    92    93    1
    85    79    77   ar
    86    80    74   am
    87    77    76    1
    88    72    73    1
    89    74    73    1
    90    74    75    2
    91    76    73    1
    92    28    27    1
    93    29    27    1
    94    27    26    1
    95     1     2    1
    96     5     6    1
    97     5     2    1
    98    26    23    1
    99     6     8   ar
   100     6     7   ar
   101     2     3    1
   102     8    10   ar
   103     7     9   ar
   104    10    11   ar
   105    23    24    1
   106    23    22    1
   107     9    11   ar
   108     4     3    2
   109    25    24    2
   110    22    14   am
   111    19    21   ar
   112    19    17   ar
   113    14    15    2
   114    14    13    1
   115    21    20   ar
   116    16    17    1
   117    16    13    1
   118    17    18   ar
   119    12    13    1
   120    20    18   ar
