@<TRIPOS>MOLECULE
tmp/4ejgD01.pdb
 122 117 0 0 0
SMALL
GASTEIGER

@<TRIPOS>ATOM
      1  N         18.4690  -74.3010  -78.4070 N.3    78  PHE78      -0.1241
      2  CA        18.5460  -73.6240  -77.1410 C.3    78  PHE78       0.1605
      3  C         18.2820  -72.1480  -77.2930 C.2    78  PHE78       0.2264
      4  O         17.6020  -71.5760  -76.4430 O.2    78  PHE78      -0.2867
      5  CB        19.8800  -73.9060  -76.4460 C.3    78  PHE78       0.0534
      6  CG        20.1050  -75.3490  -76.1550 C.ar   78  PHE78      -0.0203
      7  CD1       19.2040  -76.0700  -75.3670 C.ar   78  PHE78      -0.0042
      8  CD2       21.2220  -75.9990  -76.6560 C.ar   78  PHE78      -0.0042
      9  CE1       19.4350  -77.4140  -75.0830 C.ar   78  PHE78      -0.0003
     10  CE2       21.4610  -77.3510  -76.3960 C.ar   78  PHE78      -0.0003
     11  CZ        20.5840  -78.0480  -75.6030 C.ar   78  PHE78      -0.0000
     12  N         16.9190  -69.1030  -74.9870 N.3    82  PHE82      -0.1241
     13  CA        17.8730  -68.1950  -74.3100 C.3    82  PHE82       0.1605
     14  C         17.9820  -66.8250  -74.9180 C.2    82  PHE82       0.2264
     15  O         18.1260  -65.8590  -74.1710 O.2    82  PHE82      -0.2867
     16  CB        19.2560  -68.8330  -74.0730 C.3    82  PHE82       0.0534
     17  CG        19.2300  -70.0420  -73.1590 C.ar   82  PHE82      -0.0203
     18  CD1       18.9080  -71.2870  -73.6470 C.ar   82  PHE82      -0.0042
     19  CD2       19.4990  -69.9120  -71.8130 C.ar   82  PHE82      -0.0042
     20  CE1       18.8510  -72.4050  -72.8060 C.ar   82  PHE82      -0.0003
     21  CE2       19.4580  -71.0050  -70.9780 C.ar   82  PHE82      -0.0003
     22  CZ        19.1170  -72.2590  -71.4800 C.ar   82  PHE82      -0.0000
     23  N         25.9940  -69.3470  -70.8220 N.3    88  ALA88      -0.1231
     24  CA        26.3450  -70.2500  -71.8970 C.3    88  ALA88       0.1694
     25  C         26.1690  -69.6940  -73.3260 C.2    88  ALA88       0.2592
     26  O         27.0010  -69.9570  -74.1880 O.2    88  ALA88      -0.2718
     27  CB        25.6100  -71.5960  -71.7390 C.3    88  ALA88       0.0304
     28  N         25.1040  -68.9440  -73.5700 N.am   89  PHE89      -0.1976
     29  CA        24.7510  -68.5170  -74.9550 C.3    89  PHE89       0.1639
     30  C         24.7790  -66.9940  -75.1800 C.2    89  PHE89       0.2290
     31  O         24.2500  -66.4970  -76.1300 O.2    89  PHE89      -0.2864
     32  CB        23.4430  -69.1630  -75.4190 C.3    89  PHE89       0.0560
     33  CG        23.4120  -70.6790  -75.2250 C.ar   89  PHE89      -0.0200
     34  CD1       24.2060  -71.5150  -76.0100 C.ar   89  PHE89      -0.0042
     35  CD2       22.5830  -71.2710  -74.2480 C.ar   89  PHE89      -0.0042
     36  CE1       24.1900  -72.9020  -75.8290 C.ar   89  PHE89      -0.0003
     37  CE2       22.5660  -72.6710  -74.0350 C.ar   89  PHE89      -0.0003
     38  CZ        23.3720  -73.4880  -74.8420 C.ar   89  PHE89      -0.0000
     39  N         17.6990  -82.2950  -74.6390 N.3   180  PHE180     -0.1241
     40  CA        19.0510  -82.6830  -74.9040 C.3   180  PHE180      0.1605
     41  C         19.1220  -83.7400  -76.0050 C.2   180  PHE180      0.2264
     42  O         19.9280  -83.6400  -76.9260 O.2   180  PHE180     -0.2867
     43  CB        19.6520  -83.2040  -73.5850 C.3   180  PHE180      0.0534
     44  CG        21.1420  -83.4160  -73.5940 C.ar  180  PHE180     -0.0203
     45  CD1       22.0120  -82.3860  -73.9480 C.ar  180  PHE180     -0.0042
     46  CD2       21.6670  -84.6580  -73.2300 C.ar  180  PHE180     -0.0042
     47  CE1       23.3470  -82.5710  -73.9090 C.ar  180  PHE180     -0.0003
     48  CE2       23.0380  -84.8690  -73.2030 C.ar  180  PHE180     -0.0003
     49  CZ        23.8790  -83.8080  -73.5160 C.ar  180  PHE180     -0.0000
     50  N         21.0480  -72.8060  -67.4040 N.3   268  ASN268     -0.1240
     51  CA        22.3710  -73.3530  -67.8810 C.3   268  ASN268      0.1653
     52  C         23.0410  -74.2510  -66.8620 C.2   268  ASN268      0.2266
     53  O         23.5740  -75.2850  -67.2240 O.2   268  ASN268     -0.2867
     54  CB        23.4260  -72.2670  -68.2390 C.3   268  ASN268      0.1155
     55  CG        22.9900  -71.3800  -69.3120 C.2   268  ASN268      0.2627
     56  OD1       22.2710  -71.8180  -70.2120 O.2   268  ASN268     -0.2716
     57  ND2       23.3760  -70.0920  -69.2350 N.am  268  ASN268     -0.0877
     58  N         20.5160  -77.4690  -66.1300 N.3   271  PHE271     -0.1227
     59  CA        20.4090  -78.4270  -67.2430 C.3   271  PHE271      0.1736
     60  C         21.7710  -79.1600  -67.3750 C.2   271  PHE271      0.2595
     61  O         21.8410  -80.3780  -67.3250 O.2   271  PHE271     -0.2718
     62  CB        20.0360  -77.6720  -68.5020 C.3   271  PHE271      0.0547
     63  CG        19.4660  -78.5030  -69.6260 C.ar  271  PHE271     -0.0202
     64  CD1       20.1960  -79.4950  -70.2420 C.ar  271  PHE271     -0.0042
     65  CD2       18.2310  -78.1930  -70.1610 C.ar  271  PHE271     -0.0042
     66  CE1       19.6600  -80.2270  -71.3160 C.ar  271  PHE271     -0.0003
     67  CE2       17.6930  -78.9260  -71.2230 C.ar  271  PHE271     -0.0003
     68  CZ        18.4070  -79.9230  -71.8050 C.ar  271  PHE271     -0.0000
     69  N         22.8450  -78.3870  -67.5130 N.am  272  ALA272     -0.1980
     70  CA        24.1550  -78.9480  -67.7620 C.3   272  ALA272      0.1597
     71  C         24.6370  -79.7550  -66.5750 C.2   272  ALA272      0.2287
     72  O         25.2050  -80.8270  -66.7520 O.2   272  ALA272     -0.2864
     73  CB        25.1260  -77.8490  -68.0950 C.3   272  ALA272      0.0319
     74  N         22.6240  -83.2500  -67.0350 N.3   275  GLU275     -0.1231
     75  CA        22.5030  -84.0530  -68.1980 C.3   275  GLU275      0.1699
     76  C         23.8110  -84.7180  -68.5890 C.2   275  GLU275      0.2592
     77  O         23.8590  -85.8980  -68.9300 O.2   275  GLU275     -0.2718
     78  CB        22.0010  -83.1910  -69.3280 C.3   275  GLU275      0.0402
     79  CG        21.0820  -83.8950  -70.2260 C.3   275  GLU275      0.1161
     80  CD        20.1380  -84.8990  -69.5220 C.2   275  GLU275      0.3649
     81  OE1       19.5030  -84.5470  -68.5060 O.co2 275  GLU275     -0.2457
     82  OE2       20.0110  -86.0470  -70.0290 O.co2 275  GLU275     -0.2457
     83  N         24.8790  -83.9650  -68.4970 N.am  276  THR276     -0.1953
     84  CA        26.1250  -84.4170  -69.0220 C.3   276  THR276      0.1897
     85  C         26.8050  -85.5250  -68.1720 C.2   276  THR276      0.2313
     86  O         27.2060  -86.5430  -68.7270 O.2   276  THR276     -0.2863
     87  CB        27.0530  -83.2240  -69.3140 C.3   276  THR276      0.1794
     88  OG1       27.0180  -82.3170  -68.2160 O.3   276  THR276     -0.2208
     89  CG2       26.6070  -82.4790  -70.5810 C.3   276  THR276      0.0378
     90  N         30.0550  -84.2930  -76.1760 N.3   337  LEU337     -0.1245
     91  CA        29.7690  -83.2190  -77.1140 C.3   337  LEU337      0.1561
     92  C         30.7640  -83.2270  -78.2830 C.2   337  LEU337      0.2260
     93  O         31.8230  -82.6220  -78.2290 O.2   337  LEU337     -0.2867
     94  CB        29.7570  -81.8840  -76.3820 C.3   337  LEU337      0.0270
     95  CG        28.4830  -81.1470  -75.9020 C.3   337  LEU337      0.0019
     96  CD1       27.3600  -81.9890  -75.3160 C.3   337  LEU337      0.0001
     97  CD2       28.8840  -80.0750  -74.9440 C.3   337  LEU337      0.0001
     98  N         30.3480  -76.9750  -78.0970 N.3   341  LEU341     -0.1245
     99  CA        29.4750  -75.8470  -78.3180 C.3   341  LEU341      0.1561
    100  C         30.1210  -74.8350  -79.3230 C.2   341  LEU341      0.2260
    101  O         31.3060  -74.5610  -79.2480 O.2   341  LEU341     -0.2867
    102  CB        29.1600  -75.2160  -76.9710 C.3   341  LEU341      0.0270
    103  CG        27.9050  -74.3430  -76.8890 C.3   341  LEU341      0.0019
    104  CD1       26.6930  -74.8890  -77.7220 C.3   341  LEU341      0.0001
    105  CD2       27.5290  -74.0130  -75.4240 C.3   341  LEU341      0.0001
    106  N         34.6410  -75.1220  -70.2650 N.3   410  CYS410     -0.1235
    107  CA        33.6310  -75.5220  -69.3000 C.3   410  CYS410      0.1677
    108  C         34.1220  -75.2310  -67.9240 C.2   410  CYS410      0.2270
    109  O         35.1260  -75.8030  -67.4810 O.2   410  CYS410     -0.2867
    110  CB        33.3630  -77.0300  -69.3590 C.3   410  CYS410      0.0956
    111  SG        32.0050  -77.7530  -68.2360 S.3   410  CYS410     -0.0801
    112  N         24.3940  -82.7610  -81.6080 N.3   451  PHE451     -0.1241
    113  CA        25.0430  -81.9130  -80.6260 C.3   451  PHE451      0.1605
    114  C         25.6160  -82.7320  -79.4360 C.2   451  PHE451      0.2264
    115  O         26.5830  -82.3260  -78.8090 O.2   451  PHE451     -0.2867
    116  CB        24.0810  -80.8180  -80.1700 C.3   451  PHE451      0.0534
    117  CG        24.5840  -80.0460  -78.9980 C.ar  451  PHE451     -0.0203
    118  CD1       25.5360  -79.0430  -79.1710 C.ar  451  PHE451     -0.0042
    119  CD2       24.1560  -80.3710  -77.7100 C.ar  451  PHE451     -0.0042
    120  CE1       26.0640  -78.3860  -78.0690 C.ar  451  PHE451     -0.0003
    121  CE2       24.6340  -79.7030  -76.6180 C.ar  451  PHE451     -0.0003
    122  CZ        25.6030  -78.7030  -76.7900 C.ar  451  PHE451     -0.0000
@<TRIPOS>BOND
     1   112   113    1
     2   113   116    1
     3   113   114    1
     4   116   117    1
     5   114   115    2
     6   100   101    2
     7   100    99    1
     8   118   117   ar
     9   118   120   ar
    10   117   119   ar
    11     1     2    1
    12    99    98    1
    13    99   102    1
    14    92    93    2
    15    92    91    1
    16   120   122   ar
    17   104   103    1
    18   119   121   ar
    19     3     2    1
    20     3     4    2
    21     2     5    1
    22    91    94    1
    23    91    90    1
    24   102   103    1
    25    42    41    2
    26   103   105    1
    27   122   121   ar
    28     8    10   ar
    29     8     6   ar
    30     5     6    1
    31    10    11   ar
    32    94    95    1
    33     6     7   ar
    34    31    30    2
    35    34    36   ar
    36    34    33   ar
    37    41    40    1
    38    95    96    1
    39    95    97    1
    40    36    38   ar
    41    11     9   ar
    42    32    33    1
    43    32    29    1
    44     7     9   ar
    45    33    35   ar
    46    30    29    1
    47    12    13    1
    48    29    28    1
    49    14    13    1
    50    14    15    2
    51    40    39    1
    52    40    43    1
    53    38    37   ar
    54    13    16    1
    55    35    37   ar
    56    26    25    2
    57    16    17    1
    58    45    47   ar
    59    45    44   ar
    60    47    49   ar
    61    18    17   ar
    62    18    20   ar
    63    44    43    1
    64    44    46   ar
    65    28    25   am
    66    49    48   ar
    67    25    24    1
    68    46    48   ar
    69    17    19   ar
    70    20    22   ar
    71    24    27    1
    72    24    23    1
    73    19    21   ar
    74    68    66   ar
    75    68    67   ar
    76    22    21   ar
    77    66    64   ar
    78    67    65   ar
    79    89    87    1
    80   106   107    1
    81    64    63   ar
    82    79    80    1
    83    79    78    1
    84    56    55    2
    85    65    63   ar
    86    82    80   ar
    87    63    62    1
    88    80    81   ar
    89   110   107    1
    90   110   111    1
    91    78    75    1
    92    87    84    1
    93    87    88    1
    94    55    57   am
    95    55    54    1
    96   107   108    1
    97    84    83    1
    98    84    85    1
    99    77    76    2
   100    86    85    2
   101    76    83   am
   102    76    75    1
   103    62    59    1
   104    54    51    1
   105    75    74    1
   106    73    70    1
   107   108   109    2
   108    51    50    1
   109    51    52    1
   110    70    69    1
   111    70    71    1
   112    69    60   am
   113    60    61    2
   114    60    59    1
   115    59    58    1
   116    53    52    2
   117    72    71    2
