@<TRIPOS>MOLECULE
tmp/4ejhD01.pdb
 121 116 0 0 0
SMALL
GASTEIGER

@<TRIPOS>ATOM
      1  N         64.2920  -27.3250  -10.3170 N.3    77  PHE77      -0.1241
      2  CA        64.1660  -28.1340  -11.4970 C.3    77  PHE77       0.1605
      3  C         64.3550  -27.3230  -12.7460 C.2    77  PHE77       0.2264
      4  O         65.0120  -27.8190  -13.6670 O.2    77  PHE77      -0.2867
      5  CB        62.8530  -28.9180  -11.5270 C.3    77  PHE77       0.0534
      6  CG        62.6630  -29.7640  -10.3320 C.ar   77  PHE77      -0.0203
      7  CD1       61.5690  -29.5690   -9.4850 C.ar   77  PHE77      -0.0042
      8  CD2       63.6030  -30.6930   -9.9820 C.ar   77  PHE77      -0.0042
      9  CE1       61.4100  -30.3220   -8.3340 C.ar   77  PHE77      -0.0003
     10  CE2       63.4480  -31.4420   -8.8110 C.ar   77  PHE77      -0.0003
     11  CZ        62.3440  -31.2520   -8.0110 C.ar   77  PHE77      -0.0000
     12  N         65.7060  -28.2500  -16.6320 N.3    81  PHE81      -0.1241
     13  CA        64.7120  -28.5070  -17.6850 C.3    81  PHE81       0.1605
     14  C         64.6200  -27.3310  -18.6530 C.2    81  PHE81       0.2264
     15  O         64.3790  -27.5510  -19.8220 O.2    81  PHE81      -0.2867
     16  CB        63.3260  -28.9320  -17.1130 C.3    81  PHE81       0.0534
     17  CG        63.3630  -30.2630  -16.3720 C.ar   81  PHE81      -0.0203
     18  CD1       63.6580  -30.3060  -15.0230 C.ar   81  PHE81      -0.0042
     19  CD2       63.1760  -31.4490  -17.0530 C.ar   81  PHE81      -0.0042
     20  CE1       63.7610  -31.5170  -14.3370 C.ar   81  PHE81      -0.0003
     21  CE2       63.2670  -32.6750  -16.3960 C.ar   81  PHE81      -0.0003
     22  CZ        63.5640  -32.7210  -15.0350 C.ar   81  PHE81      -0.0000
     23  N         56.6010  -31.9770  -17.8690 N.3    87  ALA87      -0.1231
     24  CA        56.2750  -31.3780  -16.5550 C.3    87  ALA87       0.1694
     25  C         56.4890  -29.8440  -16.4320 C.2    87  ALA87       0.2592
     26  O         55.7070  -29.1600  -15.7590 O.2    87  ALA87      -0.2718
     27  CB        57.0210  -32.0860  -15.4560 C.3    87  ALA87       0.0304
     28  N         57.5150  -29.3280  -17.0770 N.am   88  PHE88      -0.1976
     29  CA        57.9420  -27.9560  -16.8690 C.3    88  PHE88       0.1639
     30  C         57.6650  -27.1220  -18.0590 C.2    88  PHE88       0.2290
     31  O         58.1580  -25.9960  -18.1400 O.2    88  PHE88      -0.2864
     32  CB        59.4170  -27.8970  -16.3870 C.3    88  PHE88       0.0560
     33  CG        59.5770  -28.5440  -15.0480 C.ar   88  PHE88      -0.0200
     34  CD1       60.1600  -29.8160  -14.9150 C.ar   88  PHE88      -0.0042
     35  CD2       58.9570  -27.9630  -13.9370 C.ar   88  PHE88      -0.0042
     36  CE1       60.2370  -30.4600  -13.6250 C.ar   88  PHE88      -0.0003
     37  CE2       58.9790  -28.5840  -12.6840 C.ar   88  PHE88      -0.0003
     38  CZ        59.6080  -29.8340  -12.5210 C.ar   88  PHE88      -0.0000
     39  N         65.3830  -33.9370   -4.8770 N.3   179  PHE179     -0.1241
     40  CA        64.0580  -33.8370   -4.3880 C.3   179  PHE179      0.1605
     41  C         64.0810  -33.2810   -2.9850 C.2   179  PHE179      0.2264
     42  O         63.3600  -32.3480   -2.6680 O.2   179  PHE179     -0.2867
     43  CB        63.4210  -35.2090   -4.4000 C.3   179  PHE179      0.0534
     44  CG        61.9250  -35.2080   -4.1780 C.ar  179  PHE179     -0.0203
     45  CD1       61.0750  -34.7300   -5.1590 C.ar  179  PHE179     -0.0042
     46  CD2       61.3810  -35.7900   -3.0180 C.ar  179  PHE179     -0.0042
     47  CE1       59.6740  -34.7980   -4.9990 C.ar  179  PHE179     -0.0003
     48  CE2       60.0290  -35.8750   -2.8270 C.ar  179  PHE179     -0.0003
     49  CZ        59.1410  -35.3540   -3.8290 C.ar  179  PHE179     -0.0000
     50  N         63.0060  -38.2050  -18.3810 N.3   266  LEU266     -0.1231
     51  CA        63.4810  -37.9290  -17.0380 C.3   266  LEU266      0.1693
     52  C         62.2920  -37.6250  -16.1080 C.2   266  LEU266      0.2592
     53  O         62.2010  -38.2260  -15.0660 O.2   266  LEU266     -0.2718
     54  CB        64.5970  -36.8430  -16.9930 C.3   266  LEU266      0.0284
     55  CG        64.9720  -36.3250  -15.6000 C.3   266  LEU266      0.0019
     56  CD1       65.3070  -37.4210  -14.6390 C.3   266  LEU266      0.0001
     57  CD2       66.1440  -35.3680  -15.6920 C.3   266  LEU266      0.0001
     58  N         61.3660  -36.7630  -16.5250 N.am  267  ASN267     -0.1974
     59  CA        60.2050  -36.4720  -15.7130 C.3   267  ASN267      0.1688
     60  C         59.5740  -37.7820  -15.2110 C.2   267  ASN267      0.2292
     61  O         59.2220  -37.8490  -14.0150 O.2   267  ASN267     -0.2864
     62  CB        59.1380  -35.6440  -16.4390 C.3   267  ASN267      0.1181
     63  CG        59.5940  -34.2730  -16.8250 C.2   267  ASN267      0.2629
     64  OD1       59.2890  -33.7600  -17.9240 O.2   267  ASN267     -0.2716
     65  ND2       60.3340  -33.6400  -15.9140 N.am  267  ASN267     -0.0877
     66  N         61.9510  -39.9390  -12.8110 N.3   270  PHE270     -0.1227
     67  CA        61.9780  -39.2620  -11.4990 C.3   270  PHE270      0.1736
     68  C         60.6040  -39.2480  -10.8190 C.2   270  PHE270      0.2595
     69  O         60.4370  -39.7310   -9.7050 O.2   270  PHE270     -0.2718
     70  CB        62.4860  -37.8400  -11.7230 C.3   270  PHE270      0.0547
     71  CG        63.0620  -37.1570  -10.5110 C.ar  270  PHE270     -0.0202
     72  CD1       64.0330  -36.1880  -10.6740 C.ar  270  PHE270     -0.0042
     73  CD2       62.6150  -37.4120   -9.2370 C.ar  270  PHE270     -0.0042
     74  CE1       64.5440  -35.5230   -9.5780 C.ar  270  PHE270     -0.0003
     75  CE2       63.1570  -36.7230   -8.1390 C.ar  270  PHE270     -0.0003
     76  CZ        64.0950  -35.7880   -8.3240 C.ar  270  PHE270     -0.0000
     77  N         59.5890  -38.7220  -11.4660 N.am  271  ALA271     -0.1980
     78  CA        58.3200  -38.6430  -10.7360 C.3   271  ALA271      0.1597
     79  C         57.8280  -40.0690  -10.4830 C.2   271  ALA271      0.2287
     80  O         57.1830  -40.3540   -9.4720 O.2   271  ALA271     -0.2864
     81  CB        57.2940  -37.8540  -11.4540 C.3   271  ALA271      0.0319
     82  N         57.9250  -40.2790   -5.6380 N.3   275  THR275     -0.1218
     83  CA        56.7320  -40.0230   -4.8500 C.3   275  THR275      0.1862
     84  C         56.0230  -41.2520   -4.2860 C.2   275  THR275      0.2287
     85  O         55.5710  -41.2210   -3.1560 O.2   275  THR275     -0.2866
     86  CB        55.7290  -39.2130   -5.6730 C.3   275  THR275      0.1770
     87  OG1       55.6480  -39.7930   -6.9760 O.3   275  THR275     -0.2211
     88  CG2       56.2400  -37.7980   -5.8340 C.3   275  THR275      0.0375
     89  N         53.1520  -33.0330   -2.0360 N.3   336  LEU336     -0.1245
     90  CA        53.4430  -31.8030   -2.7050 C.3   336  LEU336      0.1561
     91  C         52.5600  -30.7140   -2.1330 C.2   336  LEU336      0.2260
     92  O         51.5020  -30.4460   -2.6440 O.2   336  LEU336     -0.2867
     93  CB        53.1740  -31.9980   -4.2060 C.3   336  LEU336      0.0270
     94  CG        54.0720  -32.9610   -5.0280 C.3   336  LEU336      0.0019
     95  CD1       54.1490  -32.4620   -6.4320 C.3   336  LEU336      0.0001
     96  CD2       55.5400  -33.0940   -4.5150 C.3   336  LEU336      0.0001
     97  N         52.4960  -28.2080   -7.8770 N.3   340  LEU340     -0.1245
     98  CA        53.4290  -27.6930   -8.7640 C.3   340  LEU340      0.1561
     99  C         52.8540  -26.3660   -9.2330 C.2   340  LEU340      0.2260
    100  O         51.7210  -26.3060   -9.6600 O.2   340  LEU340     -0.2867
    101  CB        53.5040  -28.7020   -9.9110 C.3   340  LEU340      0.0270
    102  CG        54.7630  -28.6730  -10.6930 C.3   340  LEU340      0.0019
    103  CD1       55.9850  -28.4480   -9.7380 C.3   340  LEU340      0.0001
    104  CD2       54.8320  -29.9530  -11.4940 C.3   340  LEU340      0.0001
    105  N         48.0450  -35.1490  -12.4200 N.3   409  CYS409     -0.1235
    106  CA        49.0460  -36.1750  -12.5280 C.3   409  CYS409      0.1677
    107  C         48.5530  -37.3530  -13.4300 C.2   409  CYS409      0.2270
    108  O         47.6770  -38.1400  -13.0190 O.2   409  CYS409     -0.2867
    109  CB        49.4460  -36.7120  -11.1670 C.3   409  CYS409      0.0956
    110  SG        50.7430  -37.9050  -11.2750 S.3   409  CYS409     -0.0801
    111  N         58.8100  -27.5930   -1.2080 N.3   450  PHE450     -0.1241
    112  CA        58.1030  -28.1340   -2.3640 C.3   450  PHE450      0.1605
    113  C         57.5720  -29.5370   -2.0350 C.2   450  PHE450      0.2264
    114  O         56.5020  -29.9090   -2.4340 O.2   450  PHE450     -0.2867
    115  CB        59.0340  -28.1050   -3.5840 C.3   450  PHE450      0.0534
    116  CG        58.5800  -28.9530   -4.7030 C.ar  450  PHE450     -0.0203
    117  CD1       57.6980  -28.4630   -5.6430 C.ar  450  PHE450     -0.0042
    118  CD2       59.0610  -30.2310   -4.8480 C.ar  450  PHE450     -0.0042
    119  CE1       57.3030  -29.2570   -6.6980 C.ar  450  PHE450     -0.0003
    120  CE2       58.6580  -31.0450   -5.9430 C.ar  450  PHE450     -0.0003
    121  CZ        57.7660  -30.5700   -6.8340 C.ar  450  PHE450     -0.0000
@<TRIPOS>BOND
     1    15    14    2
     2    14    13    1
     3    50    51    1
     4    31    30    2
     5    30    29    1
     6    64    63    2
     7    23    24    1
     8    13    16    1
     9    13    12    1
    10    16    17    1
    11    28    29    1
    12    28    25   am
    13    19    21   ar
    14    19    17   ar
    15    51    54    1
    16    51    52    1
    17    54    55    1
    18    29    32    1
    19    63    62    1
    20    63    65   am
    21    24    25    1
    22    24    27    1
    23    58    52   am
    24    58    59    1
    25    62    59    1
    26    25    26    2
    27    21    22   ar
    28    32    33    1
    29    17    18   ar
    30    52    53    2
    31    59    60    1
    32    57    55    1
    33    55    56    1
    34    60    61    2
    35    33    34   ar
    36    33    35   ar
    37    22    20   ar
    38    18    20   ar
    39    34    36   ar
    40    35    37   ar
    41     4     3    2
    42    36    38   ar
    43   107   108    2
    44   107   106    1
    45    66    67    1
    46     3     2    1
    47    37    38   ar
    48   106   105    1
    49   106   109    1
    50    70    67    1
    51    70    71    1
    52     5     2    1
    53     5     6    1
    54    67    68    1
    55     2     1    1
    56   104   102    1
    57    77    68   am
    58    77    78    1
    59    81    78    1
    60   110   109    1
    61    68    69    2
    62    78    79    1
    63   102   101    1
    64   102   103    1
    65    72    71   ar
    66    72    74   ar
    67    71    73   ar
    68    79    80    2
    69     6     8   ar
    70     6     7   ar
    71     8    10   ar
    72   101    98    1
    73   100    99    2
    74    74    76   ar
    75     7     9   ar
    76    73    75   ar
    77    99    98    1
    78    10    11   ar
    79    98    97    1
    80     9    11   ar
    81    76    75   ar
    82    87    86    1
    83   121   119   ar
    84   121   120   ar
    85   119   117   ar
    86    95    94    1
    87   120   118   ar
    88    88    86    1
    89    86    83    1
    90   117   116   ar
    91    82    83    1
    92    45    47   ar
    93    45    44   ar
    94    94    96    1
    95    94    93    1
    96    47    49   ar
    97    39    40    1
    98    83    84    1
    99   118   116   ar
   100   116   115    1
   101    43    40    1
   102    43    44    1
   103    40    41    1
   104    84    85    2
   105    93    90    1
   106    44    46   ar
   107    49    48   ar
   108   115   112    1
   109    46    48   ar
   110    41    42    2
   111    90    91    1
   112    90    89    1
   113    92    91    2
   114   114   113    2
   115   112   113    1
   116   112   111    1
