@<TRIPOS>MOLECULE
tmp/4ejiA01.pdb
 141 135 0 0 0
SMALL
GASTEIGER

@<TRIPOS>ATOM
      1  N         66.3210  -27.2210   11.6740 N.3    73  GLU73      -0.1231
      2  CA        65.1190  -27.8830   11.1300 C.3    73  GLU73       0.1699
      3  C         64.4420  -28.7360   12.1770 C.2    73  GLU73       0.2592
      4  O         65.1510  -29.3900   12.9520 O.2    73  GLU73      -0.2718
      5  CB        65.4710  -28.8760   10.0190 C.3    73  GLU73       0.0402
      6  CG        65.7980  -28.3860    8.6630 C.3    73  GLU73       0.1161
      7  CD        65.7080  -29.5330    7.6540 C.2    73  GLU73       0.3649
      8  OE1       64.6960  -30.2840    7.6350 O.co2  73  GLU73      -0.2457
      9  OE2       66.6550  -29.6940    6.8850 O.co2  73  GLU73      -0.2457
     10  N         63.0960  -28.7390   12.1500 N.am   74  GLN74      -0.1979
     11  CA        62.1830  -29.5810   12.9480 C.3    74  GLN74       0.1601
     12  C         60.9470  -30.0220   12.1400 C.2    74  GLN74       0.2287
     13  O         59.9270  -29.2990   12.0180 O.2    74  GLN74      -0.2864
     14  CB        61.7740  -28.8330   14.1970 C.3    74  GLN74       0.0394
     15  CG        63.0310  -28.2980   14.8080 C.3    74  GLN74       0.0908
     16  CD        62.8150  -27.6630   16.1340 C.2    74  GLN74       0.2608
     17  OE1       63.1200  -28.2830   17.1510 O.2    74  GLN74      -0.2717
     18  NE2       62.3320  -26.4110   16.1460 N.am   74  GLN74      -0.0878
     19  N         58.4470  -32.1680   12.1740 N.3    76  THR76      -0.1203
     20  CA        57.0530  -32.2130   12.6310 C.3    76  THR76       0.1994
     21  C         56.3620  -30.9100   12.4630 C.2    76  THR76       0.2617
     22  O         55.1180  -30.8590   12.2570 O.2    76  THR76      -0.2717
     23  CB        56.8730  -32.5980   14.1610 C.3    76  THR76       0.1784
     24  OG1       57.2780  -33.9430   14.3300 O.3    76  THR76      -0.2211
     25  CG2       55.3230  -32.5760   14.5390 C.3    76  THR76       0.0376
     26  N         57.1580  -29.8380   12.5430 N.am   77  PHE77      -0.1975
     27  CA        56.5850  -28.5070   12.6190 C.3    77  PHE77       0.1639
     28  C         56.8570  -27.5460   11.4840 C.2    77  PHE77       0.2290
     29  O         56.0310  -26.6450   11.3020 O.2    77  PHE77      -0.2864
     30  CB        56.9490  -27.8220   13.9370 C.3    77  PHE77       0.0560
     31  CG        56.5480  -28.6040   15.1570 C.ar   77  PHE77      -0.0200
     32  CD1       57.5110  -29.1040   16.0240 C.ar   77  PHE77      -0.0042
     33  CD2       55.2160  -28.8470   15.4370 C.ar   77  PHE77      -0.0042
     34  CE1       57.1470  -29.8090   17.2060 C.ar   77  PHE77      -0.0003
     35  CE2       54.8200  -29.5850   16.5860 C.ar   77  PHE77      -0.0003
     36  CZ        55.7920  -30.0630   17.4980 C.ar   77  PHE77      -0.0000
     37  N         52.0610  -32.8020   20.5470 N.3   179  PHE179     -0.1241
     38  CA        53.1650  -32.9280   21.4630 C.3   179  PHE179      0.1605
     39  C         53.6820  -34.3660   21.6580 C.2   179  PHE179      0.2264
     40  O         54.8760  -34.6020   21.5830 O.2   179  PHE179     -0.2867
     41  CB        52.7330  -32.3550   22.7750 C.3   179  PHE179      0.0534
     42  CG        53.8170  -32.1770   23.7340 C.ar  179  PHE179     -0.0203
     43  CD1       54.7460  -31.1770   23.5640 C.ar  179  PHE179     -0.0042
     44  CD2       53.8940  -32.9740   24.8490 C.ar  179  PHE179     -0.0042
     45  CE1       55.7590  -30.9690   24.5180 C.ar  179  PHE179     -0.0003
     46  CE2       54.8930  -32.8030   25.7890 C.ar  179  PHE179     -0.0003
     47  CZ        55.8470  -31.8120   25.6280 C.ar  179  PHE179     -0.0000
     48  N         55.7610  -36.2710   18.7430 N.3   182  THR182     -0.1218
     49  CA        57.2440  -36.1070   18.6360 C.3   182  THR182      0.1862
     50  C         58.0530  -37.0540   19.5760 C.2   182  THR182      0.2287
     51  O         59.2820  -37.2020   19.4530 O.2   182  THR182     -0.2866
     52  CB        57.6500  -34.6390   18.9540 C.3   182  THR182      0.1770
     53  OG1       57.4500  -34.3890   20.3680 O.3   182  THR182     -0.2211
     54  CG2       56.7400  -33.6490   18.1160 C.3   182  THR182      0.0375
     55  N         60.9750  -37.4320   11.5340 N.3   191  GLU191     -0.1245
     56  CA        62.0570  -36.4380   11.5290 C.3   191  GLU191      0.1567
     57  C         63.1130  -36.8440   10.4710 C.2   191  GLU191      0.2260
     58  O         63.6120  -36.0060    9.7280 O.2   191  GLU191     -0.2867
     59  CB        62.6740  -36.2650   12.9430 C.3   191  GLU191      0.0388
     60  CG        63.5730  -35.0180   13.0890 C.3   191  GLU191      0.1160
     61  CD        62.8050  -33.6750   12.7910 C.2   191  GLU191      0.3649
     62  OE1       63.3620  -32.7810   12.1100 O.co2 191  GLU191     -0.2457
     63  OE2       61.6490  -33.5480   13.2100 O.co2 191  GLU191     -0.2457
     64  N         50.7150  -22.8210   22.6870 N.3   270  PHE270     -0.1241
     65  CA        51.1960  -24.1990   22.7620 C.3   270  PHE270      0.1605
     66  C         52.2890  -24.3740   23.8350 C.2   270  PHE270      0.2264
     67  O         52.1670  -25.1970   24.7240 O.2   270  PHE270     -0.2867
     68  CB        51.6710  -24.6700   21.3840 C.3   270  PHE270      0.0534
     69  CG        51.9130  -26.1620   21.2780 C.ar  270  PHE270     -0.0203
     70  CD1       51.1530  -26.9250   20.4070 C.ar  270  PHE270     -0.0042
     71  CD2       52.9490  -26.7790   21.9710 C.ar  270  PHE270     -0.0042
     72  CE1       51.3420  -28.2940   20.2780 C.ar  270  PHE270     -0.0003
     73  CE2       53.1650  -28.1950   21.8050 C.ar  270  PHE270     -0.0003
     74  CZ        52.3130  -28.9200   20.9710 C.ar  270  PHE270     -0.0000
     75  N         54.0000  -28.0300   28.2650 N.3   275  THR275     -0.1218
     76  CA        55.1790  -28.4460   29.0470 C.3   275  THR275      0.1862
     77  C         54.8770  -28.4290   30.5430 C.2   275  THR275      0.2287
     78  O         55.1770  -29.3900   31.2470 O.2   275  THR275     -0.2866
     79  CB        56.4720  -27.6170   28.7390 C.3   275  THR275      0.1770
     80  OG1       56.1170  -26.2930   28.3200 O.3   275  THR275     -0.2211
     81  CG2       57.2920  -28.2660   27.6440 C.3   275  THR275      0.0375
     82  N         61.8910  -31.9310   27.4360 N.3   336  LEU336     -0.1245
     83  CA        62.3720  -31.7100   26.0700 C.3   336  LEU336      0.1561
     84  C         63.8080  -32.2920   25.9240 C.2   336  LEU336      0.2260
     85  O         64.7710  -31.5440   26.0570 O.2   336  LEU336     -0.2867
     86  CB        62.3230  -30.2210   25.7700 C.3   336  LEU336      0.0270
     87  CG        60.9640  -29.5380   25.5850 C.3   336  LEU336      0.0019
     88  CD1       61.0940  -28.2230   24.7070 C.3   336  LEU336      0.0001
     89  CD2       59.9880  -30.4810   24.9690 C.3   336  LEU336      0.0001
     90  N         65.9920  -33.1180   23.7180 N.3   338  MET338     -0.1230
     91  CA        66.9010  -32.5000   22.7110 C.3   338  MET338      0.1702
     92  C         66.5960  -31.0030   22.6500 C.2   338  MET338      0.2593
     93  O         67.0210  -30.3220   21.7410 O.2   338  MET338     -0.2718
     94  CB        66.6880  -33.0870   21.3040 C.3   338  MET338      0.0401
     95  CG        66.6650  -34.6040   21.1990 C.3   338  MET338      0.0596
     96  SD        68.2700  -35.2980   21.4870 S.3   338  MET338     -0.1393
     97  CE        67.7650  -37.0140   21.8640 C.3   338  MET338      0.0692
     98  N         65.7940  -30.4990   23.5670 N.am  339  GLY339     -0.1942
     99  CA        65.4220  -29.0900   23.4990 C.3   339  GLY339      0.2014
    100  C         64.7540  -28.8870   22.1720 C.2   339  GLY339      0.2639
    101  O         63.9160  -29.7200   21.7050 O.2   339  GLY339     -0.2714
    102  N         65.1280  -27.7730   21.5670 N.am  340  LEU340     -0.1963
    103  CA        64.7890  -27.4620   20.2040 C.3   340  LEU340      0.1728
    104  C         66.1380  -27.4950   19.4340 C.2   340  LEU340      0.2616
    105  O         67.2020  -27.1750   19.9860 O.2   340  LEU340     -0.2715
    106  CB        64.0860  -26.0760   20.1460 C.3   340  LEU340      0.0311
    107  CG        62.5940  -25.7870   19.9680 C.3   340  LEU340      0.0022
    108  CD1       61.6060  -26.8530   20.4980 C.3   340  LEU340      0.0001
    109  CD2       62.1770  -24.3260   20.4100 C.3   340  LEU340      0.0001
    110  N         66.0930  -27.9640   18.1900 N.am  341  ALA341     -0.1977
    111  CA        67.2410  -28.0740   17.3150 C.3   341  ALA341      0.1597
    112  C         67.9100  -26.6880   17.1650 C.2   341  ALA341      0.2287
    113  O         67.2070  -25.6820   16.9660 O.2   341  ALA341     -0.2864
    114  CB        66.7750  -28.5830   15.8970 C.3   341  ALA341      0.0319
    115  N         72.1930  -30.5420   17.5810 N.3   362  PHE362     -0.1241
    116  CA        71.2090  -31.0210   18.5570 C.3   362  PHE362      0.1605
    117  C         71.8510  -30.9650   19.9480 C.2   362  PHE362      0.2264
    118  O         72.7120  -31.7930   20.2730 O.2   362  PHE362     -0.2867
    119  CB        70.8060  -32.4870   18.2710 C.3   362  PHE362      0.0534
    120  CG        69.9620  -32.6780   17.0570 C.ar  362  PHE362     -0.0203
    121  CD1       69.5620  -33.9790   16.6840 C.ar  362  PHE362     -0.0042
    122  CD2       69.5670  -31.5980   16.2530 C.ar  362  PHE362     -0.0042
    123  CE1       68.7620  -34.1890   15.5400 C.ar  362  PHE362     -0.0003
    124  CE2       68.8120  -31.7910   15.1250 C.ar  362  PHE362     -0.0003
    125  CZ        68.3760  -33.0840   14.7510 C.ar  362  PHE362     -0.0000
    126  N         61.4650  -36.4960   21.2160 N.3   450  PHE450     -0.1227
    127  CA        61.6330  -35.0160   21.3470 C.3   450  PHE450      0.1736
    128  C         60.8600  -34.4150   22.5140 C.2   450  PHE450      0.2595
    129  O         60.9240  -33.1970   22.7980 O.2   450  PHE450     -0.2718
    130  CB        61.3110  -34.2790   20.0220 C.3   450  PHE450      0.0547
    131  CG        62.2420  -34.6710   18.8790 C.ar  450  PHE450     -0.0202
    132  CD1       63.6180  -34.7880   19.1070 C.ar  450  PHE450     -0.0042
    133  CD2       61.7370  -34.9320   17.6050 C.ar  450  PHE450     -0.0042
    134  CE1       64.5050  -35.1780   18.1020 C.ar  450  PHE450     -0.0003
    135  CE2       62.6080  -35.3320   16.5550 C.ar  450  PHE450     -0.0003
    136  CZ        64.0010  -35.4560   16.8070 C.ar  450  PHE450     -0.0000
    137  N         60.1030  -35.2810   23.1700 N.am  451  ALA451     -0.1980
    138  CA        59.4150  -34.9560   24.4230 C.3   451  ALA451      0.1597
    139  C         59.4620  -36.2470   25.2310 C.2   451  ALA451      0.2287
    140  O         59.7050  -37.3250   24.6750 O.2   451  ALA451     -0.2864
    141  CB        57.9650  -34.5440   24.1450 C.3   451  ALA451      0.0319
@<TRIPOS>BOND
     1     9     7   ar
     2     8     7   ar
     3     7     6    1
     4     6     5    1
     5    58    57    2
     6     5     2    1
     7    57    56    1
     8     2     1    1
     9     2     3    1
    10    29    28    2
    11    28    27    1
    12    56    55    1
    13    56    59    1
    14    13    12    2
    15    62    61   ar
    16    12    11    1
    17    10     3   am
    18    10    11    1
    19    19    20    1
    20     3     4    2
    21    22    21    2
    22    21    26   am
    23    21    20    1
    24    26    27    1
    25    27    30    1
    26    20    23    1
    27    61    60    1
    28    61    63   ar
    29    59    60    1
    30    11    14    1
    31    30    31    1
    32    23    24    1
    33    23    25    1
    34    14    15    1
    35   125   124   ar
    36   125   123   ar
    37    15    16    1
    38   124   122   ar
    39    31    33   ar
    40    31    32   ar
    41    33    35   ar
    42   123   121   ar
    43   114   111    1
    44    32    34   ar
    45    16    18   am
    46    16    17    2
    47   122   120   ar
    48   135   136   ar
    49   135   133   ar
    50    35    36   ar
    51   121   120   ar
    52   136   134   ar
    53   113   112    2
    54   120   119    1
    55   112   111    1
    56    34    36   ar
    57   111   110    1
    58   115   116    1
    59   133   131   ar
    60   134   132   ar
    61    54    52    1
    62   110   104   am
    63   119   116    1
    64   116   117    1
    65    49    48    1
    66    49    52    1
    67    49    50    1
    68   131   132   ar
    69   131   130    1
    70    52    53    1
    71   104   105    2
    72   104   103    1
    73    51    50    2
    74   117   118    2
    75   107   106    1
    76   107   109    1
    77   107   108    1
    78   130   127    1
    79   106   103    1
    80   103   102    1
    81    72    70   ar
    82    72    74   ar
    83    70    69   ar
    84    37    38    1
    85    74    73   ar
    86    95    94    1
    87    95    96    1
    88   126   127    1
    89    69    68    1
    90    69    71   ar
    91    94    91    1
    92   127   128    1
    93    68    65    1
    94    38    39    1
    95    38    41    1
    96    96    97    1
    97   102   100   am
    98    40    39    2
    99   101   100    2
   100    93    92    2
   101    73    71   ar
   102   100    99    1
   103   128   129    2
   104   128   137   am
   105    92    91    1
   106    92    98   am
   107    64    65    1
   108    91    90    1
   109    65    66    1
   110    41    42    1
   111   137   138    1
   112    99    98    1
   113    43    42   ar
   114    43    45   ar
   115    42    44   ar
   116    66    67    2
   117   141   138    1
   118   138   139    1
   119    45    47   ar
   120   140   139    2
   121    88    87    1
   122    44    46   ar
   123    89    87    1
   124    87    86    1
   125    47    46   ar
   126    86    83    1
   127    84    85    2
   128    84    83    1
   129    83    82    1
   130    81    79    1
   131    75    76    1
   132    80    79    1
   133    79    76    1
   134    76    77    1
   135    77    78    2
