@<TRIPOS>MOLECULE
tmp/4ejkA00.pdb
 83 78 0 0 0
SMALL
GASTEIGER

@<TRIPOS>ATOM
      1  N         10.4110    0.8000   12.5850 N.3    25  ASP25      -0.1239
      2  CA        11.3400    1.4520   11.6670 C.3    25  ASP25       0.1674
      3  C         12.7860    1.0920   11.9740 C.2    25  ASP25       0.2266
      4  O         13.3720    1.6060   12.9260 O.2    25  ASP25      -0.2867
      5  CB        11.1510    2.9770   11.6960 C.3    25  ASP25       0.1410
      6  CG        11.9880    3.6970   10.6410 C.2    25  ASP25       0.3668
      7  OD1       12.6820    3.0180    9.8590 O.co2  25  ASP25      -0.2456
      8  OD2       11.9430    4.9450   10.5820 O.co2  25  ASP25      -0.2456
      9  N         15.1710    1.9490   10.1980 N.3    27  GLY27      -0.1210
     10  CA        15.9280    3.1470    9.8210 C.3    27  GLY27       0.1956
     11  C         15.7650    4.3050   10.7910 C.2    27  GLY27       0.2612
     12  O         16.0890    5.4470   10.4630 O.2    27  GLY27      -0.2717
     13  N         15.2370    4.0110   11.9770 N.am   28  ALA28      -0.1965
     14  CA        15.1630    4.9760   13.0650 C.3    28  ALA28       0.1728
     15  C         16.0660    4.5010   14.1930 C.2    28  ALA28       0.2616
     16  O         15.9050    3.3840   14.6860 O.2    28  ALA28      -0.2715
     17  CB        13.7280    5.1110   13.5590 C.3    28  ALA28       0.0334
     18  N         17.0270    5.3400   14.5840 N.am   29  ASP29      -0.1957
     19  CA        17.9140    5.0100   15.7060 C.3    29  ASP29       0.1840
     20  C         17.1220    5.0020   17.0070 C.2    29  ASP29       0.2622
     21  O         17.3550    4.1710   17.8870 O.2    29  ASP29      -0.2715
     22  CB        19.0520    6.0260   15.8310 C.3    29  ASP29       0.1450
     23  CG        19.9000    6.1240   14.5770 C.2    29  ASP29       0.3671
     24  OD1       20.2700    5.0800   13.9940 O.co2  29  ASP29      -0.2456
     25  OD2       20.2180    7.2640   14.1850 O.co2  29  ASP29      -0.2456
     26  N         16.1790    5.9370   17.1020 N.am   30  ASP30      -0.1971
     27  CA        15.4230    6.1920   18.3190 C.3    30  ASP30       0.1709
     28  C         13.9160    6.0930   18.0790 C.2    30  ASP30       0.2293
     29  O         13.4480    6.1710   16.9440 O.2    30  ASP30      -0.2864
     30  CB        15.7700    7.5850   18.8570 C.3    30  ASP30       0.1436
     31  CG        17.2620    7.7710   19.0910 C.2    30  ASP30       0.3671
     32  OD1       17.9170    6.8300   19.5840 O.co2  30  ASP30      -0.2456
     33  OD2       17.7830    8.8670   18.7850 O.co2  30  ASP30      -0.2456
     34  N         10.2860    7.6630   18.3800 N.3    32  VAL32      -0.1245
     35  CA         9.6640    8.9930   18.4330 C.3    32  VAL32       0.1561
     36  C          8.1490    8.8640   18.3440 C.2    32  VAL32       0.2260
     37  O          7.6200    8.3200   17.3750 O.2    32  VAL32      -0.2867
     38  CB        10.1450    9.9230   17.2960 C.3    32  VAL32       0.0252
     39  CG1        9.6660   11.3510   17.5400 C.3    32  VAL32       0.0019
     40  CG2       11.6610    9.8860   17.1560 C.3    32  VAL32       0.0019
     41  N         16.2770   15.3760   16.8690 N.3    47  ILE47      -0.1231
     42  CA        16.4420   14.1920   16.0450 C.3    47  ILE47       0.1692
     43  C         16.3150   14.5910   14.5750 C.2    47  ILE47       0.2593
     44  O         15.5130   15.4590   14.2210 O.2    47  ILE47      -0.2718
     45  CB        15.4480   13.0760   16.4590 C.3    47  ILE47       0.0266
     46  CG1       15.7830   11.7520   15.7710 C.3    47  ILE47       0.0019
     47  CG2       13.9990   13.4840   16.2210 C.3    47  ILE47       0.0020
     48  CD1       15.6770   10.5650   16.6990 C.3    47  ILE47       0.0001
     49  N         17.1300   13.9670   13.7340 N.am   48  GLY48      -0.1942
     50  CA        17.1480   14.2720   12.3130 C.3    48  GLY48       0.2014
     51  C         16.3980   13.2520   11.4860 C.2    48  GLY48       0.2639
     52  O         15.9950   12.1990   11.9750 O.2    48  GLY48      -0.2714
     53  N         16.2130   13.5800   10.2180 N.am   49  GLY49      -0.1939
     54  CA        15.5730   12.6740    9.2790 C.3    49  GLY49       0.2014
     55  C         15.4080   13.3750    7.9550 C.2    49  GLY49       0.2638
     56  O         16.0650   14.3820    7.6960 O.2    49  GLY49      -0.2714
     57  N         14.5260   12.8400    7.1200 N.am   50  ILE50      -0.1977
     58  CA        14.2190   13.4630    5.8440 C.3    50  ILE50       0.1596
     59  C         13.3800   14.7180    6.0890 C.2    50  ILE50       0.2287
     60  O         12.3810   14.6860    6.8130 O.2    50  ILE50      -0.2864
     61  CB        13.5490   12.4620    4.8730 C.3    50  ILE50       0.0276
     62  CG1       14.6370   11.6610    4.1460 C.3    50  ILE50       0.0022
     63  CG2       12.6650   13.1820    3.8600 C.3    50  ILE50       0.0022
     64  CD1       14.1720   10.3570    3.5400 C.3    50  ILE50       0.0001
     65  N         15.5080   18.6140   10.9260 N.3    53  PHE53      -0.1241
     66  CA        15.5030   18.2520   12.3450 C.3    53  PHE53       0.1605
     67  C         14.1760   18.5960   13.0100 C.2    53  PHE53       0.2264
     68  O         13.4750   19.5040   12.5610 O.2    53  PHE53      -0.2867
     69  CB        16.6270   18.9840   13.0810 C.3    53  PHE53       0.0534
     70  CG        17.9980   18.4380   12.8030 C.ar   53  PHE53      -0.0203
     71  CD1       18.7880   18.9800   11.7920 C.ar   53  PHE53      -0.0042
     72  CD2       18.5090   17.3930   13.5660 C.ar   53  PHE53      -0.0042
     73  CE1       20.0590   18.4800   11.5420 C.ar   53  PHE53      -0.0003
     74  CE2       19.7780   16.8890   13.3190 C.ar   53  PHE53      -0.0003
     75  CZ        20.5530   17.4320   12.3040 C.ar   53  PHE53      -0.0000
     76  N          6.7100    6.1520   15.7300 N.3    84  ILE84      -0.1245
     77  CA         7.8030    5.3570   15.1840 C.3    84  ILE84       0.1561
     78  C          8.5390    4.6380   16.3050 C.2    84  ILE84       0.2260
     79  O          8.9760    5.2630   17.2720 O.2    84  ILE84      -0.2867
     80  CB         8.7760    6.2340   14.3600 C.3    84  ILE84       0.0252
     81  CG1        8.1220    6.6400   13.0310 C.3    84  ILE84       0.0019
     82  CG2       10.0870    5.4980   14.1100 C.3    84  ILE84       0.0019
     83  CD1        8.6510    7.9270   12.4340 C.3    84  ILE84       0.0001
@<TRIPOS>BOND
     1    64    62    1
     2    63    61    1
     3    62    61    1
     4    61    58    1
     5    58    59    1
     6    58    57    1
     7    59    60    2
     8    57    55   am
     9    56    55    2
    10    55    54    1
    11    54    53    1
    12    10     9    1
    13    10    11    1
    14     7     6   ar
    15    53    51   am
    16    12    11    2
    17     8     6   ar
    18     6     5    1
    19    11    13   am
    20    65    66    1
    21    51    52    2
    22    51    50    1
    23    73    71   ar
    24    73    75   ar
    25     2     5    1
    26     2     3    1
    27     2     1    1
    28    71    70   ar
    29     3     4    2
    30    13    14    1
    31    75    74   ar
    32    50    49    1
    33    66    67    1
    34    66    69    1
    35    83    81    1
    36    68    67    2
    37    70    69    1
    38    70    72   ar
    39    81    80    1
    40    14    17    1
    41    14    15    1
    42    74    72   ar
    43    49    43   am
    44    24    23   ar
    45    82    80    1
    46    25    23   ar
    47    15    18   am
    48    15    16    2
    49    44    43    2
    50    80    77    1
    51    43    42    1
    52    23    22    1
    53    18    19    1
    54    77    76    1
    55    77    78    1
    56    19    22    1
    57    19    20    1
    58    46    45    1
    59    46    48    1
    60    42    45    1
    61    42    41    1
    62    47    45    1
    63    78    79    2
    64    29    28    2
    65    20    26   am
    66    20    21    2
    67    26    27    1
    68    40    38    1
    69    38    39    1
    70    38    35    1
    71    37    36    2
    72    28    27    1
    73    27    30    1
    74    36    35    1
    75    34    35    1
    76    33    31   ar
    77    30    31    1
    78    31    32   ar
