@<TRIPOS>MOLECULE
tmp/4ejnA00.pdb
 227 217 0 0 0
SMALL
GASTEIGER

@<TRIPOS>ATOM
      1  N         20.1930   32.5250   20.7410 N.3    14  GLU14      -0.1245
      2  CA        19.9710   33.7720   20.0060 C.3    14  GLU14       0.1567
      3  C         19.1780   33.6490   18.6950 C.2    14  GLU14       0.2260
      4  O         18.2780   34.4490   18.4390 O.2    14  GLU14      -0.2867
      5  CB        21.3130   34.4740   19.7700 C.3    14  GLU14       0.0388
      6  CG        22.1830   34.5320   21.0360 C.3    14  GLU14       0.1160
      7  CD        23.5360   35.1900   20.8270 C.2    14  GLU14       0.3649
      8  OE1       23.7040   35.9270   19.8270 O.co2  14  GLU14      -0.2457
      9  OE2       24.4330   34.9710   21.6790 O.co2  14  GLU14      -0.2457
     10  N         39.1970   37.2350   23.3290 N.3    43  ASN43      -0.1225
     11  CA        38.7480   38.2720   24.2580 C.3    43  ASN43       0.1785
     12  C         37.2350   38.4820   24.1850 C.2    43  ASN43       0.2597
     13  O         36.6420   38.9870   25.1210 O.2    43  ASN43      -0.2718
     14  CB        39.4870   39.5960   24.0030 C.3    43  ASN43       0.1169
     15  CG        40.9760   39.5180   24.3440 C.2    43  ASN43       0.2627
     16  OD1       41.3550   39.2460   25.4840 O.2    43  ASN43      -0.2716
     17  ND2       41.8220   39.7600   23.3520 N.am   43  ASN43      -0.0877
     18  N         36.6330   38.0660   23.0700 N.am   44  ASN44      -0.1960
     19  CA        35.1850   38.1350   22.8540 C.3    44  ASN44       0.1819
     20  C         34.3920   37.3700   23.8960 C.2    44  ASN44       0.2621
     21  O         33.2430   37.7080   24.1710 O.2    44  ASN44      -0.2715
     22  CB        34.8170   37.5640   21.4880 C.3    44  ASN44       0.1195
     23  CG        35.5530   38.2360   20.3610 C.2    44  ASN44       0.2630
     24  OD1       36.6990   37.9030   20.0750 O.2    44  ASN44      -0.2716
     25  ND2       34.8930   39.1770   19.6990 N.am   44  ASN44      -0.0877
     26  N         35.0090   36.3300   24.4530 N.am   45  PHE45      -0.1974
     27  CA        34.3380   35.4490   25.4000 C.3    45  PHE45       0.1639
     28  C         34.8830   35.6200   26.7940 C.2    45  PHE45       0.2290
     29  O         34.6230   34.8130   27.6770 O.2    45  PHE45      -0.2864
     30  CB        34.4510   33.9970   24.9290 C.3    45  PHE45       0.0560
     31  CG        33.9050   33.7810   23.5540 C.ar   45  PHE45      -0.0200
     32  CD1       32.5630   34.0430   23.2770 C.ar   45  PHE45      -0.0042
     33  CD2       34.7260   33.3440   22.5270 C.ar   45  PHE45      -0.0042
     34  CE1       32.0460   33.8580   22.0010 C.ar   45  PHE45      -0.0003
     35  CE2       34.2180   33.1580   21.2400 C.ar   45  PHE45      -0.0003
     36  CZ        32.8790   33.4150   20.9820 C.ar   45  PHE45      -0.0000
     37  N         36.5940   39.7490   31.6180 N.3    48  ALA48      -0.1231
     38  CA        37.4080   40.8950   32.0150 C.3    48  ALA48       0.1694
     39  C         36.7100   42.1920   31.6400 C.2    48  ALA48       0.2591
     40  O         36.3240   42.3870   30.4850 O.2    48  ALA48      -0.2718
     41  CB        38.8000   40.8280   31.3810 C.3    48  ALA48       0.0304
     42  N         36.5330   43.0540   32.6440 N.am   49  GLN49      -0.1979
     43  CA        35.9160   44.3790   32.4940 C.3    49  GLN49       0.1601
     44  C         34.4070   44.3540   32.2110 C.2    49  GLN49       0.2287
     45  O         33.8340   45.3900   31.8890 O.2    49  GLN49      -0.2864
     46  CB        36.6580   45.2280   31.4360 C.3    49  GLN49       0.0394
     47  CG        38.1520   45.4140   31.7110 C.3    49  GLN49       0.0908
     48  CD        38.8570   46.2110   30.6260 C.2    49  GLN49       0.2608
     49  OE1       38.5180   47.3660   30.3660 O.2    49  GLN49      -0.2717
     50  NE2       39.8460   45.5960   29.9880 N.am   49  GLN49      -0.0878
     51  N         31.4220   45.8570   27.3040 N.3    68  LEU68      -0.1231
     52  CA        31.8030   46.8300   26.2910 C.3    68  LEU68       0.1693
     53  C         33.0720   46.3210   25.6220 C.2    68  LEU68       0.2592
     54  O         34.1480   46.3400   26.2140 O.2    68  LEU68      -0.2718
     55  CB        32.0430   48.2230   26.8980 C.3    68  LEU68       0.0284
     56  CG        32.4840   49.3260   25.9200 C.3    68  LEU68       0.0019
     57  CD1       31.5240   49.5130   24.7360 C.3    68  LEU68       0.0001
     58  CD2       32.6900   50.6490   26.6670 C.3    68  LEU68       0.0001
     59  N         32.9350   45.8590   24.3900 N.am   69  GLN69      -0.1966
     60  CA        34.0620   45.2980   23.6630 C.3    69  GLN69       0.1733
     61  C         34.4720   46.2890   22.5880 C.2    69  GLN69       0.2616
     62  O         33.8050   46.4090   21.5590 O.2    69  GLN69      -0.2715
     63  CB        33.7110   43.9220   23.0730 C.3    69  GLN69       0.0408
     64  CG        33.3350   42.8760   24.1570 C.3    69  GLN69       0.0908
     65  CD        33.0660   41.4690   23.6260 C.2    69  GLN69       0.2608
     66  OE1       32.9500   40.5290   24.4130 O.2    69  GLN69      -0.2717
     67  NE2       32.9710   41.3120   22.3080 N.am   69  GLN69      -0.0878
     68  N         35.5690   47.0070   22.8600 N.am   70  TRP70      -0.1974
     69  CA        36.0620   48.0720   21.9770 C.3    70  TRP70       0.1640
     70  C         34.9810   49.1530   21.9320 C.2    70  TRP70       0.2290
     71  O         34.8470   49.9030   22.8950 O.2    70  TRP70      -0.2864
     72  CB        36.4780   47.5310   20.5870 C.3    70  TRP70       0.0576
     73  CG        37.1590   48.5670   19.7150 C.ar   70  TRP70       0.0006
     74  CD1       36.6470   49.1840   18.5970 C.ar   70  TRP70       0.0946
     75  CD2       38.4640   49.1100   19.9080 C.ar   70  TRP70       0.0152
     76  NE1       37.5560   50.0820   18.0880 N.ar   70  TRP70      -0.2442
     77  CE2       38.6830   50.0530   18.8760 C.ar   70  TRP70       0.0810
     78  CE3       39.4790   48.8900   20.8590 C.ar   70  TRP70       0.0012
     79  CZ2       39.8740   50.7860   18.7700 C.ar   70  TRP70       0.0191
     80  CZ3       40.6680   49.6200   20.7510 C.ar   70  TRP70       0.0001
     81  CH2       40.8510   50.5570   19.7070 C.ar   70  TRP70       0.0015
     82  N         31.5410   48.3450   21.1550 N.3    72  THR72      -0.1218
     83  CA        30.3010   47.6010   20.9240 C.3    72  THR72       0.1862
     84  C         29.8230   46.9020   22.1940 C.2    72  THR72       0.2287
     85  O         30.6210   46.3080   22.9280 O.2    72  THR72      -0.2866
     86  CB        30.4770   46.5530   19.7690 C.3    72  THR72       0.1770
     87  OG1       30.9090   47.2250   18.5830 O.3    72  THR72      -0.2211
     88  CG2       29.1670   45.8280   19.4600 C.3    72  THR72       0.0375
     89  N         28.0640   43.9190   24.0000 N.3    74  ILE74      -0.1245
     90  CA        27.8510   42.5040   23.7850 C.3    74  ILE74       0.1561
     91  C         27.2620   41.9280   25.0640 C.2    74  ILE74       0.2260
     92  O         27.7310   42.2210   26.1660 O.2    74  ILE74      -0.2867
     93  CB        29.1790   41.7690   23.4410 C.3    74  ILE74       0.0252
     94  CG1       29.9040   42.4600   22.2820 C.3    74  ILE74       0.0019
     95  CG2       28.9210   40.2720   23.1250 C.3    74  ILE74       0.0019
     96  CD1       29.3070   42.1820   20.8750 C.3    74  ILE74       0.0001
     97  N         44.4220   49.3370   16.6860 N.3   148  SER148     -0.1217
     98  CA        45.1340   48.3510   15.8640 C.3   148  SER148      0.1889
     99  C         46.0310   49.0490   14.8310 C.2   148  SER148      0.2288
    100  O         45.6060   50.0050   14.1790 O.2   148  SER148     -0.2866
    101  CB        44.1350   47.4390   15.1330 C.3   148  SER148      0.2089
    102  OG        43.5250   46.5030   16.0080 O.3   148  SER148     -0.2183
    103  N         41.1920   48.2400    9.1230 N.3   153  LEU153     -0.1231
    104  CA        40.2600   48.2950   10.2460 C.3   153  LEU153      0.1693
    105  C         39.8520   49.7510   10.4900 C.2   153  LEU153      0.2592
    106  O         40.4890   50.6580    9.9670 O.2   153  LEU153     -0.2718
    107  CB        40.8710   47.6540   11.4920 C.3   153  LEU153      0.0284
    108  CG        41.2490   46.1670   11.3800 C.3   153  LEU153      0.0019
    109  CD1       42.1950   45.7530   12.5240 C.3   153  LEU153      0.0001
    110  CD2       40.0180   45.2500   11.3220 C.3   153  LEU153      0.0001
    111  N         38.7730   49.9630   11.2430 N.am  154  THR154     -0.1953
    112  CA        38.2970   51.3140   11.5700 C.3   154  THR154      0.1897
    113  C         39.0050   51.8540   12.8100 C.2   154  THR154      0.2313
    114  O         38.7950   51.3650   13.9300 O.2   154  THR154     -0.2863
    115  CB        36.7600   51.3550   11.7680 C.3   154  THR154      0.1794
    116  OG1       36.1170   51.1670   10.5070 O.3   154  THR154     -0.2208
    117  CG2       36.3150   52.7010   12.3380 C.3   154  THR154      0.0378
    118  N         43.4530   40.9710   13.5100 N.3   207  LEU207     -0.1245
    119  CA        42.5430   40.8700   14.6610 C.3   207  LEU207      0.1561
    120  C         42.7280   39.5620   15.4270 C.2   207  LEU207      0.2260
    121  O         42.8100   39.5520   16.6580 O.2   207  LEU207     -0.2867
    122  CB        41.0730   40.9800   14.2280 C.3   207  LEU207      0.0270
    123  CG        40.3530   42.3370   14.2430 C.3   207  LEU207      0.0019
    124  CD1       38.8600   42.1720   13.8520 C.3   207  LEU207      0.0001
    125  CD2       40.4860   43.0240   15.6000 C.3   207  LEU207      0.0001
    126  N         45.3170   40.6820   18.2520 N.3   211  LYS211     -0.1245
    127  CA        44.3520   41.1490   19.2440 C.3   211  LYS211      0.1561
    128  C         43.6080   40.0160   19.9430 C.2   211  LYS211      0.2260
    129  O         42.9970   40.2420   20.9880 O.2   211  LYS211     -0.2867
    130  CB        43.3700   42.1550   18.6240 C.3   211  LYS211      0.0271
    131  CG        44.0150   43.4410   18.1020 C.3   211  LYS211      0.0035
    132  CD        44.7010   44.2610   19.1990 C.3   211  LYS211      0.0206
    133  CE        45.7200   45.2230   18.5830 C.3   211  LYS211      0.1093
    134  NZ        46.7070   45.7780   19.5820 N.3   211  LYS211     -0.1314
    135  N         40.9480   38.4800   18.7560 N.3   213  VAL213     -0.1231
    136  CA        39.5850   38.9810   18.5650 C.3   213  VAL213      0.1692
    137  C         39.0010   38.3980   17.2730 C.2   213  VAL213      0.2592
    138  O         39.6720   38.4070   16.2350 O.2   213  VAL213     -0.2718
    139  CB        39.5970   40.5400   18.4840 C.3   213  VAL213      0.0266
    140  CG1       38.3220   41.1160   17.8170 C.3   213  VAL213      0.0020
    141  CG2       39.8070   41.1580   19.8700 C.3   213  VAL213      0.0020
    142  N         37.7730   37.8710   17.3380 N.am  214  VAL214     -0.1966
    143  CA        37.0020   37.5850   16.1070 C.3   214  VAL214      0.1727
    144  C         36.0880   38.7610   15.7970 C.2   214  VAL214      0.2616
    145  O         35.5390   39.3860   16.7020 O.2   214  VAL214     -0.2715
    146  CB        36.1690   36.2500   16.1640 C.3   214  VAL214      0.0290
    147  CG1       37.1070   35.0430   16.2770 C.3   214  VAL214      0.0023
    148  CG2       35.1810   36.2580   17.3030 C.3   214  VAL214      0.0023
    149  N         35.9430   39.0610   14.5160 N.am  215  TYR215     -0.1960
    150  CA        35.0790   40.1450   14.0780 C.3   215  TYR215      0.1771
    151  C         33.6130   39.7390   14.1900 C.2   215  TYR215      0.2619
    152  O         32.8420   40.4230   14.8750 O.2   215  TYR215     -0.2715
    153  CB        35.3960   40.5290   12.6560 C.3   215  TYR215      0.0574
    154  CG        34.5690   41.6670   12.1010 C.ar  215  TYR215     -0.0198
    155  CD1       34.2790   42.8020   12.8720 C.ar  215  TYR215     -0.0009
    156  CD2       34.1080   41.6260   10.7960 C.ar  215  TYR215     -0.0009
    157  CE1       33.5520   43.8480   12.3520 C.ar  215  TYR215      0.0417
    158  CE2       33.3910   42.6790   10.2600 C.ar  215  TYR215      0.0417
    159  CZ        33.1100   43.7860   11.0550 C.ar  215  TYR215      0.1957
    160  OH        32.4050   44.8330   10.5180 O.3   215  TYR215     -0.2866
    161  N         33.2470   38.6560   13.4970 N.am  216  ARG216     -0.1963
    162  CA        31.9170   38.0310   13.6210 C.3   216  ARG216      0.1729
    163  C         30.7950   38.7570   12.8710 C.2   216  ARG216      0.2616
    164  O         29.6370   38.3810   12.9740 O.2   216  ARG216     -0.2715
    165  CB        31.5260   37.8900   15.1020 C.3   216  ARG216      0.0348
    166  CG        31.4970   36.4880   15.6190 C.3   216  ARG216      0.0492
    167  CD        30.3070   35.7600   15.0390 C.3   216  ARG216      0.2205
    168  NE        29.1920   35.7630   15.9790 N.pl3 216  ARG216     -0.0865
    169  CZ        28.1820   36.6230   15.9560 C.cat 216  ARG216      0.5346
    170  NH1       28.1430   37.5750   15.0350 N.pl3 216  ARG216      0.1354
    171  NH2       27.2170   36.5260   16.8590 N.pl3 216  ARG216      0.1354
    172  N         31.1370   39.7740   12.0930 N.am  217  ASP217     -0.1971
    173  CA        30.1240   40.6660   11.5580 C.3   217  ASP217      0.1709
    174  C         30.4720   41.0260   10.1320 C.2   217  ASP217      0.2293
    175  O         30.0810   42.0760    9.6270 O.2   217  ASP217     -0.2864
    176  CB        29.9930   41.9140   12.4610 C.3   217  ASP217      0.1436
    177  CG        28.6070   42.5620   12.3850 C.2   217  ASP217      0.3671
    178  OD1       27.6040   41.8670   12.0700 O.co2 217  ASP217     -0.2456
    179  OD2       28.5280   43.7820   12.6500 O.co2 217  ASP217     -0.2456
    180  N         36.9390   48.1420    6.8860 N.3   233  ILE233     -0.1231
    181  CA        35.9710   47.3060    7.5950 C.3   233  ILE233      0.1692
    182  C         35.3460   48.1290    8.7260 C.2   233  ILE233      0.2593
    183  O         36.0250   48.7330    9.5400 O.2   233  ILE233     -0.2718
    184  CB        36.5620   46.0110    8.1390 C.3   233  ILE233      0.0266
    185  CG1       37.1430   45.1610    6.9990 C.3   233  ILE233      0.0019
    186  CG2       35.4730   45.2120    8.8800 C.3   233  ILE233      0.0020
    187  CD1       38.0900   44.1170    7.4670 C.3   233  ILE233      0.0001
    188  N         34.0300   48.1110    8.7610 N.am  234  THR234     -0.1939
    189  CA        33.2500   49.0630    9.5120 C.3   234  THR234      0.2028
    190  C         33.0390   48.6250   10.9920 C.2   234  THR234      0.2642
    191  O         33.1280   47.4480   11.2990 O.2   234  THR234     -0.2714
    192  CB        31.9910   49.3020    8.6610 C.3   234  THR234      0.1808
    193  OG1       31.9920   50.6420    8.1430 O.3   234  THR234     -0.2208
    194  CG2       30.7380   48.9250    9.3200 C.3   234  THR234      0.0379
    195  N         32.8250   49.5800   11.9060 N.am  235  ASP235     -0.1971
    196  CA        32.6370   49.2790   13.3380 C.3   235  ASP235      0.1709
    197  C         31.3840   49.9680   13.8670 C.2   235  ASP235      0.2293
    198  O         31.4480   50.7100   14.8460 O.2   235  ASP235     -0.2864
    199  CB        33.8770   49.7550   14.1310 C.3   235  ASP235      0.1436
    200  CG        33.9000   49.2710   15.5750 C.2   235  ASP235      0.3671
    201  OD1       33.2130   48.2820   15.9340 O.co2 235  ASP235     -0.2456
    202  OD2       34.6280   49.8940   16.3820 O.co2 235  ASP235     -0.2456
    203  N         28.3550   48.6060   15.0390 N.3   237  GLY237     -0.1225
    204  CA        27.4000   47.7310   15.7140 C.3   237  GLY237      0.1811
    205  C         26.6970   48.4010   16.8810 C.2   237  GLY237      0.2280
    206  O         27.3490   48.9660   17.7640 O.2   237  GLY237     -0.2866
    207  N         20.3670   42.0390   21.4980 N.3   241  GLU241     -0.1245
    208  CA        19.7080   40.7410   21.3370 C.3   241  GLU241      0.1567
    209  C         18.4210   40.6350   22.1530 C.2   241  GLU241      0.2260
    210  O         18.3820   41.0220   23.3230 O.2   241  GLU241     -0.2867
    211  CB        20.6690   39.5990   21.7030 C.3   241  GLU241      0.0388
    212  CG        21.8990   39.5950   20.8100 C.3   241  GLU241      0.1160
    213  CD        23.0580   40.2950   21.4950 C.2   241  GLU241      0.3649
    214  OE1       22.8990   40.8390   22.6110 O.co2 241  GLU241     -0.2457
    215  OE2       24.1590   40.2850   20.9060 O.co2 241  GLU241     -0.2457
    216  N         32.3420   28.6200   19.2450 N.3   264  TYR264     -0.1241
    217  CA        32.8910   28.9310   17.9410 C.3   264  TYR264      0.1605
    218  C         34.1310   29.7860   18.1050 C.2   264  TYR264      0.2264
    219  O         34.4200   30.2550   19.2060 O.2   264  TYR264     -0.2867
    220  CB        31.8480   29.6290   17.0750 C.3   264  TYR264      0.0534
    221  CG        31.3090   30.9460   17.5970 C.ar  264  TYR264     -0.0201
    222  CD1       32.0220   32.1420   17.4250 C.ar  264  TYR264     -0.0009
    223  CD2       30.0620   31.0080   18.2130 C.ar  264  TYR264     -0.0009
    224  CE1       31.5020   33.3620   17.8780 C.ar  264  TYR264      0.0417
    225  CE2       29.5430   32.2110   18.6750 C.ar  264  TYR264      0.0417
    226  CZ        30.2610   33.3850   18.5020 C.ar  264  TYR264      0.1957
    227  OH        29.7350   34.5730   18.9600 O.3   264  TYR264     -0.2866
@<TRIPOS>BOND
     1   180   181    1
     2   185   187    1
     3   185   184    1
     4   181   184    1
     5   181   182    1
     6   184   186    1
     7   193   192    1
     8   192   194    1
     9   192   189    1
    10   182   188   am
    11   182   183    2
    12   188   189    1
    13   103   104    1
    14   189   190    1
    15   175   174    2
    16   106   105    2
    17   174   173    1
    18   104   105    1
    19   104   107    1
    20   158   156   ar
    21   158   159   ar
    22   105   111   am
    23   116   115    1
    24   160   159    1
    25   156   154   ar
    26   190   191    2
    27   190   195   am
    28   159   157   ar
    29   111   112    1
    30   110   108    1
    31   108   107    1
    32   108   109    1
    33   173   172    1
    34   173   176    1
    35   112   115    1
    36   112   113    1
    37   115   117    1
    38   195   196    1
    39   178   177   ar
    40   172   163   am
    41   154   153    1
    42   154   155   ar
    43   157   155   ar
    44   177   176    1
    45   177   179   ar
    46   153   150    1
    47   113   114    2
    48   163   164    2
    49   163   162    1
    50   196   197    1
    51   196   199    1
    52   161   162    1
    53   161   151   am
    54   118   119    1
    55   162   165    1
    56   124   123    1
    57   197   198    2
    58   150   151    1
    59   150   149    1
    60   199   200    1
    61   100    99    2
    62   151   152    2
    63   122   123    1
    64   122   119    1
    65   123   125    1
    66   149   144   am
    67   119   120    1
    68    99    98    1
    69   170   169    1
    70   167   166    1
    71   167   168    1
    72   203   204    1
    73   165   166    1
    74   101    98    1
    75   101   102    1
    76   120   121    2
    77   200   201   ar
    78   200   202   ar
    79   204   205    1
    80   144   143    1
    81   144   145    2
    82    98    97    1
    83   169   168    2
    84   169   171    1
    85   143   146    1
    86   143   142    1
    87   146   147    1
    88   146   148    1
    89   138   137    2
    90   205   206    2
    91   220   221    1
    92   220   217    1
    93   137   142   am
    94   137   136    1
    95   222   221   ar
    96   222   224   ar
    97   221   223   ar
    98   140   139    1
    99   224   226   ar
   100   217   218    1
   101   217   216    1
   102    76    74   ar
   103    76    77   ar
   104   131   130    1
   105   131   132    1
   106   218   219    2
   107   223   225   ar
   108   126   127    1
   109     4     3    2
   110   139   136    1
   111   139   141    1
   112   226   225   ar
   113   226   227    1
   114   136   135    1
   115    87    86    1
   116   133   132    1
   117   133   134    1
   118    74    73   ar
   119   130   127    1
   120     3     2    1
   121    79    77   ar
   122    79    81   ar
   123    77    75   ar
   124   127   128    1
   125    88    86    1
   126    25    23   am
   127    81    80   ar
   128    73    75   ar
   129    73    72    1
   130    86    83    1
   131     5     2    1
   132     5     6    1
   133     8     7   ar
   134    75    78   ar
   135   128   129    2
   136     2     1    1
   137    24    23    2
   138    23    22    1
   139    72    69    1
   140    80    78   ar
   141   212   213    1
   142   212   211    1
   143     7     6    1
   144     7     9   ar
   145    96    94    1
   146   215   213   ar
   147    83    82    1
   148    83    84    1
   149    36    35   ar
   150    36    34   ar
   151    35    33   ar
   152   208   207    1
   153   208   211    1
   154   208   209    1
   155    22    19    1
   156   213   214   ar
   157    62    61    2
   158    70    69    1
   159    70    71    2
   160    69    68    1
   161    34    32   ar
   162   209   210    2
   163    84    85    2
   164    94    93    1
   165    67    65   am
   166    33    31   ar
   167    61    68   am
   168    61    60    1
   169    19    18    1
   170    19    20    1
   171    18    12   am
   172    63    60    1
   173    63    64    1
   174    95    93    1
   175    32    31   ar
   176    10    11    1
   177    17    15   am
   178    93    90    1
   179    31    30    1
   180    65    64    1
   181    65    66    2
   182    60    59    1
   183    90    89    1
   184    90    91    1
   185    20    21    2
   186    20    26   am
   187    14    11    1
   188    14    15    1
   189    12    11    1
   190    12    13    2
   191    15    16    2
   192    59    53   am
   193    26    27    1
   194    57    56    1
   195    30    27    1
   196    91    92    2
   197    27    28    1
   198    53    54    2
   199    53    52    1
   200    56    58    1
   201    56    55    1
   202    52    55    1
   203    52    51    1
   204    28    29    2
   205    50    48   am
   206    49    48    2
   207    40    39    2
   208    48    47    1
   209    41    38    1
   210    46    47    1
   211    46    43    1
   212    37    38    1
   213    39    38    1
   214    39    42   am
   215    45    44    2
   216    44    43    1
   217    43    42    1
