@<TRIPOS>MOLECULE
tmp/4ejwA00.pdb
 151 140 0 0 0
SMALL
GASTEIGER

@<TRIPOS>ATOM
      1  N        -17.1660   28.1580    3.0360 N.3    16  VAL16      -0.1231
      2  CA       -16.0940   28.4640    3.9610 C.3    16  VAL16       0.1692
      3  C        -16.2320   29.9230    4.3300 C.2    16  VAL16       0.2592
      4  O        -16.0400   30.3110    5.4770 O.2    16  VAL16      -0.2718
      5  CB       -14.7160   28.2100    3.3090 C.3    16  VAL16       0.0266
      6  CG1      -13.6290   28.9980    4.0200 C.3    16  VAL16       0.0020
      7  CG2      -14.4030   26.7310    3.3880 C.3    16  VAL16       0.0020
      8  N        -16.5870   30.7390    3.3510 N.am   17  ASN17      -0.1974
      9  CA       -16.7560   32.1400    3.6220 C.3    17  ASN17       0.1688
     10  C        -17.9320   32.2880    4.5550 C.2    17  ASN17       0.2292
     11  O        -17.8460   32.9980    5.5650 O.2    17  ASN17      -0.2864
     12  CB       -16.9700   32.9130    2.3290 C.3    17  ASN17       0.1181
     13  CG       -15.6780   33.1030    1.5530 C.2    17  ASN17       0.2629
     14  OD1      -14.5790   33.0030    2.1170 O.2    17  ASN17      -0.2716
     15  ND2      -15.8000   33.3790    0.2570 N.am   17  ASN17      -0.0877
     16  N        -17.0210   31.1260    8.1800 N.3    20  THR20      -0.1203
     17  CA       -16.1240   32.0400    8.8790 C.3    20  THR20       0.1994
     18  C        -16.8810   33.2660    9.3510 C.2    20  THR20       0.2617
     19  O        -16.5240   33.8880   10.3480 O.2    20  THR20      -0.2717
     20  CB       -14.9820   32.5240    7.9800 C.3    20  THR20       0.1784
     21  OG1      -14.4810   31.4300    7.1980 O.3    20  THR20      -0.2211
     22  CG2      -13.8510   33.0530    8.8470 C.3    20  THR20       0.0376
     23  N        -17.9330   33.6050    8.6230 N.am   21  ALA21      -0.1979
     24  CA       -18.7520   34.7480    8.9500 C.3    21  ALA21       0.1597
     25  C        -19.6010   34.5090   10.1930 C.2    21  ALA21       0.2287
     26  O        -19.6860   35.3700   11.0690 O.2    21  ALA21      -0.2864
     27  CB       -19.6250   35.0730    7.7860 C.3    21  ALA21       0.0319
     28  N        -17.2180   34.0930   13.3020 N.3    24  LEU24      -0.1245
     29  CA       -16.5140   35.2720   13.7620 C.3    24  LEU24       0.1561
     30  C        -17.3520   36.5290   14.0150 C.2    24  LEU24       0.2260
     31  O        -16.7940   37.5830   14.3370 O.2    24  LEU24      -0.2867
     32  CB       -15.3900   35.5960   12.7730 C.3    24  LEU24       0.0270
     33  CG       -14.2580   34.5720   12.7510 C.3    24  LEU24       0.0019
     34  CD1      -13.3920   34.8500   11.5660 C.3    24  LEU24       0.0001
     35  CD2      -13.4500   34.6290   14.0480 C.3    24  LEU24       0.0001
     36  N        -16.1970   39.7990   16.2310 N.3    28  GLN28      -0.1245
     37  CA       -15.9810   41.0370   15.5060 C.3    28  GLN28       0.1566
     38  C        -16.8620   42.0730   16.1770 C.2    28  GLN28       0.2260
     39  O        -16.5620   43.2600   16.1880 O.2    28  GLN28      -0.2867
     40  CB       -16.3730   40.8810   14.0530 C.3    28  GLN28       0.0367
     41  CG       -15.4180   40.0820   13.2310 C.3    28  GLN28       0.0905
     42  CD       -15.9730   39.8050   11.8630 C.2    28  GLN28       0.2608
     43  OE1      -17.0760   40.2370   11.5380 O.2    28  GLN28      -0.2717
     44  NE2      -15.2180   39.0770   11.0490 N.am   28  GLN28      -0.0878
     45  N        -16.9370   42.9820    9.1590 N.3    35  ALA35      -0.1231
     46  CA       -16.2690   41.8460    8.5630 C.3    35  ALA35       0.1694
     47  C        -15.1190   42.2610    7.6550 C.2    35  ALA35       0.2591
     48  O        -14.0860   41.5890    7.5870 O.2    35  ALA35      -0.2718
     49  CB       -17.2710   41.0320    7.7800 C.3    35  ALA35       0.0304
     50  N        -15.3160   43.3750    6.9580 N.am   36  GLU36      -0.1979
     51  CA       -14.3090   43.8810    6.0420 C.3    36  GLU36       0.1602
     52  C        -13.1700   44.5120    6.7880 C.2    36  GLU36       0.2287
     53  O        -12.0970   44.6970    6.2260 O.2    36  GLU36      -0.2864
     54  CB       -14.9010   44.9020    5.0720 C.3    36  GLU36       0.0415
     55  CG       -16.1230   45.6380    5.5860 C.3    36  GLU36       0.1163
     56  CD       -17.3900   44.8440    5.3920 C.2    36  GLU36       0.3649
     57  OE1      -17.9940   44.4370    6.4040 O.co2  36  GLU36      -0.2457
     58  OE2      -17.7750   44.6240    4.2210 O.co2  36  GLU36      -0.2457
     59  N        -12.1840   43.1820    9.5100 N.3    38  SER38      -0.1202
     60  CA       -11.5870   41.9800   10.0170 C.3    38  SER38       0.2020
     61  C        -10.6800   41.4600    8.9300 C.2    38  SER38       0.2619
     62  O         -9.5550   41.0630    9.1870 O.2    38  SER38      -0.2717
     63  CB       -12.6670   40.9600   10.3130 C.3    38  SER38       0.2103
     64  OG       -12.0880   39.8620   10.9680 O.3    38  SER38      -0.2182
     65  N        -11.1640   41.4780    7.7010 N.am   39  HIS39      -0.1961
     66  CA       -10.3810   40.9840    6.5870 C.3    39  HIS39       0.1787
     67  C         -9.0450   41.6920    6.5240 C.2    39  HIS39       0.2620
     68  O         -7.9840   41.0730    6.4370 O.2    39  HIS39      -0.2715
     69  CB       -11.1490   41.2220    5.3000 C.3    39  HIS39       0.0785
     70  CG       -10.6020   40.4900    4.1160 C.ar   39  HIS39       0.0821
     71  ND1      -11.3600   39.6070    3.3740 N.ar   39  HIS39      -0.2267
     72  CD2       -9.3960   40.5550    3.5070 C.ar   39  HIS39       0.1154
     73  CE1      -10.6420   39.1600    2.3600 C.ar   39  HIS39       0.1986
     74  NE2       -9.4460   39.7190    2.4190 N.ar   39  HIS39      -0.2212
     75  N         -9.1250   43.0090    6.5920 N.am   40  VAL40      -0.1977
     76  CA        -7.9720   43.8730    6.5350 C.3    40  VAL40       0.1596
     77  C         -6.9380   43.5770    7.6090 C.2    40  VAL40       0.2287
     78  O         -5.7510   43.8420    7.4040 O.2    40  VAL40      -0.2864
     79  CB        -8.4300   45.3260    6.6280 C.3    40  VAL40       0.0276
     80  CG1       -7.2550   46.2440    6.7140 C.3    40  VAL40       0.0022
     81  CG2       -9.2860   45.6570    5.4150 C.3    40  VAL40       0.0022
     82  N         -6.4340   40.4960    8.8050 N.3    42  ASN42      -0.1225
     83  CA        -5.8780   39.1770    8.5680 C.3    42  ASN42       0.1785
     84  C         -4.7420   39.0890    7.5610 C.2    42  ASN42       0.2597
     85  O         -3.9720   38.1320    7.6060 O.2    42  ASN42      -0.2718
     86  CB        -6.9590   38.1660    8.2080 C.3    42  ASN42       0.1169
     87  CG        -6.7040   36.8030    8.8660 C.2    42  ASN42       0.2627
     88  OD1       -6.8430   35.7560    8.2370 O.2    42  ASN42      -0.2716
     89  ND2       -6.3280   36.8220   10.1400 N.am   42  ASN42      -0.0877
     90  N         -4.6120   40.0400    6.6420 N.am   43  MET43      -0.1979
     91  CA        -3.4600   39.9360    5.7380 C.3    43  MET43       0.1605
     92  C         -2.3140   40.6100    6.4530 C.2    43  MET43       0.2287
     93  O         -1.1300   40.3010    6.2500 O.2    43  MET43      -0.2864
     94  CB        -3.6900   40.6400    4.4160 C.3    43  MET43       0.0413
     95  CG        -4.4470   41.8920    4.5330 C.3    43  MET43       0.0598
     96  SD        -5.7300   41.7240    3.3280 S.3    43  MET43      -0.1393
     97  CE        -6.3340   40.0590    3.7410 C.3    43  MET43       0.0692
     98  N         -0.3190   38.4920    8.5010 N.3    46  ILE46      -0.1245
     99  CA         0.8350   37.8920    7.8730 C.3    46  ILE46       0.1561
    100  C          1.9320   38.9560    7.8540 C.2    46  ILE46       0.2260
    101  O          2.9920   38.8100    8.4930 O.2    46  ILE46      -0.2867
    102  CB         0.5990   37.5560    6.3870 C.3    46  ILE46       0.0252
    103  CG1       -0.7980   37.0010    6.1590 C.3    46  ILE46       0.0019
    104  CG2        1.6510   36.5520    5.9460 C.3    46  ILE46       0.0019
    105  CD1       -1.2750   37.2460    4.7530 C.3    46  ILE46       0.0001
    106  N         -7.3620   42.9930   -2.9970 N.3    58  GLN58      -0.1245
    107  CA        -8.8100   42.9410   -2.8230 C.3    58  GLN58       0.1566
    108  C         -9.6090   42.8350   -4.1130 C.2    58  GLN58       0.2260
    109  O        -10.1660   41.7900   -4.4310 O.2    58  GLN58      -0.2867
    110  CB        -9.2930   44.1910   -2.0630 C.3    58  GLN58       0.0367
    111  CG        -8.3850   44.6450   -0.9210 C.3    58  GLN58       0.0905
    112  CD        -8.2870   43.6440    0.2240 C.2    58  GLN58       0.2608
    113  OE1       -9.2970   43.1320    0.7100 O.2    58  GLN58      -0.2717
    114  NE2       -7.0640   43.3730    0.6670 N.am   58  GLN58      -0.0878
    115  N        -11.6310   45.3820   -4.5940 N.3    60  VAL60      -0.1245
    116  CA       -12.6560   46.3100   -4.1350 C.3    60  VAL60       0.1561
    117  C        -12.0380   47.6860   -4.3410 C.2    60  VAL60       0.2260
    118  O        -11.0720   48.0700   -3.6830 O.2    60  VAL60      -0.2867
    119  CB       -12.9840   46.0530   -2.6600 C.3    60  VAL60       0.0252
    120  CG1      -14.0530   47.0090   -2.1820 C.3    60  VAL60       0.0019
    121  CG2      -13.4690   44.5980   -2.4840 C.3    60  VAL60       0.0019
    122  N        -10.4630   50.8130    0.8850 N.3    65  VAL65      -0.1245
    123  CA        -9.4260   50.1270    1.6420 C.3    65  VAL65       0.1561
    124  C         -8.6670   51.1260    2.5210 C.2    65  VAL65       0.2260
    125  O         -8.1040   50.7590    3.5420 O.2    65  VAL65      -0.2867
    126  CB        -8.4300   49.3990    0.6940 C.3    65  VAL65       0.0252
    127  CG1       -8.1580   47.9930    1.2140 C.3    65  VAL65       0.0019
    128  CG2       -8.9960   49.3400   -0.7300 C.3    65  VAL65       0.0019
    129  N         -6.6600   40.0870   18.6720 N.3    91  TYR91      -0.1241
    130  CA        -7.8420   39.7330   17.8980 C.3    91  TYR91       0.1605
    131  C         -7.5740   38.4820   17.0880 C.2    91  TYR91       0.2264
    132  O         -8.2680   37.4730   17.2370 O.2    91  TYR91      -0.2867
    133  CB        -8.2280   40.8790   16.9640 C.3    91  TYR91       0.0534
    134  CG        -9.2830   40.5030   15.9460 C.ar   91  TYR91      -0.0201
    135  CD1      -10.5420   40.0540   16.3500 C.ar   91  TYR91      -0.0009
    136  CD2       -9.0140   40.5680   14.5770 C.ar   91  TYR91      -0.0009
    137  CE1      -11.5050   39.6720   15.4160 C.ar   91  TYR91       0.0417
    138  CE2       -9.9660   40.1920   13.6400 C.ar   91  TYR91       0.0417
    139  CZ       -11.2040   39.7410   14.0660 C.ar   91  TYR91       0.1957
    140  OH       -12.1110   39.3120   13.1350 O.3    91  TYR91      -0.2866
    141  N         -9.1360   34.9220   16.5960 N.3    95  ARG95      -0.1245
    142  CA        -9.7100   34.4690   15.3370 C.3    95  ARG95       0.1563
    143  C         -9.1430   33.0770   15.0510 C.2    95  ARG95       0.2260
    144  O         -9.8940   32.1170   14.8480 O.2    95  ARG95      -0.2867
    145  CB        -9.3530   35.4320   14.1920 C.3    95  ARG95       0.0307
    146  CG       -10.0690   35.1490   12.8830 C.3    95  ARG95       0.0489
    147  CD        -9.4530   35.9520   11.7720 C.3    95  ARG95       0.2205
    148  NE        -9.8990   35.5000   10.4540 N.pl3  95  ARG95      -0.0865
    149  CZ        -9.5830   34.3280    9.9020 C.cat  95  ARG95       0.5346
    150  NH1       -8.7970   33.4670   10.5440 N.pl3  95  ARG95       0.1354
    151  NH2      -10.0870   33.9980    8.7170 N.pl3  95  ARG95       0.1354
@<TRIPOS>BOND
     1   115   116    1
     2   109   108    2
     3   117   116    1
     4   117   118    2
     5   116   119    1
     6   108   107    1
     7   106   107    1
     8   107   110    1
     9   119   121    1
    10   119   120    1
    11   110   111    1
    12   111   112    1
    13   128   126    1
    14   112   114   am
    15   112   113    2
    16    15    13   am
    17   126   127    1
    18   126   123    1
    19   122   123    1
    20    13    14    2
    21    13    12    1
    22   123   124    1
    23    12     9    1
    24    73    74   ar
    25    73    71   ar
    26    74    72   ar
    27   124   125    2
    28     1     2    1
    29     5     7    1
    30     5     2    1
    31     5     6    1
    32    96    97    1
    33    96    95    1
    34     8     9    1
    35     8     3   am
    36    71    70   ar
    37    72    70   ar
    38     9    10    1
    39     2     3    1
    40    70    69    1
    41    58    56   ar
    42     3     4    2
    43    94    95    1
    44    94    91    1
    45    10    11    2
    46   105   103    1
    47    54    55    1
    48    54    51    1
    49    69    66    1
    50    56    55    1
    51    56    57   ar
    52    81    79    1
    53    91    92    1
    54    91    90    1
    55   104   102    1
    56    51    52    1
    57    51    50    1
    58   103   102    1
    59    53    52    2
    60    93    92    2
    61   102    99    1
    62    68    67    2
    63    67    66    1
    64    67    75   am
    65    76    75    1
    66    76    79    1
    67    76    77    1
    68    66    65    1
    69    79    80    1
    70    90    84   am
    71    50    47   am
    72    21    20    1
    73    78    77    2
    74    84    85    2
    75    84    83    1
    76    48    47    2
    77    47    46    1
    78    65    61   am
    79    49    46    1
    80    27    24    1
    81   100    99    1
    82   100   101    2
    83    99    98    1
    84    20    22    1
    85    20    17    1
    86    16    17    1
    87    86    83    1
    88    86    87    1
    89    88    87    2
    90    46    45    1
    91    83    82    1
    92    23    24    1
    93    23    18   am
    94   151   149    1
    95    87    89   am
    96    17    18    1
    97    61    62    2
    98    61    60    1
    99    24    25    1
   100    18    19    2
   101    59    60    1
   102   149   148    2
   103   149   150    1
   104    60    63    1
   105    25    26    2
   106    63    64    1
   107   148   147    1
   108    44    42   am
   109    43    42    2
   110    34    33    1
   111   147   146    1
   112    42    41    1
   113    33    32    1
   114    33    35    1
   115    32    29    1
   116   146   145    1
   117   140   139    1
   118    41    40    1
   119    28    29    1
   120   138   139   ar
   121   138   136   ar
   122    29    30    1
   123    30    31    2
   124    40    37    1
   125   139   137   ar
   126   145   142    1
   127   136   134   ar
   128   144   143    2
   129   143   142    1
   130   142   141    1
   131   137   135   ar
   132    37    38    1
   133    37    36    1
   134   134   135   ar
   135   134   133    1
   136    38    39    2
   137   133   130    1
   138   131   132    2
   139   131   130    1
   140   130   129    1
