@<TRIPOS>MOLECULE
tmp/4ek1B00.pdb
 77 73 0 0 0
SMALL
GASTEIGER

@<TRIPOS>ATOM
      1  N          2.1390    8.4090   26.4590 N.3   103  ARG103     -0.1231
      2  CA         3.5500    8.0800   26.2260 C.3   103  ARG103      0.1694
      3  C          4.2550    9.0970   25.3360 C.2   103  ARG103      0.2591
      4  O          5.3520    9.5240   25.6710 O.2   103  ARG103     -0.2718
      5  CB         3.7190    6.6510   25.6870 C.3   103  ARG103      0.0321
      6  CG         5.1500    6.2490   25.2970 C.3   103  ARG103      0.0489
      7  CD         5.1230    4.9010   24.5500 C.3   103  ARG103      0.2205
      8  NE         6.4470    4.4220   24.1460 N.pl3 103  ARG103     -0.0865
      9  CZ         7.3390    3.8290   24.9390 C.cat 103  ARG103      0.5346
     10  NH1        7.1200    3.6640   26.2530 N.pl3 103  ARG103      0.1354
     11  NH2        8.4850    3.4230   24.4070 N.pl3 103  ARG103      0.1354
     12  N          3.6320    9.4970   24.2210 N.am  104  ALA104     -0.1980
     13  CA         4.2020   10.5580   23.3870 C.3   104  ALA104      0.1597
     14  C          4.4380   11.8580   24.1930 C.2   104  ALA104      0.2287
     15  O          5.4550   12.5250   24.0220 O.2   104  ALA104     -0.2864
     16  CB         3.3220   10.8370   22.1360 C.3   104  ALA104      0.0319
     17  N          7.3340   11.5360   26.6000 N.3   107  ASN107     -0.1240
     18  CA         8.5460   11.4290   25.7940 C.3   107  ASN107      0.1653
     19  C          9.1300   12.7910   25.4770 C.2   107  ASN107      0.2266
     20  O         10.3490   12.9210   25.3070 O.2   107  ASN107     -0.2867
     21  CB         8.2660   10.6430   24.5050 C.3   107  ASN107      0.1155
     22  CG         9.5120   10.4360   23.6590 C.2   107  ASN107      0.2627
     23  OD1       10.4950    9.8680   24.1170 O.2   107  ASN107     -0.2716
     24  ND2        9.4800   10.9210   22.4200 N.am  107  ASN107     -0.0877
     25  N         12.8890   12.2680   26.7350 N.3   111  GLY111     -0.1210
     26  CA        13.3890   11.6300   25.5130 C.3   111  GLY111      0.1956
     27  C         14.7920   12.0620   25.1210 C.2   111  GLY111      0.2611
     28  O         15.3770   12.9470   25.7470 O.2   111  GLY111     -0.2717
     29  N         15.3050   11.4590   24.0530 N.am  112  MET112     -0.1979
     30  CA        16.6640   11.6860   23.5960 C.3   112  MET112      0.1605
     31  C         17.0600   13.1490   23.4170 C.2   112  MET112      0.2287
     32  O         18.1040   13.5280   23.9250 O.2   112  MET112     -0.2864
     33  CB        16.9680   10.8790   22.3330 C.3   112  MET112      0.0413
     34  CG        16.6770    9.4060   22.5230 C.3   112  MET112      0.0598
     35  SD        17.3780    8.3500   21.2520 S.3   112  MET112     -0.1393
     36  CE        19.1450    8.5550   21.5030 C.3   112  MET112      0.0692
     37  N          8.1850   -0.0950   26.8130 N.3   347  LEU347     -0.1231
     38  CA         9.6420    0.0600   26.7140 C.3   347  LEU347      0.1693
     39  C         10.1240    1.4160   27.2680 C.2   347  LEU347      0.2592
     40  O          9.6870    2.4680   26.8100 O.2   347  LEU347     -0.2718
     41  CB        10.0600   -0.1020   25.2540 C.3   347  LEU347      0.0284
     42  CG        11.5390   -0.0840   24.8300 C.3   347  LEU347      0.0019
     43  CD1       12.3900   -1.0760   25.6060 C.3   347  LEU347      0.0001
     44  CD2       11.6180   -0.3670   23.3260 C.3   347  LEU347      0.0001
     45  N         11.0110    1.3770   28.2640 N.am  348  CYS348     -0.1956
     46  CA        11.4920    2.5810   28.9900 C.3   348  CYS348      0.1843
     47  C         11.7890    3.8040   28.1220 C.2   348  CYS348      0.2625
     48  O         12.6830    3.7770   27.2610 O.2   348  CYS348     -0.2714
     49  CB        12.7500    2.2570   29.8100 C.3   348  CYS348      0.0997
     50  SG        13.3020    3.6710   30.8210 S.3   348  CYS348     -0.0797
     51  N         11.0590    4.8820   28.3850 N.am  349  LEU349     -0.1977
     52  CA        11.2840    6.1760   27.7220 C.3   349  LEU349      0.1596
     53  C         12.5470    6.8850   28.2180 C.2   349  LEU349      0.2287
     54  O         13.1530    7.6850   27.4920 O.2   349  LEU349     -0.2864
     55  CB        10.0820    7.1000   27.9440 C.3   349  LEU349      0.0297
     56  CG         8.7650    6.7690   27.2320 C.3   349  LEU349      0.0022
     57  CD1        7.6540    7.6930   27.7000 C.3   349  LEU349      0.0001
     58  CD2        8.9420    6.8700   25.7140 C.3   349  LEU349      0.0001
     59  N         15.4590    5.5000   29.1620 N.3   351  GLN351     -0.1231
     60  CA        16.6620    4.6550   29.0780 C.3   351  GLN351      0.1698
     61  C         17.8940    5.3530   28.5140 C.2   351  GLN351      0.2592
     62  O         18.9830    5.0320   28.9310 O.2   351  GLN351     -0.2718
     63  CB        16.4010    3.3400   28.3250 C.3   351  GLN351      0.0381
     64  CG        15.8500    3.5040   26.9180 C.3   351  GLN351      0.0905
     65  CD        15.6310    2.1500   26.2480 C.2   351  GLN351      0.2608
     66  OE1       16.5770    1.4900   25.8590 O.2   351  GLN351     -0.2717
     67  NE2       14.3820    1.7370   26.1320 N.am  351  GLN351     -0.0878
     68  N         17.7350    6.2770   27.5570 N.am  352  HIS352     -0.1976
     69  CA        18.8840    7.0700   27.0880 C.3   352  HIS352      0.1656
     70  C         19.4520    7.9200   28.1980 C.2   352  HIS352      0.2291
     71  O         20.6710    8.0050   28.3450 O.2   352  HIS352     -0.2864
     72  CB        18.5750    7.9560   25.8870 C.3   352  HIS352      0.0771
     73  CG        19.8100    8.5490   25.2570 C.ar  352  HIS352      0.0820
     74  ND1       20.8650    7.7730   24.8120 N.ar  352  HIS352     -0.2267
     75  CD2       20.1580    9.8350   24.9970 C.ar  352  HIS352      0.1154
     76  CE1       21.8040    8.5530   24.2960 C.ar  352  HIS352      0.1986
     77  NE2       21.4030    9.8100   24.4040 N.ar  352  HIS352     -0.2212
@<TRIPOS>BOND
     1    35    36    1
     2    35    34    1
     3    16    13    1
     4    33    34    1
     5    33    30    1
     6    24    22   am
     7    44    42    1
     8    13    14    1
     9    13    12    1
    10    31    30    1
    11    31    32    2
    12    30    29    1
    13    22    23    2
    14    22    21    1
    15    15    14    2
    16    29    27   am
    17     8     7    1
    18     8     9    2
    19    12     3   am
    20    76    77   ar
    21    76    74   ar
    22    77    75   ar
    23    11     9    1
    24    21    18    1
    25     7     6    1
    26    74    73   ar
    27    42    41    1
    28    42    43    1
    29     9    10    1
    30    75    73   ar
    31    27    26    1
    32    27    28    2
    33    41    38    1
    34    73    72    1
    35     6     5    1
    36    20    19    2
    37     3     4    2
    38     3     2    1
    39    19    18    1
    40    26    25    1
    41     5     2    1
    42    58    56    1
    43    18    17    1
    44    66    65    2
    45    72    69    1
    46    67    65   am
    47     2     1    1
    48    65    64    1
    49    38    37    1
    50    38    39    1
    51    40    39    2
    52    64    63    1
    53    69    68    1
    54    69    70    1
    55    56    57    1
    56    56    55    1
    57    48    47    2
    58    39    45   am
    59    54    53    2
    60    68    61   am
    61    52    55    1
    62    52    53    1
    63    52    51    1
    64    47    51   am
    65    47    46    1
    66    70    71    2
    67    45    46    1
    68    63    60    1
    69    61    62    2
    70    61    60    1
    71    46    49    1
    72    60    59    1
    73    49    50    1
