@<TRIPOS>MOLECULE
tmp/4ek4A00.pdb
 124 118 0 0 0
SMALL
GASTEIGER

@<TRIPOS>ATOM
      1  N          0.2780  -12.5400   33.3120 N.3    10  ILE10      -0.1245
      2  CA        -0.7830  -12.1890   32.3560 C.3    10  ILE10       0.1561
      3  C         -0.7060  -13.1180   31.1720 C.2    10  ILE10       0.2260
      4  O         -1.7210  -13.6550   30.7130 O.2    10  ILE10      -0.2867
      5  CB        -0.6250  -10.7460   31.7600 C.3    10  ILE10       0.0252
      6  CG1       -0.6800   -9.6610   32.8280 C.3    10  ILE10       0.0019
      7  CG2       -1.6650  -10.5020   30.6720 C.3    10  ILE10       0.0019
      8  CD1       -0.6150   -8.2910   32.2580 C.3    10  ILE10       0.0001
      9  N          4.9100  -11.7270   30.4940 N.3    18  VAL18      -0.1245
     10  CA         4.2100  -10.4930   30.7920 C.3    18  VAL18       0.1561
     11  C          3.5230  -10.6350   32.1390 C.2    18  VAL18       0.2260
     12  O          2.7840  -11.6140   32.3540 O.2    18  VAL18      -0.2867
     13  CB         3.1480  -10.1400   29.7370 C.3    18  VAL18       0.0252
     14  CG1        2.5840   -8.7860   30.0810 C.3    18  VAL18       0.0019
     15  CG2        3.7500  -10.0880   28.3570 C.3    18  VAL18       0.0019
     16  N          1.7480   -3.2280   33.5320 N.3    31  ALA31      -0.1245
     17  CA         2.1680   -4.4670   32.8720 C.3    31  ALA31       0.1562
     18  C          3.6600   -4.4480   32.7070 C.2    31  ALA31       0.2260
     19  O          4.2220   -3.4900   32.1860 O.2    31  ALA31      -0.2867
     20  CB         1.4730   -4.5730   31.5320 C.3    31  ALA31       0.0290
     21  N          6.9770   -6.3380   31.1110 N.3    33  LYS33      -0.1245
     22  CA         7.4470   -7.3050   30.1130 C.3    33  LYS33       0.1561
     23  C          8.9160   -7.5150   30.2770 C.2    33  LYS33       0.2260
     24  O          9.6940   -6.5410   30.2680 O.2    33  LYS33      -0.2867
     25  CB         7.1380   -6.8490   28.6730 C.3    33  LYS33       0.0271
     26  CG         5.6810   -6.5910   28.4360 C.3    33  LYS33       0.0035
     27  CD         5.2550   -6.6660   26.9330 C.3    33  LYS33       0.0206
     28  CE         3.7550   -6.4500   26.8020 C.3    33  LYS33       0.1093
     29  NZ         3.2510   -6.8330   25.4520 N.3    33  LYS33      -0.1314
     30  N         -0.7040    2.0180   23.7720 N.3    55  VAL55      -0.1245
     31  CA        -0.4660    1.6600   25.1670 C.3    55  VAL55       0.1561
     32  C          0.7700    2.3950   25.6470 C.2    55  VAL55       0.2260
     33  O          1.8130    2.3530   25.0250 O.2    55  VAL55      -0.2867
     34  CB        -0.2770    0.1340   25.3050 C.3    55  VAL55       0.0252
     35  CG1        0.0380   -0.2570   26.7430 C.3    55  VAL55       0.0019
     36  CG2       -1.5570   -0.5880   24.8680 C.3    55  VAL55       0.0019
     37  N          4.6510   -0.8890   31.1040 N.3    71  PHE71      -0.1227
     38  CA         3.5520   -0.3610   30.3080 C.3    71  PHE71       0.1736
     39  C          2.3410   -0.0590   31.1620 C.2    71  PHE71       0.2595
     40  O          2.0980   -0.7130   32.2040 O.2    71  PHE71      -0.2718
     41  CB         3.1070   -1.3710   29.2380 C.3    71  PHE71       0.0547
     42  CG         4.0350   -1.5000   28.0780 C.ar   71  PHE71      -0.0202
     43  CD1        3.9640   -0.5880   27.0330 C.ar   71  PHE71      -0.0042
     44  CD2        4.9100   -2.5850   27.9760 C.ar   71  PHE71      -0.0042
     45  CE1        4.7590   -0.6930   25.9500 C.ar   71  PHE71      -0.0003
     46  CE2        5.7370   -2.7030   26.8370 C.ar   71  PHE71      -0.0003
     47  CZ         5.6440   -1.7530   25.8350 C.ar   71  PHE71      -0.0000
     48  N          1.5350    0.8770   30.6730 N.am   72  GLU72      -0.1965
     49  CA         0.1830    1.0430   31.1370 C.3    72  GLU72       0.1733
     50  C         -0.5290   -0.3110   31.1210 C.2    72  GLU72       0.2616
     51  O         -0.3700   -1.0950   30.1600 O.2    72  GLU72      -0.2715
     52  CB        -0.5160    1.9800   30.1040 C.3    72  GLU72       0.0429
     53  CG        -1.9830    2.1780   30.2710 C.3    72  GLU72       0.1163
     54  CD        -2.6210    2.9380   29.1200 C.2    72  GLU72       0.3649
     55  OE1       -1.9500    3.2630   28.0900 O.co2  72  GLU72      -0.2457
     56  OE2       -3.8240    3.1930   29.2290 O.co2  72  GLU72      -0.2457
     57  N         -1.3420   -0.5820   32.1400 N.am   73  PHE73      -0.1960
     58  CA        -2.0970   -1.8280   32.2760 C.3    73  PHE73       0.1771
     59  C         -3.5110   -1.6380   31.7490 C.2    73  PHE73       0.2619
     60  O         -4.2040   -0.6620   32.1420 O.2    73  PHE73      -0.2715
     61  CB        -2.1270   -2.2570   33.7460 C.3    73  PHE73       0.0574
     62  CG        -2.9040   -3.5300   33.9520 C.ar   73  PHE73      -0.0200
     63  CD1       -2.3180   -4.7630   33.6960 C.ar   73  PHE73      -0.0042
     64  CD2       -4.2650   -3.4970   34.3180 C.ar   73  PHE73      -0.0042
     65  CE1       -3.0830   -5.9590   33.8320 C.ar   73  PHE73      -0.0003
     66  CE2       -5.0100   -4.6850   34.4360 C.ar   73  PHE73      -0.0003
     67  CZ        -4.4040   -5.9040   34.2080 C.ar   73  PHE73      -0.0000
     68  N         -3.9520   -2.5700   30.8880 N.am   74  LEU74      -0.1963
     69  CA        -5.3320   -2.6580   30.4820 C.3    74  LEU74       0.1728
     70  C         -5.8760   -4.0350   30.7930 C.2    74  LEU74       0.2616
     71  O         -5.1170   -5.0050   30.8460 O.2    74  LEU74      -0.2715
     72  CB        -5.5600   -2.3790   28.9910 C.3    74  LEU74       0.0311
     73  CG        -5.3500   -0.9020   28.6180 C.3    74  LEU74       0.0022
     74  CD1       -3.9080   -0.6280   28.2770 C.3    74  LEU74       0.0001
     75  CD2       -6.2850   -0.5050   27.4300 C.3    74  LEU74       0.0001
     76  N         -7.1760   -4.1130   31.0330 N.am   75  HIS75      -0.1959
     77  CA        -7.7650   -5.3150   31.6680 C.3    75  HIS75       0.1787
     78  C         -8.1550   -6.4510   30.6910 C.2    75  HIS75       0.2620
     79  O         -8.5110   -7.5210   31.1600 O.2    75  HIS75      -0.2715
     80  CB        -8.9640   -4.9450   32.5870 C.3    75  HIS75       0.0785
     81  CG        -8.5760   -4.2510   33.8820 C.ar   75  HIS75       0.0821
     82  ND1       -8.2840   -2.8940   33.9750 N.ar   75  HIS75      -0.2267
     83  CD2       -8.4300   -4.7500   35.1350 C.ar   75  HIS75       0.1154
     84  CE1       -7.9510   -2.6130   35.2190 C.ar   75  HIS75       0.1986
     85  NE2       -8.0630   -3.7090   35.9530 N.ar   75  HIS75      -0.2212
     86  N         -8.1120   -6.2180   29.3750 N.am   76  GLN76      -0.1963
     87  CA        -8.6090   -7.1970   28.4050 C.3    76  GLN76       0.1733
     88  C         -7.8990   -7.0040   27.0640 C.2    76  GLN76       0.2616
     89  O         -7.5600   -5.8870   26.7310 O.2    76  GLN76      -0.2715
     90  CB       -10.1380   -7.0170   28.2430 C.3    76  GLN76       0.0408
     91  CG       -10.8540   -8.0010   27.2930 C.3    76  GLN76       0.0908
     92  CD       -10.5730   -9.4900   27.5850 C.2    76  GLN76       0.2608
     93  OE1       -9.4150   -9.9130   27.6610 O.2    76  GLN76      -0.2717
     94  NE2      -11.6420  -10.2940   27.7250 N.am   76  GLN76      -0.0878
     95  N         -7.6730   -8.0700   26.2930 N.am   77  ASP77      -0.1971
     96  CA        -7.2470   -7.9450   24.8990 C.3    77  ASP77       0.1709
     97  C         -8.3510   -8.2950   23.9230 C.2    77  ASP77       0.2293
     98  O         -9.3500   -8.9150   24.2920 O.2    77  ASP77      -0.2864
     99  CB        -5.9640   -8.7270   24.5830 C.3    77  ASP77       0.1436
    100  CG        -6.1250  -10.1930   24.7390 C.2    77  ASP77       0.3671
    101  OD1       -6.6930  -10.8050   23.8180 O.co2  77  ASP77      -0.2456
    102  OD2       -5.6530  -10.7200   25.7570 O.co2  77  ASP77      -0.2456
    103  N         -9.2720  -12.1850   23.3670 N.3    80  LYS80      -0.1245
    104  CA       -10.1690  -12.7130   24.3750 C.3    80  LYS80       0.1561
    105  C        -11.5870  -12.1810   24.2300 C.2    80  LYS80       0.2260
    106  O        -12.5710  -12.9240   24.3760 O.2    80  LYS80      -0.2867
    107  CB        -9.6090  -12.4570   25.7630 C.3    80  LYS80       0.0271
    108  CG        -8.3700  -13.2980   26.0720 C.3    80  LYS80       0.0035
    109  CD        -7.8730  -13.0630   27.4880 C.3    80  LYS80       0.0206
    110  CE        -6.5680  -13.7950   27.7030 C.3    80  LYS80       0.1093
    111  NZ        -5.4170  -12.8730   27.5930 N.3    80  LYS80      -0.1314
    112  N         -5.4570   -3.8650   23.0310 N.3   125  LEU125     -0.1245
    113  CA        -5.9430   -3.9140   24.3940 C.3   125  LEU125      0.1561
    114  C         -7.1450   -2.9940   24.5880 C.2   125  LEU125      0.2260
    115  O         -7.1910   -1.9020   23.9870 O.2   125  LEU125     -0.2867
    116  CB        -4.8160   -3.5960   25.3700 C.3   125  LEU125      0.0270
    117  CG        -3.5440   -4.4360   25.1850 C.3   125  LEU125      0.0019
    118  CD1       -2.5440   -4.0730   26.2150 C.3   125  LEU125      0.0001
    119  CD2       -3.8080   -5.9540   25.2590 C.3   125  LEU125      0.0001
    120  N         -0.5950   -2.2380   21.4820 N.3   135  ALA135     -0.1245
    121  CA         0.5320   -2.6410   22.3050 C.3   135  ALA135      0.1562
    122  C          1.7100   -3.0930   21.4260 C.2   135  ALA135      0.2260
    123  O          1.5020   -3.5940   20.3280 O.2   135  ALA135     -0.2867
    124  CB         0.1310   -3.7680   23.2550 C.3   135  ALA135      0.0290
@<TRIPOS>BOND
     1   123   122    2
     2   122   121    1
     3   120   121    1
     4   121   124    1
     5   112   113    1
     6   103   104    1
     7    30    31    1
     8   101   100   ar
     9    97    98    2
    10    97    96    1
    11   115   114    2
    12   105   104    1
    13   105   106    2
    14   104   107    1
    15   113   114    1
    16   113   116    1
    17    99   100    1
    18    99    96    1
    19   100   102   ar
    20    36    34    1
    21    96    95    1
    22    33    32    2
    23    31    34    1
    24    31    32    1
    25   117   119    1
    26   117   116    1
    27   117   118    1
    28    34    35    1
    29    29    28    1
    30   107   108    1
    31    47    45   ar
    32    47    46   ar
    33    45    43   ar
    34   108   109    1
    35    95    88   am
    36    89    88    2
    37    28    27    1
    38    46    44   ar
    39    27    26    1
    40    43    42   ar
    41    88    87    1
    42    91    92    1
    43    91    90    1
    44    75    73    1
    45   109   110    1
    46    92    93    2
    47    92    94   am
    48   111   110    1
    49    44    42   ar
    50    42    41    1
    51    55    54   ar
    52    90    87    1
    53    74    73    1
    54    15    13    1
    55    87    86    1
    56    26    25    1
    57    73    72    1
    58    25    22    1
    59    72    69    1
    60    54    56   ar
    61    54    53    1
    62    41    38    1
    63    86    78   am
    64    13    14    1
    65    13    10    1
    66    52    53    1
    67    52    49    1
    68    22    23    1
    69    22    21    1
    70    51    50    2
    71    24    23    2
    72    38    37    1
    73    38    39    1
    74    69    70    1
    75    69    68    1
    76     9    10    1
    77     7     5    1
    78    48    49    1
    79    48    39   am
    80    78    79    2
    81    78    77    1
    82     4     3    2
    83    10    11    1
    84    70    71    2
    85    70    76   am
    86    68    59   am
    87    76    77    1
    88    50    49    1
    89    50    57   am
    90    39    40    2
    91     3     2    1
    92    20    17    1
    93    77    80    1
    94    59    60    2
    95    59    58    1
    96     5     2    1
    97     5     6    1
    98    11    12    2
    99    57    58    1
   100    19    18    2
   101     8     6    1
   102    58    61    1
   103     2     1    1
   104    80    81    1
   105    18    17    1
   106    17    16    1
   107    63    65   ar
   108    63    62   ar
   109    61    62    1
   110    65    67   ar
   111    81    82   ar
   112    81    83   ar
   113    62    64   ar
   114    82    84   ar
   115    67    66   ar
   116    64    66   ar
   117    83    85   ar
   118    84    85   ar
