@<TRIPOS>MOLECULE
tmp/4ek5A00.pdb
 149 141 0 0 0
SMALL
GASTEIGER

@<TRIPOS>ATOM
      1  N          0.2800  -12.3700   32.9660 N.3    10  ILE10      -0.1245
      2  CA        -0.8270  -12.0210   32.0730 C.3    10  ILE10       0.1561
      3  C         -0.7070  -12.6120   30.6860 C.2    10  ILE10       0.2260
      4  O         -1.6770  -12.6060   29.9190 O.2    10  ILE10      -0.2867
      5  CB        -1.3240  -10.5610   32.1350 C.3    10  ILE10       0.0252
      6  CG1       -0.2630   -9.5720   31.6550 C.3    10  ILE10       0.0019
      7  CG2       -1.8230  -10.2470   33.5380 C.3    10  ILE10       0.0019
      8  CD1       -0.7050   -8.0970   31.5650 C.3    10  ILE10       0.0001
      9  N          4.9170  -11.4650   30.1120 N.3    18  VAL18      -0.1245
     10  CA         4.2430  -10.2190   30.4650 C.3    18  VAL18       0.1561
     11  C          3.5540  -10.4430   31.8010 C.2    18  VAL18       0.2260
     12  O          2.7780  -11.4000   31.9680 O.2    18  VAL18      -0.2867
     13  CB         3.2400   -9.6920   29.4000 C.3    18  VAL18       0.0252
     14  CG1        2.7630   -8.2840   29.7560 C.3    18  VAL18       0.0019
     15  CG2        3.8460   -9.7050   27.9960 C.3    18  VAL18       0.0019
     16  N          1.8770   -3.1080   33.2840 N.3    31  ALA31      -0.1245
     17  CA         2.2230   -4.3490   32.6170 C.3    31  ALA31       0.1562
     18  C          3.7460   -4.3160   32.4750 C.2    31  ALA31       0.2260
     19  O          4.3200   -3.3150   32.0120 O.2    31  ALA31      -0.2867
     20  CB         1.5760   -4.4300   31.2570 C.3    31  ALA31       0.0290
     21  N          7.0540   -6.1890   30.8360 N.3    33  LYS33      -0.1245
     22  CA         7.5060   -7.1060   29.8010 C.3    33  LYS33       0.1561
     23  C          8.9950   -7.3660   30.0330 C.2    33  LYS33       0.2260
     24  O          9.7750   -6.4100   30.0820 O.2    33  LYS33      -0.2867
     25  CB         7.2650   -6.4290   28.4440 C.3    33  LYS33       0.0271
     26  CG         7.2630   -7.3160   27.2220 C.3    33  LYS33       0.0035
     27  CD         6.8590   -6.4470   26.0410 C.3    33  LYS33       0.0206
     28  CE         6.3930   -7.2180   24.8400 C.3    33  LYS33       0.1093
     29  NZ         7.5370   -7.7140   24.0370 N.3    33  LYS33      -0.1314
     30  N         -0.5720    2.0770   23.5420 N.3    55  VAL55      -0.1245
     31  CA        -0.3460    1.7180   24.9410 C.3    55  VAL55       0.1561
     32  C          0.9030    2.4650   25.3890 C.2    55  VAL55       0.2260
     33  O          1.9620    2.3650   24.7430 O.2    55  VAL55      -0.2867
     34  CB        -0.1870    0.2000   25.0630 C.3    55  VAL55       0.0252
     35  CG1        0.1290   -0.1930   26.5030 C.3    55  VAL55       0.0019
     36  CG2       -1.4660   -0.4980   24.6370 C.3    55  VAL55       0.0019
     37  N          4.7690   -0.7850   30.9050 N.3    71  PHE71      -0.1227
     38  CA         3.6860   -0.2290   30.1020 C.3    71  PHE71       0.1736
     39  C          2.4660    0.0700   30.9190 C.2    71  PHE71       0.2595
     40  O          2.2280   -0.5460   31.9590 O.2    71  PHE71      -0.2718
     41  CB         3.2430   -1.2790   29.0800 C.3    71  PHE71       0.0547
     42  CG         4.1670   -1.4370   27.9200 C.ar   71  PHE71      -0.0202
     43  CD1        4.1230   -0.5380   26.8500 C.ar   71  PHE71      -0.0042
     44  CD2        5.0630   -2.4890   27.8740 C.ar   71  PHE71      -0.0042
     45  CE1        4.9770   -0.6930   25.7570 C.ar   71  PHE71      -0.0003
     46  CE2        5.9050   -2.6600   26.7620 C.ar   71  PHE71      -0.0003
     47  CZ         5.8560   -1.7600   25.7200 C.ar   71  PHE71      -0.0000
     48  N          1.6280    0.9590   30.3910 N.am   72  GLU72      -0.1965
     49  CA         0.2840    1.1850   30.9230 C.3    72  GLU72       0.1733
     50  C         -0.4620   -0.1720   30.8820 C.2    72  GLU72       0.2616
     51  O         -0.2680   -0.9780   29.9490 O.2    72  GLU72      -0.2715
     52  CB        -0.3920    2.1720   29.9490 C.3    72  GLU72       0.0429
     53  CG        -1.9010    2.2390   29.9880 C.3    72  GLU72       0.1163
     54  CD        -2.5210    3.1010   28.9030 C.2    72  GLU72       0.3649
     55  OE1       -1.8660    3.3660   27.8650 O.co2  72  GLU72      -0.2457
     56  OE2       -3.7230    3.3980   29.0500 O.co2  72  GLU72      -0.2457
     57  N         -1.2600   -0.4410   31.9160 N.am   73  PHE73      -0.1960
     58  CA        -2.0310   -1.6750   31.9930 C.3    73  PHE73       0.1771
     59  C         -3.4530   -1.4620   31.5070 C.2    73  PHE73       0.2619
     60  O         -4.1060   -0.4980   31.9210 O.2    73  PHE73      -0.2715
     61  CB        -2.0780   -2.1390   33.4710 C.3    73  PHE73       0.0574
     62  CG        -2.8590   -3.4050   33.6470 C.ar   73  PHE73      -0.0200
     63  CD1       -2.2680   -4.6460   33.4000 C.ar   73  PHE73      -0.0042
     64  CD2       -4.1920   -3.3650   34.0380 C.ar   73  PHE73      -0.0042
     65  CE1       -3.0120   -5.8240   33.4980 C.ar   73  PHE73      -0.0003
     66  CE2       -4.9360   -4.5420   34.1510 C.ar   73  PHE73      -0.0003
     67  CZ        -4.3410   -5.7630   33.8830 C.ar   73  PHE73      -0.0000
     68  N         -3.9440   -2.4040   30.6540 N.am   74  LEU74      -0.1963
     69  CA        -5.3520   -2.4410   30.2280 C.3    74  LEU74       0.1728
     70  C         -5.8940   -3.8020   30.5650 C.2    74  LEU74       0.2616
     71  O         -5.1460   -4.7800   30.6310 O.2    74  LEU74      -0.2715
     72  CB        -5.5620   -2.1540   28.7270 C.3    74  LEU74       0.0311
     73  CG        -5.3320   -0.6750   28.3550 C.3    74  LEU74       0.0022
     74  CD1       -3.8720   -0.4200   27.9980 C.3    74  LEU74       0.0001
     75  CD2       -6.2070   -0.2390   27.1420 C.3    74  LEU74       0.0001
     76  N         -7.1850   -3.8580   30.8490 N.am   75  HIS75      -0.1959
     77  CA        -7.8330   -5.0490   31.3910 C.3    75  HIS75       0.1787
     78  C         -8.2230   -6.1860   30.4740 C.2    75  HIS75       0.2620
     79  O         -8.6430   -7.2430   30.9570 O.2    75  HIS75      -0.2715
     80  CB        -9.0070   -4.6190   32.3050 C.3    75  HIS75       0.0785
     81  CG        -8.5890   -3.9870   33.6070 C.ar   75  HIS75       0.0821
     82  ND1       -8.2140   -2.6430   33.6830 N.ar   75  HIS75      -0.2267
     83  CD2       -8.4680   -4.5430   34.8430 C.ar   75  HIS75       0.1154
     84  CE1       -7.8540   -2.4380   34.9360 C.ar   75  HIS75       0.1986
     85  NE2       -8.0360   -3.5310   35.6890 N.ar   75  HIS75      -0.2212
     86  N         -8.1610   -5.9700   29.1580 N.am   76  GLN76      -0.1963
     87  CA        -8.5640   -7.0350   28.2440 C.3    76  GLN76       0.1733
     88  C         -7.8580   -6.8120   26.9130 C.2    76  GLN76       0.2616
     89  O         -7.4810   -5.6780   26.5920 O.2    76  GLN76      -0.2715
     90  CB       -10.1010   -6.9600   28.0630 C.3    76  GLN76       0.0408
     91  CG       -10.7460   -8.0040   27.1130 C.3    76  GLN76       0.0908
     92  CD       -10.4570   -9.4200   27.5060 C.2    76  GLN76       0.2608
     93  OE1       -9.2970   -9.8580   27.5680 O.2    76  GLN76      -0.2717
     94  NE2      -11.5320  -10.1980   27.7270 N.am   76  GLN76      -0.0878
     95  N         -7.6890   -7.8980   26.1320 N.am   77  ASP77      -0.1971
     96  CA        -7.1860   -7.7950   24.7500 C.3    77  ASP77       0.1709
     97  C         -8.2890   -8.1500   23.7760 C.2    77  ASP77       0.2293
     98  O         -9.2950   -8.7580   24.1430 O.2    77  ASP77      -0.2864
     99  CB        -5.8840   -8.5970   24.4870 C.3    77  ASP77       0.1436
    100  CG        -6.0230  -10.1040   24.5710 C.2    77  ASP77       0.3671
    101  OD1       -6.7950  -10.6670   23.7910 O.co2  77  ASP77      -0.2456
    102  OD2       -5.3110  -10.7200   25.3860 O.co2  77  ASP77      -0.2456
    103  N         -9.1660  -12.0870   23.2130 N.3    80  LYS80      -0.1245
    104  CA       -10.0550  -12.6590   24.2050 C.3    80  LYS80       0.1561
    105  C        -11.4570  -12.0770   24.1220 C.2    80  LYS80       0.2260
    106  O        -12.4360  -12.8140   24.2990 O.2    80  LYS80      -0.2867
    107  CB        -9.4660  -12.4730   25.5970 C.3    80  LYS80       0.0271
    108  CG        -8.3080  -13.4130   25.8600 C.3    80  LYS80       0.0035
    109  CD        -7.8140  -13.2140   27.2850 C.3    80  LYS80       0.0206
    110  CE        -6.4260  -13.7680   27.4650 C.3    80  LYS80       0.1093
    111  NZ        -5.9100  -13.4730   28.8210 N.3    80  LYS80      -0.1314
    112  N         -4.2000  -10.0690   19.6160 N.3   122  GLN122     -0.1245
    113  CA        -3.4890  -10.2240   20.9010 C.3   122  GLN122      0.1566
    114  C         -2.8190   -8.9130   21.3460 C.2   122  GLN122      0.2260
    115  O         -2.6640   -8.6810   22.5620 O.2   122  GLN122     -0.2867
    116  CB        -2.4070  -11.3120   20.7580 C.3   122  GLN122      0.0367
    117  CG        -2.8290  -12.6750   21.3000 C.3   122  GLN122      0.0905
    118  CD        -1.8640  -13.7880   20.9440 C.2   122  GLN122      0.2608
    119  OE1       -0.6440  -13.6000   20.8350 O.2   122  GLN122     -0.2717
    120  NE2       -2.3930  -14.9920   20.7840 N.am  122  GLN122     -0.0878
    121  N         -5.4240   -3.7440   22.8390 N.3   125  LEU125     -0.1245
    122  CA        -5.9010   -3.7600   24.2200 C.3   125  LEU125      0.1561
    123  C         -7.0600   -2.8100   24.4100 C.2   125  LEU125      0.2260
    124  O         -7.1030   -1.7450   23.7650 O.2   125  LEU125     -0.2867
    125  CB        -4.7700   -3.3810   25.1780 C.3   125  LEU125      0.0270
    126  CG        -3.4750   -4.2190   25.0380 C.3   125  LEU125      0.0019
    127  CD1       -2.4600   -3.7600   26.0260 C.3   125  LEU125      0.0001
    128  CD2       -3.7480   -5.7150   25.2560 C.3   125  LEU125      0.0001
    129  N         -0.5550   -2.1470   21.1970 N.3   135  ALA135     -0.1231
    130  CA         0.6020   -2.5520   22.0000 C.3   135  ALA135      0.1694
    131  C          1.7250   -3.0820   21.1060 C.2   135  ALA135      0.2592
    132  O          1.4750   -3.5990   20.0250 O.2   135  ALA135     -0.2718
    133  CB         0.2150   -3.6290   23.0050 C.3   135  ALA135      0.0304
    134  N          2.9520   -2.9320   21.6080 N.am  136  ASP136     -0.1974
    135  CA         4.1900   -3.4110   20.9650 C.3   136  ASP136      0.1709
    136  C          4.6100   -2.6470   19.7180 C.2   136  ASP136      0.2293
    137  O          5.3480   -3.1900   18.8930 O.2   136  ASP136     -0.2864
    138  CB         4.1480   -4.9480   20.7440 C.3   136  ASP136      0.1436
    139  CG         4.0980   -5.7810   22.0240 C.2   136  ASP136      0.3671
    140  OD1        4.1170   -5.1850   23.1400 O.co2 136  ASP136     -0.2456
    141  OD2        4.0820   -7.0280   21.9170 O.co2 136  ASP136     -0.2456
    142  N        -14.8910   -8.0150   34.2220 N.3   289  LEU289     -0.1245
    143  CA       -13.5000   -8.2100   34.6390 C.3   289  LEU289      0.1561
    144  C        -13.3220   -9.0410   35.9090 C.2   289  LEU289      0.2260
    145  O        -14.2210   -9.0300   36.7750 O.2   289  LEU289     -0.2867
    146  CB       -12.7700   -6.8650   34.7830 C.3   289  LEU289      0.0270
    147  CG       -12.7930   -5.9160   33.5840 C.3   289  LEU289      0.0019
    148  CD1      -12.2620   -4.5800   33.9730 C.3   289  LEU289      0.0001
    149  CD2      -12.0170   -6.4810   32.3760 C.3   289  LEU289      0.0001
@<TRIPOS>BOND
     1   137   136    2
     2   112   113    1
     3   136   135    1
     4   132   131    2
     5   138   135    1
     6   138   139    1
     7   116   113    1
     8   116   117    1
     9   120   118   am
    10   119   118    2
    11   113   114    1
    12   118   117    1
    13   135   134    1
    14   131   134   am
    15   131   130    1
    16   129   130    1
    17   114   115    2
    18   141   139   ar
    19   130   133    1
    20   139   140   ar
    21   121   122    1
    22   103   104    1
    23    30    31    1
    24   124   123    2
    25    97    98    2
    26    97    96    1
    27   101   100   ar
    28    29    28    1
    29   105   104    1
    30   105   106    2
    31   104   107    1
    32   122   123    1
    33   122   125    1
    34    99   100    1
    35    99    96    1
    36   100   102   ar
    37    36    34    1
    38    33    32    2
    39    96    95    1
    40    28    27    1
    41    31    34    1
    42    31    32    1
    43   126   125    1
    44   126   128    1
    45   126   127    1
    46    34    35    1
    47   107   108    1
    48    47    45   ar
    49    47    46   ar
    50    45    43   ar
    51   108   109    1
    52    27    26    1
    53    95    88   am
    54    89    88    2
    55    46    44   ar
    56    43    42   ar
    57    88    87    1
    58    91    92    1
    59    91    90    1
    60    75    73    1
    61    26    25    1
    62   109   110    1
    63   110   111    1
    64    92    93    2
    65    92    94   am
    66    55    54   ar
    67    44    42   ar
    68    42    41    1
    69    15    13    1
    70    74    73    1
    71    90    87    1
    72    87    86    1
    73    73    72    1
    74    25    22    1
    75    72    69    1
    76    54    56   ar
    77    54    53    1
    78    41    38    1
    79    86    78   am
    80    13    14    1
    81    13    10    1
    82    22    23    1
    83    22    21    1
    84     4     3    2
    85    51    50    2
    86    52    53    1
    87    52    49    1
    88    23    24    2
    89    38    37    1
    90    38    39    1
    91     9    10    1
    92    69    70    1
    93    69    68    1
    94    48    39   am
    95    48    49    1
    96    10    11    1
    97    78    79    2
    98    78    77    1
    99    70    71    2
   100    70    76   am
   101    68    59   am
   102     3     2    1
   103    76    77    1
   104    50    49    1
   105    50    57   am
   106    39    40    2
   107    20    17    1
   108    77    80    1
   109    59    60    2
   110    59    58    1
   111     8     6    1
   112     6     5    1
   113    11    12    2
   114    57    58    1
   115    58    61    1
   116    19    18    2
   117     2     5    1
   118     2     1    1
   119     5     7    1
   120    80    81    1
   121   149   147    1
   122    18    17    1
   123    17    16    1
   124    63    65   ar
   125    63    62   ar
   126    61    62    1
   127    65    67   ar
   128   147   148    1
   129   147   146    1
   130    81    82   ar
   131    81    83   ar
   132    62    64   ar
   133    82    84   ar
   134    67    66   ar
   135    64    66   ar
   136   142   143    1
   137   143   146    1
   138   143   144    1
   139    83    85   ar
   140    84    85   ar
   141   144   145    2
