@<TRIPOS>MOLECULE
tmp/4ek6A00.pdb
 159 150 0 0 0
SMALL
GASTEIGER

@<TRIPOS>ATOM
      1  N         -0.6350  -11.1050  -38.7770 N.3     8  GLU8       -0.1245
      2  CA        -0.4610  -12.3600  -38.0410 C.3     8  GLU8        0.1567
      3  C         -1.0000  -12.2730  -36.6110 C.2     8  GLU8        0.2260
      4  O         -1.2030  -11.1770  -36.0790 O.2     8  GLU8       -0.2867
      5  CB         1.0140  -12.8070  -38.0150 C.3     8  GLU8        0.0388
      6  CG         1.9790  -11.8070  -37.4000 C.3     8  GLU8        0.1160
      7  CD         3.3530  -11.8270  -38.0360 C.2     8  GLU8        0.3649
      8  OE1        3.7750  -12.9060  -38.5150 O.co2   8  GLU8       -0.2457
      9  OE2        4.0150  -10.7640  -38.0400 O.co2   8  GLU8       -0.2457
     10  N         -0.5310  -12.4170  -32.8330 N.3    10  ILE10      -0.1245
     11  CA         0.6260  -12.1190  -31.9920 C.3    10  ILE10       0.1561
     12  C          0.4390  -12.5550  -30.5470 C.2    10  ILE10       0.2260
     13  O          1.4160  -12.6120  -29.7980 O.2    10  ILE10      -0.2867
     14  CB         1.0730  -10.6530  -32.1160 C.3    10  ILE10       0.0252
     15  CG1        0.0410   -9.6590  -31.5350 C.3    10  ILE10       0.0019
     16  CG2        1.4280  -10.3570  -33.5810 C.3    10  ILE10       0.0019
     17  CD1        0.5060   -8.1750  -31.5500 C.3    10  ILE10       0.0001
     18  N         -5.1450  -11.5450  -30.0590 N.3    18  VAL18      -0.1245
     19  CA        -4.4700  -10.2920  -30.4150 C.3    18  VAL18       0.1561
     20  C         -3.7790  -10.4920  -31.7560 C.2    18  VAL18       0.2260
     21  O         -3.0180  -11.4570  -31.9400 O.2    18  VAL18      -0.2867
     22  CB        -3.4780   -9.7610  -29.3260 C.3    18  VAL18       0.0252
     23  CG1       -2.9970   -8.3530  -29.6620 C.3    18  VAL18       0.0019
     24  CG2       -4.1100   -9.7680  -27.9340 C.3    18  VAL18       0.0019
     25  N         -1.5730   -8.6160  -35.0730 N.3    20  LYS20      -0.1245
     26  CA        -0.8900   -7.4870  -35.7030 C.3    20  LYS20       0.1561
     27  C         -1.6840   -7.2080  -36.9800 C.2    20  LYS20       0.2260
     28  O         -2.0410   -8.1610  -37.6950 O.2    20  LYS20      -0.2867
     29  CB         0.5740   -7.8230  -36.0090 C.3    20  LYS20       0.0271
     30  CG         1.3500   -6.6450  -36.6260 C.3    20  LYS20       0.0035
     31  CD         2.7900   -7.0690  -36.8990 C.3    20  LYS20       0.0206
     32  CE         3.6250   -5.9260  -37.4050 C.3    20  LYS20       0.1093
     33  NZ         5.0430   -6.3480  -37.6290 N.3    20  LYS20      -0.1314
     34  N         -2.0600   -3.1360  -33.1640 N.3    31  ALA31      -0.1245
     35  CA        -2.4070   -4.3870  -32.5070 C.3    31  ALA31       0.1562
     36  C         -3.9140   -4.3770  -32.3400 C.2    31  ALA31       0.2260
     37  O         -4.4780   -3.3930  -31.8440 O.2    31  ALA31      -0.2867
     38  CB        -1.7080   -4.5030  -31.1650 C.3    31  ALA31       0.0290
     39  N         -7.1670   -6.2280  -30.6510 N.3    33  LYS33      -0.1245
     40  CA        -7.6150   -7.1900  -29.6370 C.3    33  LYS33       0.1561
     41  C         -9.0950   -7.4480  -29.8490 C.2    33  LYS33       0.2260
     42  O         -9.8830   -6.4970  -29.8860 O.2    33  LYS33      -0.2867
     43  CB        -7.3200   -6.6890  -28.2100 C.3    33  LYS33       0.0271
     44  CG        -7.7620   -7.6580  -27.1140 C.3    33  LYS33       0.0035
     45  CD        -7.0240   -7.4120  -25.8030 C.3    33  LYS33       0.0206
     46  CE        -7.5270   -8.2880  -24.6740 C.3    33  LYS33       0.1093
     47  NZ        -7.1000   -9.7150  -24.7860 N.3    33  LYS33      -0.1314
     48  N          0.5270    2.0900  -23.4530 N.3    54  VAL54      -0.1245
     49  CA         0.2770    1.7280  -24.8500 C.3    54  VAL54       0.1561
     50  C         -0.9920    2.4450  -25.2750 C.2    54  VAL54       0.2260
     51  O         -2.0270    2.3650  -24.5810 O.2    54  VAL54      -0.2867
     52  CB         0.1720    0.1960  -24.9580 C.3    54  VAL54       0.0252
     53  CG1       -0.1760   -0.2100  -26.3880 C.3    54  VAL54       0.0019
     54  CG2        1.4880   -0.4480  -24.5660 C.3    54  VAL54       0.0019
     55  N         -4.9440   -0.8490  -30.7320 N.3    70  PHE70      -0.1227
     56  CA        -3.8420   -0.2970  -29.9520 C.3    70  PHE70       0.1736
     57  C         -2.6270    0.0090  -30.7720 C.2    70  PHE70       0.2598
     58  O         -2.3950   -0.6020  -31.8090 O.2    70  PHE70      -0.2717
     59  CB        -3.4040   -1.3520  -28.9190 C.3    70  PHE70       0.0547
     60  CG        -4.3290   -1.5190  -27.7620 C.ar   70  PHE70      -0.0202
     61  CD1       -4.2900   -0.6290  -26.6950 C.ar   70  PHE70      -0.0042
     62  CD2       -5.1780   -2.6110  -27.6880 C.ar   70  PHE70      -0.0042
     63  CE1       -5.1280   -0.8000  -25.5960 C.ar   70  PHE70      -0.0003
     64  CE2       -5.9910   -2.8020  -26.5700 C.ar   70  PHE70      -0.0003
     65  CZ        -5.9730   -1.8860  -25.5410 C.ar   70  PHE70      -0.0000
     66  N         -1.7900    0.8980  -30.2530 N.am   71  GLU71      -0.1920
     67  CA        -0.4570    1.1000  -30.7950 C.3    71  GLU71       0.1949
     68  C          0.2880   -0.2640  -30.7660 C.2    71  GLU71       0.2659
     69  O          0.1040   -1.0590  -29.8300 O.2    71  GLU71      -0.2711
     70  CB         0.2210    2.1140  -29.8440 C.2    71  GLU71       0.0111
     71  CG         1.7300    2.2100  -29.8880 C.2    71  GLU71       0.0838
     72  CD         2.3700    3.0320  -28.7810 C.2    71  GLU71       0.3877
     73  OE1        1.7130    3.3300  -27.7510 O.co2  71  GLU71      -0.2406
     74  OE2        3.5820    3.3020  -28.9200 O.co2  71  GLU71      -0.2406
     75  N          1.1150   -0.5240  -31.7940 N.am   72  PHE72      -0.1957
     76  CA         1.8750   -1.7540  -31.8520 C.3    72  PHE72       0.1771
     77  C          3.3090   -1.5230  -31.3840 C.2    72  PHE72       0.2619
     78  O          3.9500   -0.5730  -31.8700 O.2    72  PHE72      -0.2715
     79  CB         1.9020   -2.2480  -33.3090 C.3    72  PHE72       0.0574
     80  CG         2.7430   -3.4740  -33.5190 C.ar   72  PHE72      -0.0200
     81  CD1        2.2720   -4.7310  -33.1520 C.ar   72  PHE72      -0.0042
     82  CD2        4.0320   -3.3750  -34.0510 C.ar   72  PHE72      -0.0042
     83  CE1        3.0770   -5.8590  -33.2830 C.ar   72  PHE72      -0.0003
     84  CE2        4.8310   -4.5070  -34.1820 C.ar   72  PHE72      -0.0003
     85  CZ         4.3510   -5.7420  -33.8090 C.ar   72  PHE72      -0.0000
     86  N          3.8250   -2.4310  -30.5600 N.am   73  LEU73      -0.1963
     87  CA         5.2270   -2.4630  -30.1480 C.3    73  LEU73       0.1728
     88  C          5.7940   -3.8200  -30.4880 C.2    73  LEU73       0.2616
     89  O          5.0940   -4.8230  -30.4040 O.2    73  LEU73      -0.2715
     90  CB         5.4540   -2.1400  -28.6660 C.3    73  LEU73       0.0311
     91  CG         5.2610   -0.6390  -28.3410 C.3    73  LEU73       0.0022
     92  CD1        3.8250   -0.3760  -27.9160 C.3    73  LEU73       0.0001
     93  CD2        6.1700   -0.1970  -27.1760 C.3    73  LEU73       0.0001
     94  N          7.0750   -3.8690  -30.8380 N.am   74  HIS74      -0.1959
     95  CA         7.5950   -5.1060  -31.3880 C.3    74  HIS74       0.1787
     96  C          7.9390   -6.2330  -30.4480 C.2    74  HIS74       0.2620
     97  O          8.1070   -7.3690  -30.9250 O.2    74  HIS74      -0.2715
     98  CB         8.8200   -4.8000  -32.2600 C.3    74  HIS74       0.0785
     99  CG         8.4760   -4.1760  -33.5790 C.ar   74  HIS74       0.0821
    100  ND1        8.2250   -2.8030  -33.6990 N.ar   74  HIS74      -0.2267
    101  CD2        8.3200   -4.7510  -34.8050 C.ar   74  HIS74       0.1154
    102  CE1        7.9400   -2.5970  -34.9770 C.ar   74  HIS74       0.1986
    103  NE2        8.0060   -3.7330  -35.6880 N.ar   74  HIS74      -0.2212
    104  N          8.0430   -5.9660  -29.1440 N.am   75  GLN75      -0.1963
    105  CA         8.3730   -7.0330  -28.2120 C.3    75  GLN75       0.1733
    106  C          7.7440   -6.7620  -26.8670 C.2    75  GLN75       0.2616
    107  O          7.3480   -5.6290  -26.5750 O.2    75  GLN75      -0.2715
    108  CB         9.8980   -7.1500  -28.0650 C.3    75  GLN75       0.0408
    109  CG        10.3670   -8.4640  -27.4370 C.3    75  GLN75       0.0908
    110  CD        11.8130   -8.7150  -27.7450 C.2    75  GLN75       0.2608
    111  OE1       12.6670   -8.6290  -26.8710 O.2    75  GLN75      -0.2717
    112  NE2       12.1180   -9.0210  -29.0050 N.am   75  GLN75      -0.0878
    113  N          7.6510   -7.8120  -26.0490 N.am   76  ASP76      -0.1971
    114  CA         7.1840   -7.6730  -24.6710 C.3    76  ASP76       0.1709
    115  C          8.3310   -8.0330  -23.7160 C.2    76  ASP76       0.2293
    116  O          9.3410   -8.6450  -24.1080 O.2    76  ASP76      -0.2864
    117  CB         5.9000   -8.4740  -24.3380 C.3    76  ASP76       0.1436
    118  CG         6.0150   -9.9770  -24.4340 C.2    76  ASP76       0.3671
    119  OD1        6.8580  -10.5520  -23.7230 O.co2  76  ASP76      -0.2456
    120  OD2        5.2700  -10.5770  -25.2290 O.co2  76  ASP76      -0.2456
    121  N          9.3500  -11.9010  -23.2500 N.3    79  LYS79      -0.1245
    122  CA        10.2240  -12.4120  -24.3170 C.3    79  LYS79       0.1561
    123  C         11.6430  -11.8630  -24.1240 C.2    79  LYS79       0.2260
    124  O         12.6150  -12.6030  -24.2300 O.2    79  LYS79      -0.2867
    125  CB         9.6840  -12.0430  -25.7150 C.3    79  LYS79       0.0271
    126  CG        10.4310  -12.7880  -26.8300 C.3    79  LYS79       0.0035
    127  CD        10.1150  -12.3440  -28.2370 C.3    79  LYS79       0.0206
    128  CE        10.9080  -13.1760  -29.2130 C.3    79  LYS79       0.1093
    129  NZ        10.4530  -12.9860  -30.6140 N.3    79  LYS79      -0.1314
    130  N          4.3270   -9.9980  -19.6010 N.3   121  GLN121     -0.1245
    131  CA         3.6080  -10.1830  -20.8750 C.3   121  GLN121      0.1566
    132  C          2.9190   -8.8740  -21.3080 C.2   121  GLN121      0.2260
    133  O          2.7480   -8.6350  -22.5180 O.2   121  GLN121     -0.2867
    134  CB         2.5420  -11.3020  -20.7020 C.3   121  GLN121      0.0367
    135  CG         3.1130  -12.6760  -20.3770 C.3   121  GLN121      0.0905
    136  CD         3.1020  -13.0020  -18.8980 C.2   121  GLN121      0.2608
    137  OE1        3.8870  -12.4700  -18.0830 O.2   121  GLN121     -0.2717
    138  NE2        2.2310  -13.9370  -18.5300 N.am  121  GLN121     -0.0878
    139  N          5.4570   -3.6380  -22.7500 N.3   124  LEU124     -0.1245
    140  CA         5.9370   -3.6740  -24.1400 C.3   124  LEU124      0.1561
    141  C          7.0810   -2.7290  -24.3400 C.2   124  LEU124      0.2260
    142  O          7.1250   -1.6650  -23.7120 O.2   124  LEU124     -0.2867
    143  CB         4.7970   -3.2940  -25.0900 C.3   124  LEU124      0.0270
    144  CG         3.4810   -4.0840  -24.9340 C.3   124  LEU124      0.0019
    145  CD1        2.4900   -3.5990  -25.9700 C.3   124  LEU124      0.0001
    146  CD2        3.6950   -5.5840  -25.1540 C.3   124  LEU124      0.0001
    147  N          0.5560   -2.1270  -21.0500 N.3   134  ALA134     -0.1231
    148  CA        -0.5550   -2.5200  -21.9140 C.3   134  ALA134      0.1694
    149  C         -1.6870   -3.0860  -21.0990 C.2   134  ALA134      0.2592
    150  O         -1.4470   -3.6730  -20.0550 O.2   134  ALA134     -0.2718
    151  CB        -0.1220   -3.5540  -22.9380 C.3   134  ALA134      0.0304
    152  N         -2.9180   -2.9390  -21.6270 N.am  135  ASP135     -0.1974
    153  CA        -4.1750   -3.4590  -21.0440 C.3   135  ASP135      0.1709
    154  C         -4.5810   -2.7040  -19.7640 C.2   135  ASP135      0.2293
    155  O         -5.3220   -3.2210  -18.9230 O.2   135  ASP135     -0.2864
    156  CB        -4.1020   -4.9840  -20.8020 C.3   135  ASP135      0.1436
    157  CG        -4.0400   -5.8320  -22.0690 C.2   135  ASP135      0.3671
    158  OD1       -4.0590   -5.2530  -23.1850 O.co2 135  ASP135     -0.2456
    159  OD2       -3.9870   -7.0760  -21.9470 O.co2 135  ASP135     -0.2456
@<TRIPOS>BOND
     1     1     2    1
     2     8     7   ar
     3     2     5    1
     4     2     3    1
     5     9     7   ar
     6     7     6    1
     7     5     6    1
     8    28    27    2
     9    33    32    1
    10    32    31    1
    11    27    26    1
    12    31    30    1
    13    30    29    1
    14     3     4    2
    15    29    26    1
    16    26    25    1
    17   103   102   ar
    18   103   101   ar
    19   102   100   ar
    20   101    99   ar
    21    84    82   ar
    22    84    85   ar
    23    82    80   ar
    24    85    83   ar
    25   100    99   ar
    26    16    14    1
    27    99    98    1
    28    80    79    1
    29    80    81   ar
    30    79    76    1
    31    83    81   ar
    32    34    35    1
    33    10    11    1
    34    35    36    1
    35    35    38    1
    36    36    37    2
    37    98    95    1
    38    14    11    1
    39    14    15    1
    40    11    12    1
    41    21    20    2
    42    78    77    2
    43    76    75    1
    44    76    77    1
    45    58    57    2
    46    75    68   am
    47    20    19    1
    48    17    15    1
    49    95    94    1
    50    95    96    1
    51    77    86   am
    52    97    96    2
    53    94    88   am
    54    67    68    1
    55    67    66    1
    56    67    70    1
    57    57    66   am
    58    57    56    1
    59    68    69    2
    60    55    56    1
    61    39    40    1
    62   129   128    1
    63    86    87    1
    64    12    13    2
    65    88    89    2
    66    88    87    1
    67    96   104   am
    68    19    18    1
    69    19    22    1
    70    87    90    1
    71    56    59    1
    72    71    70    2
    73    71    72    1
    74    42    41    2
    75    41    40    1
    76    23    22    1
    77    40    43    1
    78    22    24    1
    79   128   127    1
    80   104   105    1
    81   112   110   am
    82    74    72   ar
    83    59    60    1
    84    72    73   ar
    85    90    91    1
    86    91    92    1
    87    91    93    1
    88   127   126    1
    89   105   108    1
    90   105   106    1
    91    43    44    1
    92   108   109    1
    93    60    62   ar
    94    60    61   ar
    95   110   109    1
    96   110   111    2
    97    62    64   ar
    98    44    45    1
    99   106   107    2
   100   106   113   am
   101   126   125    1
   102    61    63   ar
   103    64    65   ar
   104    53    52    1
   105   113   114    1
   106   145   144    1
   107    45    46    1
   108   125   122    1
   109    63    65   ar
   110    50    49    1
   111    50    51    2
   112   120   118   ar
   113   146   144    1
   114   143   144    1
   115   143   140    1
   116    52    49    1
   117    52    54    1
   118    49    48    1
   119    47    46    1
   120   114   117    1
   121   114   115    1
   122   118   117    1
   123   118   119   ar
   124   141   140    1
   125   141   142    2
   126   122   123    1
   127   122   121    1
   128   124   123    2
   129   140   139    1
   130   116   115    2
   131   158   157   ar
   132   151   148    1
   133   133   132    2
   134   157   159   ar
   135   157   156    1
   136   148   149    1
   137   148   147    1
   138   152   149   am
   139   152   153    1
   140   132   131    1
   141   149   150    2
   142   153   156    1
   143   153   154    1
   144   131   134    1
   145   131   130    1
   146   134   135    1
   147   135   136    1
   148   154   155    2
   149   136   138   am
   150   136   137    2
