@<TRIPOS>MOLECULE
tmp/4ek9A00.pdb
 176 171 0 0 0
SMALL
GASTEIGER

@<TRIPOS>ATOM
      1  N         50.9700   49.7780   16.3460 N.3   126  PRO126     -0.2102
      2  CA        50.1590   49.4640   15.1470 C.3   126  PRO126      0.1504
      3  C         48.7140   50.0130   15.1500 C.2   126  PRO126      0.2576
      4  O         48.0110   49.8640   14.1550 O.2   126  PRO126     -0.2718
      5  CB        50.1570   47.9310   15.1210 C.3   126  PRO126      0.0282
      6  CG        51.4090   47.5500   15.8290 C.3   126  PRO126      0.0208
      7  CD        51.5410   48.5520   16.9390 C.3   126  PRO126      0.0893
      8  N         48.2890   50.6360   16.2530 N.am  127  GLU127     -0.1966
      9  CA        46.9460   51.2300   16.3780 C.3   127  GLU127      0.1733
     10  C         46.7620   52.5650   15.6290 C.2   127  GLU127      0.2616
     11  O         45.6250   52.9760   15.3800 O.2   127  GLU127     -0.2715
     12  CB        46.5760   51.4230   17.8540 C.3   127  GLU127      0.0429
     13  CG        45.8320   50.2580   18.4910 C.3   127  GLU127      0.1163
     14  CD        45.1760   50.6260   19.8220 C.2   127  GLU127      0.3649
     15  OE1       44.3640   49.8180   20.3230 O.co2 127  GLU127     -0.2457
     16  OE2       45.4640   51.7170   20.3740 O.co2 127  GLU127     -0.2457
     17  N         47.8680   53.2300   15.2810 N.am  128  VAL128     -0.1963
     18  CA        47.8390   54.5510   14.6200 C.3   128  VAL128      0.1727
     19  C         46.7750   54.6670   13.5140 C.2   128  VAL128      0.2616
     20  O         46.7670   53.8850   12.5490 O.2   128  VAL128     -0.2715
     21  CB        49.2330   54.9840   14.0750 C.3   128  VAL128      0.0290
     22  CG1       49.1230   56.2770   13.2660 C.3   128  VAL128      0.0023
     23  CG2       50.2430   55.1360   15.2140 C.3   128  VAL128      0.0023
     24  N         45.8860   55.6490   13.6740 N.am  129  TYR129     -0.1960
     25  CA        44.7930   55.8550   12.7340 C.3   129  TYR129      0.1771
     26  C         45.1530   56.8790   11.6610 C.2   129  TYR129      0.2620
     27  O         45.6360   57.9680   11.9570 O.2   129  TYR129     -0.2715
     28  CB        43.5260   56.2570   13.4870 C.3   129  TYR129      0.0574
     29  CG        42.3210   56.4920   12.6120 C.ar  129  TYR129     -0.0198
     30  CD1       42.0260   57.7790   12.1210 C.ar  129  TYR129     -0.0009
     31  CD2       41.4630   55.4390   12.2720 C.ar  129  TYR129     -0.0009
     32  CE1       40.9140   58.0080   11.3180 C.ar  129  TYR129      0.0417
     33  CE2       40.3430   55.6540   11.4670 C.ar  129  TYR129      0.0417
     34  CZ        40.0720   56.9360   10.9970 C.ar  129  TYR129      0.1957
     35  OH        38.9690   57.1490   10.2020 O.3   129  TYR129     -0.2866
     36  N         44.9350   56.4980   10.4110 N.am  130  GLY130     -0.1954
     37  CA        45.0600   57.3980    9.2660 C.3   130  GLY130      0.1869
     38  C         44.0060   57.0140    8.2400 C.2   130  GLY130      0.2309
     39  O         43.5930   55.8580    8.1770 O.2   130  GLY130     -0.2863
     40  N         42.9070   56.7840    4.2750 N.3   132  THR132     -0.1218
     41  CA        43.2700   56.7950    2.8560 C.3   132  THR132      0.1862
     42  C         42.3300   57.7190    2.0430 C.2   132  THR132      0.2287
     43  O         41.1090   57.6340    2.1300 O.2   132  THR132     -0.2866
     44  CB        43.2900   55.3580    2.2760 C.3   132  THR132      0.1770
     45  OG1       43.8890   54.4570    3.2200 O.3   132  THR132     -0.2211
     46  CG2       44.0730   55.2970    0.9620 C.3   132  THR132      0.0375
     47  N         42.3910   45.1280    5.4590 N.3   155  LEU155     -0.1231
     48  CA        42.9180   44.7320    6.7560 C.3   155  LEU155      0.1693
     49  C         43.1920   45.9610    7.6240 C.2   155  LEU155      0.2593
     50  O         44.0370   46.7830    7.2820 O.2   155  LEU155     -0.2718
     51  CB        44.2140   43.9220    6.5760 C.3   155  LEU155      0.0284
     52  CG        44.2170   42.6560    5.7060 C.3   155  LEU155      0.0019
     53  CD1       45.6440   42.1940    5.4700 C.3   155  LEU155      0.0001
     54  CD2       43.3900   41.5540    6.3470 C.3   155  LEU155      0.0001
     55  N         42.5000   46.0740    8.7570 N.am  156  GLY156     -0.1942
     56  CA        42.5460   47.3040    9.5430 C.3   156  GLY156      0.2014
     57  C         41.7310   48.3580    8.8030 C.2   156  GLY156      0.2640
     58  O         42.2850   49.3020    8.2430 O.2   156  GLY156     -0.2714
     59  N         40.4120   48.1710    8.8010 N.am  157  SER157     -0.1935
     60  CA        39.4940   48.9350    7.9530 C.3   157  SER157      0.2055
     61  C         39.0550   50.3010    8.4880 C.2   157  SER157      0.2643
     62  O         38.3630   51.0590    7.7800 O.2   157  SER157     -0.2714
     63  CB        38.2630   48.0960    7.6310 C.3   157  SER157      0.2130
     64  OG        37.8400   47.3760    8.7680 O.3   157  SER157     -0.2179
     65  N         39.4630   50.6080    9.7190 N.am  158  GLY158     -0.1954
     66  CA        39.1530   51.8870   10.3550 C.3   158  GLY158      0.1869
     67  C         37.6790   51.9990   10.6720 C.2   158  GLY158      0.2309
     68  O         37.0890   51.1070   11.3000 O.2   158  GLY158     -0.2863
     69  N         35.6760   53.1150    5.4990 N.3   161  GLN161     -0.1245
     70  CA        35.3500   53.9060    4.3180 C.3   161  GLN161      0.1566
     71  C         35.9120   53.3230    3.0280 C.2   161  GLN161      0.2260
     72  O         35.3550   53.5510    1.9410 O.2   161  GLN161     -0.2867
     73  CB        35.7720   55.3560    4.4910 C.3   161  GLN161      0.0367
     74  CG        37.2600   55.5850    4.4420 C.3   161  GLN161      0.0905
     75  CD        37.8460   55.7220    5.8180 C.2   161  GLN161      0.2608
     76  OE1       37.3300   56.4800    6.6450 O.2   161  GLN161     -0.2717
     77  NE2       38.9520   55.0070    6.0740 N.am  161  GLN161     -0.0878
     78  N         38.1350   44.4810    8.4030 N.3   178  VAL178     -0.1231
     79  CA        38.3690   44.0310    9.7620 C.3   178  VAL178      0.1692
     80  C         39.2490   45.0300   10.5100 C.2   178  VAL178      0.2592
     81  O         40.3340   45.4170   10.0380 O.2   178  VAL178     -0.2718
     82  CB        38.9730   42.6090    9.8040 C.3   178  VAL178      0.0266
     83  CG1       40.3270   42.5770    9.1050 C.3   178  VAL178      0.0020
     84  CG2       39.0950   42.1270   11.2380 C.3   178  VAL178      0.0020
     85  N         38.7660   45.4410   11.6760 N.am  179  GLU179     -0.1966
     86  CA        39.4330   46.4590   12.4910 C.3   179  GLU179      0.1733
     87  C         39.4470   46.0100   13.9430 C.2   179  GLU179      0.2616
     88  O         38.4840   45.4100   14.4250 O.2   179  GLU179     -0.2715
     89  CB        38.7230   47.8000   12.3080 C.3   179  GLU179      0.0429
     90  CG        39.0700   48.8920   13.2940 C.3   179  GLU179      0.1163
     91  CD        40.5320   49.2370   13.3160 C.2   179  GLU179      0.3649
     92  OE1       41.0870   49.6600   12.2800 O.co2 179  GLU179     -0.2457
     93  OE2       41.1210   49.0900   14.3980 O.co2 179  GLU179     -0.2457
     94  N         40.5480   46.2790   14.6280 N.am  180  LYS180     -0.1963
     95  CA        40.7870   45.7200   15.9680 C.3   180  LYS180      0.1728
     96  C         40.3970   46.6530   17.1240 C.2   180  LYS180      0.2616
     97  O         39.8720   46.1920   18.1300 O.2   180  LYS180     -0.2715
     98  CB        42.2540   45.3060   16.0960 C.3   180  LYS180      0.0311
     99  CG        42.6110   44.4480   17.3000 C.3   180  LYS180      0.0038
    100  CD        44.0970   44.0950   17.2430 C.3   180  LYS180      0.0206
    101  CE        44.6340   43.6620   18.5990 C.3   180  LYS180      0.1093
    102  NZ        44.7620   44.8160   19.5350 N.3   180  LYS180     -0.1314
    103  N         40.6520   47.9510   16.9640 N.am  181  ALA181     -0.1977
    104  CA        40.4280   48.9520   18.0210 C.3   181  ALA181      0.1597
    105  C         38.9530   49.2930   18.1790 C.2   181  ALA181      0.2287
    106  O         38.2500   49.4310   17.1730 O.2   181  ALA181     -0.2864
    107  CB        41.2300   50.2120   17.7290 C.3   181  ALA181      0.0319
    108  N         37.2050   53.0040   16.3780 N.3   184  PRO184     -0.2116
    109  CA        36.8400   52.9000   14.9610 C.3   184  PRO184      0.1372
    110  C         35.8540   51.7810   14.6370 C.2   184  PRO184      0.2244
    111  O         34.9840   51.9630   13.7810 O.2   184  PRO184     -0.2868
    112  CB        38.1840   52.6400   14.2680 C.3   184  PRO184      0.0268
    113  CG        39.1040   52.2060   15.3540 C.3   184  PRO184      0.0207
    114  CD        38.6720   52.9780   16.5410 C.3   184  PRO184      0.0892
    115  N         37.7630   42.4580   14.8090 N.3   214  GLY214     -0.1210
    116  CA        38.6030   41.2700   14.8940 C.3   214  GLY214      0.1956
    117  C         40.0780   41.5430   14.7510 C.2   214  GLY214      0.2612
    118  O         40.4900   42.6880   14.5620 O.2   214  GLY214     -0.2717
    119  N         40.8760   40.4830   14.8460 N.am  215  ASP215     -0.1959
    120  CA        42.3290   40.5820   14.7050 C.3   215  ASP215      0.1840
    121  C         42.8040   39.8680   13.4350 C.2   215  ASP215      0.2622
    122  O         42.6850   38.6450   13.3330 O.2   215  ASP215     -0.2715
    123  CB        43.0140   39.9780   15.9310 C.3   215  ASP215      0.1450
    124  CG        44.4640   40.3800   16.0470 C.2   215  ASP215      0.3671
    125  OD1       45.1670   40.4920   15.0080 O.co2 215  ASP215     -0.2456
    126  OD2       44.8980   40.5960   17.1980 O.co2 215  ASP215     -0.2456
    127  N         43.3570   40.6110   12.4740 N.am  216  PHE216     -0.1960
    128  CA        43.7220   39.9780   11.2050 C.3   216  PHE216      0.1771
    129  C         44.9330   39.0430   11.3120 C.2   216  PHE216      0.2619
    130  O         45.2960   38.3760   10.3400 O.2   216  PHE216     -0.2715
    131  CB        43.8470   40.9790   10.0480 C.3   216  PHE216      0.0574
    132  CG        44.8730   42.0580   10.2600 C.ar  216  PHE216     -0.0200
    133  CD1       46.2310   41.7620   10.3150 C.ar  216  PHE216     -0.0042
    134  CD2       44.4800   43.3940   10.3550 C.ar  216  PHE216     -0.0042
    135  CE1       47.1730   42.7690   10.4940 C.ar  216  PHE216     -0.0003
    136  CE2       45.4160   44.4030   10.5370 C.ar  216  PHE216     -0.0003
    137  CZ        46.7640   44.0920   10.6060 C.ar  216  PHE216     -0.0000
    138  N         45.5340   38.9910   12.4980 N.am  217  LEU217     -0.1977
    139  CA        46.6060   38.0340   12.7920 C.3   217  LEU217      0.1596
    140  C         46.1270   36.7280   13.4660 C.2   217  LEU217      0.2287
    141  O         46.8560   35.7380   13.4840 O.2   217  LEU217     -0.2864
    142  CB        47.7340   38.6870   13.5950 C.3   217  LEU217      0.0297
    143  CG        48.4640   39.8500   12.9110 C.3   217  LEU217      0.0022
    144  CD1       49.4290   40.5030   13.8930 C.3   217  LEU217      0.0001
    145  CD2       49.1720   39.4560   11.6150 C.3   217  LEU217      0.0001
    146  N         46.5850   49.4290    4.6510 N.3   234  ASN234     -0.1240
    147  CA        47.2900   50.6670    4.8390 C.3   234  ASN234      0.1653
    148  C         48.2270   50.4890    6.0110 C.2   234  ASN234      0.2266
    149  O         47.8970   50.8000    7.1630 O.2   234  ASN234     -0.2867
    150  CB        46.3000   51.8000    5.0660 C.3   234  ASN234      0.1155
    151  CG        46.9760   53.1230    5.3560 C.2   234  ASN234      0.2627
    152  OD1       48.1740   53.2880    5.1220 O.2   234  ASN234     -0.2716
    153  ND2       46.2060   54.0770    5.8700 N.am  234  ASN234     -0.0877
    154  N         52.0800   52.4810    9.2090 N.3   237  ALA237     -0.1231
    155  CA        52.4350   52.6260   10.6070 C.3   237  ALA237      0.1694
    156  C         52.4740   51.2890   11.3400 C.2   237  ALA237      0.2592
    157  O         52.4580   51.2510   12.5840 O.2   237  ALA237     -0.2718
    158  CB        51.4580   53.5810   11.2900 C.3   237  ALA237      0.0304
    159  N         52.5320   50.1920   10.5870 N.am  238  PHE238     -0.1976
    160  CA        52.5270   48.8740   11.2110 C.3   238  PHE238      0.1639
    161  C         53.8360   48.5160   11.9050 C.2   238  PHE238      0.2290
    162  O         53.8020   48.0700   13.0460 O.2   238  PHE238     -0.2864
    163  CB        52.0930   47.7720   10.2340 C.3   238  PHE238      0.0560
    164  CG        50.6210   47.7820    9.9230 C.ar  238  PHE238     -0.0200
    165  CD1       49.7660   48.7160   10.5190 C.ar  238  PHE238     -0.0042
    166  CD2       50.0790   46.8350    9.0620 C.ar  238  PHE238     -0.0042
    167  CE1       48.4090   48.7260   10.2280 C.ar  238  PHE238     -0.0003
    168  CE2       48.7210   46.8350    8.7710 C.ar  238  PHE238     -0.0003
    169  CZ        47.8870   47.7810    9.3530 C.ar  238  PHE238     -0.0000
    170  N         54.7390   43.4060   12.6170 N.3   242  VAL242     -0.1245
    171  CA        53.4570   43.1370   11.9780 C.3   242  VAL242      0.1561
    172  C         53.6060   42.8940   10.4700 C.2   242  VAL242      0.2260
    173  O         52.9380   42.0250    9.9230 O.2   242  VAL242     -0.2867
    174  CB        52.4440   44.2790   12.2490 C.3   242  VAL242      0.0252
    175  CG1       51.0640   43.9260   11.7040 C.3   242  VAL242      0.0019
    176  CG2       52.3450   44.5770   13.7430 C.3   242  VAL242      0.0019
@<TRIPOS>BOND
     1    46    44    1
     2    72    71    2
     3    42    43    2
     4    42    41    1
     5    44    41    1
     6    44    45    1
     7    41    40    1
     8    71    70    1
     9    70    73    1
    10    70    69    1
    11    74    73    1
    12    74    75    1
    13   146   147    1
    14   147   150    1
    15   147   148    1
    16   150   151    1
    17   152   151    2
    18   151   153   am
    19    47    48    1
    20    53    52    1
    21    52    54    1
    22    52    51    1
    23    75    77   am
    24    75    76    2
    25   148   149    2
    26    51    48    1
    27    48    49    1
    28    50    49    2
    29    49    55   am
    30    63    60    1
    31    63    64    1
    32    62    61    2
    33    60    61    1
    34    60    59    1
    35    39    38    2
    36    38    37    1
    37    58    57    2
    38    78    79    1
    39    61    65   am
    40    55    56    1
    41   168   166   ar
    42   168   169   ar
    43    59    57   am
    44    57    56    1
    45   166   164   ar
    46    83    82    1
    47   154   155    1
    48    37    36    1
    49   169   167   ar
    50    65    66    1
    51    79    82    1
    52    79    80    1
    53    82    84    1
    54   164   163    1
    55   164   165   ar
    56   173   172    2
    57    81    80    2
    58   131   132    1
    59   131   128    1
    60    35    34    1
    61   167   165   ar
    62   163   160    1
    63   132   133   ar
    64   132   134   ar
    65   133   135   ar
    66   130   129    2
    67    66    67    1
    68   134   136   ar
    69    36    26   am
    70   172   171    1
    71   135   137   ar
    72    80    85   am
    73   136   137   ar
    74   159   160    1
    75   159   156   am
    76   155   158    1
    77   155   156    1
    78    67    68    2
    79    34    32   ar
    80    34    33   ar
    81   128   129    1
    82   128   127    1
    83   160   161    1
    84   129   138   am
    85    32    30   ar
    86   156   157    2
    87    33    31   ar
    88   145   143    1
    89    26    27    2
    90    26    25    1
    91    85    86    1
    92   175   174    1
    93   161   162    2
    94   171   174    1
    95   171   170    1
    96    30    29   ar
    97   174   176    1
    98    31    29   ar
    99    92    91   ar
   100    89    86    1
   101    89    90    1
   102   127   121   am
   103    86    87    1
   104   138   139    1
   105    20    19    2
   106    29    28    1
   107    25    28    1
   108    25    24    1
   109   139   140    1
   110   139   142    1
   111   143   142    1
   112   143   144    1
   113    22    21    1
   114    90    91    1
   115    91    93   ar
   116   122   121    2
   117   121   120    1
   118   140   141    2
   119    19    24   am
   120    19    18    1
   121   111   110    2
   122    87    88    2
   123    87    94   am
   124    21    18    1
   125    21    23    1
   126     4     3    2
   127   112   109    1
   128   112   113    1
   129   118   117    2
   130    18    17    1
   131    94    95    1
   132   110   109    1
   133   120   119    1
   134   120   123    1
   135   117   119   am
   136   117   116    1
   137   115   116    1
   138   109   108    1
   139   125   124   ar
   140     5     2    1
   141     5     6    1
   142     2     3    1
   143     2     1    1
   144     3     8   am
   145    17    10   am
   146   113   114    1
   147    11    10    2
   148    10     9    1
   149     6     7    1
   150   123   124    1
   151    95    98    1
   152    95    96    1
   153   124   126   ar
   154    98    99    1
   155     8     9    1
   156     1     7    1
   157   108   114    1
   158     9    12    1
   159   103    96   am
   160   103   104    1
   161    96    97    2
   162   106   105    2
   163   100    99    1
   164   100   101    1
   165   107   104    1
   166    12    13    1
   167   104   105    1
   168    13    14    1
   169   101   102    1
   170    14    15   ar
   171    14    16   ar
