@<TRIPOS>MOLECULE
tmp/4eklA00.pdb
 193 184 0 0 0
SMALL
GASTEIGER

@<TRIPOS>ATOM
      1  N         32.2700    8.6010    5.6060 N.3    13  LEU13      -0.1231
      2  CA        31.3340    9.1540    6.6000 C.3    13  LEU13       0.1693
      3  C         31.7500    8.7780    8.0240 C.2    13  LEU13       0.2593
      4  O         31.5550    9.5500    8.9480 O.2    13  LEU13      -0.2718
      5  CB        29.8990    8.6370    6.3370 C.3    13  LEU13       0.0284
      6  CG        29.2960    9.1320    5.0100 C.3    13  LEU13       0.0019
      7  CD1       27.8610    8.5620    4.7690 C.3    13  LEU13       0.0001
      8  CD2       29.3030   10.6850    4.9850 C.3    13  LEU13       0.0001
      9  N         32.3590    7.6050    8.1730 N.am   14  GLY14      -0.1942
     10  CA        32.8230    7.1620    9.4730 C.3    14  GLY14       0.2014
     11  C         33.5070    5.8230    9.3790 C.2    14  GLY14       0.2639
     12  O         33.3930    5.1110    8.3670 O.2    14  GLY14      -0.2714
     13  N         34.2060    5.4890   10.4600 N.am   15  LYS15      -0.1963
     14  CA        34.8330    4.1820   10.6640 C.3    15  LYS15       0.1728
     15  C         34.4550    3.7200   12.0650 C.2    15  LYS15       0.2616
     16  O         34.4170    4.5250   13.0200 O.2    15  LYS15      -0.2715
     17  CB        36.3510    4.2610   10.6040 C.3    15  LYS15       0.0311
     18  CG        36.8980    4.4700    9.2230 C.3    15  LYS15       0.0038
     19  CD        38.4210    4.6210    9.2930 C.3    15  LYS15       0.0206
     20  CE        39.0360    4.7620    7.8990 C.3    15  LYS15       0.1093
     21  NZ        40.5560    4.8760    7.9420 N.3    15  LYS15      -0.1314
     22  N         34.1220    2.4380   12.1590 N.am   16  GLY16      -0.1955
     23  CA        33.7240    1.8150   13.4240 C.3    16  GLY16       0.1869
     24  C         34.7610    0.7540   13.7260 C.2    16  GLY16       0.2309
     25  O         35.8040    0.7060   13.0630 O.2    16  GLY16      -0.2863
     26  N         34.6110   -2.5080   13.2270 N.3    18  PHE18      -0.1227
     27  CA        34.6640   -3.6090   12.2350 C.3    18  PHE18       0.1736
     28  C         34.6450   -3.1970   10.7450 C.2    18  PHE18       0.2596
     29  O         34.6990   -4.0470    9.8600 O.2    18  PHE18      -0.2718
     30  CB        33.5700   -4.6440   12.5580 C.3    18  PHE18       0.0547
     31  CG        33.4420   -4.9350   14.0360 C.ar   18  PHE18      -0.0202
     32  CD1       32.3130   -4.5140   14.7550 C.ar   18  PHE18      -0.0042
     33  CD2       34.4740   -5.5890   14.7230 C.ar   18  PHE18      -0.0042
     34  CE1       32.2020   -4.7610   16.1290 C.ar   18  PHE18      -0.0003
     35  CE2       34.3700   -5.8530   16.1060 C.ar   18  PHE18      -0.0003
     36  CZ        33.2330   -5.4350   16.8080 C.ar   18  PHE18      -0.0000
     37  N         34.5900   -1.9050   10.4500 N.am   19  GLY19      -0.1942
     38  CA        34.5340   -1.5230    9.0520 C.3    19  GLY19       0.2014
     39  C         34.3320   -0.0410    8.8600 C.2    19  GLY19       0.2639
     40  O         34.6320    0.7450    9.7520 O.2    19  GLY19      -0.2714
     41  N         33.8180    0.3240    7.6800 N.am   20  LYS20      -0.1963
     42  CA        33.6650    1.7150    7.3360 C.3    20  LYS20       0.1728
     43  C         32.3590    2.0000    6.5650 C.2    20  LYS20       0.2616
     44  O         31.7620    1.1010    5.9850 O.2    20  LYS20      -0.2715
     45  CB        34.8840    2.2240    6.5490 C.3    20  LYS20       0.0311
     46  CG        34.9350    1.7100    5.1220 C.3    20  LYS20       0.0038
     47  CD        36.3660    1.7740    4.5640 C.3    20  LYS20       0.0206
     48  CE        36.4620    0.9170    3.2990 C.3    20  LYS20       0.1093
     49  NZ        37.6130    1.3100    2.4100 N.3    20  LYS20      -0.1314
     50  N         31.9490    3.2630    6.5970 N.am   21  VAL21      -0.1977
     51  CA        30.7730    3.7380    5.8690 C.3    21  VAL21       0.1596
     52  C         31.1650    4.8810    4.9020 C.2    21  VAL21       0.2287
     53  O         31.7650    5.8930    5.3090 O.2    21  VAL21      -0.2864
     54  CB        29.6260    4.2140    6.8310 C.3    21  VAL21       0.0276
     55  CG1       28.4130    4.6270    5.9970 C.3    21  VAL21       0.0022
     56  CG2       29.2250    3.1050    7.8400 C.3    21  VAL21       0.0022
     57  N         24.3620    5.5400    1.9400 N.3    34  ALA34      -0.1245
     58  CA        25.5320    5.2110    2.7970 C.3    34  ALA34       0.1562
     59  C         25.8380    3.7390    2.6720 C.2    34  ALA34       0.2260
     60  O         25.0110    2.8710    3.0450 O.2    34  ALA34      -0.2867
     61  CB        25.3310    5.5870    4.2540 C.3    34  ALA34       0.0290
     62  N         27.8020    0.7430    4.0170 N.3    36  LYS36      -0.1245
     63  CA        28.6140    0.1360    5.0660 C.3    36  LYS36       0.1561
     64  C         29.4130   -1.0510    4.4910 C.2    36  LYS36       0.2260
     65  O         28.8550   -1.9470    3.8650 O.2    36  LYS36      -0.2867
     66  CB        27.7300   -0.2680    6.2570 C.3    36  LYS36       0.0271
     67  CG        28.4360   -1.0700    7.3470 C.3    36  LYS36       0.0035
     68  CD        27.4760   -1.0960    8.5240 C.3    36  LYS36       0.0206
     69  CE        27.7270   -2.2120    9.4370 C.3    36  LYS36       0.1093
     70  NZ        26.6750   -2.0410   10.5100 N.3    36  LYS36      -0.1314
     71  N         32.1940   -4.0240    5.2200 N.3    38  LEU38      -0.1245
     72  CA        32.9370   -4.8720    6.1650 C.3    38  LEU38       0.1561
     73  C         33.8840   -5.8270    5.4430 C.2    38  LEU38       0.2260
     74  O         33.5080   -6.4080    4.4030 O.2    38  LEU38      -0.2867
     75  CB        31.9690   -5.6980    7.0340 C.3    38  LEU38       0.0270
     76  CG        30.7780   -4.9340    7.6250 C.3    38  LEU38       0.0019
     77  CD1       29.8590   -5.8830    8.3520 C.3    38  LEU38       0.0001
     78  CD2       31.2840   -3.8270    8.5830 C.3    38  LEU38       0.0001
     79  N         16.6820    2.6450    9.9610 N.3    68  THR68      -0.1218
     80  CA        17.4340    2.8230    8.6970 C.3    68  THR68       0.1862
     81  C         17.0520    1.7340    7.6960 C.2    68  THR68       0.2287
     82  O         17.0860    0.5570    8.0350 O.2    68  THR68      -0.2866
     83  CB        18.9660    2.7280    8.8900 C.3    68  THR68       0.1770
     84  OG1       19.3200    1.4090    9.2990 O.3    68  THR68      -0.2211
     85  CG2       19.4350    3.6670    9.9720 C.3    68  THR68       0.0375
     86  N         22.5340    1.4070    2.3640 N.3    84  MET84      -0.1230
     87  CA        21.4020    1.9170    3.1030 C.3    84  MET84       0.1702
     88  C         21.0920    3.3620    2.7790 C.2    84  MET84       0.2592
     89  O         21.9260    4.0470    2.1970 O.2    84  MET84      -0.2718
     90  CB        21.7220    1.7570    4.5810 C.3    84  MET84       0.0401
     91  CG        21.5860    0.2030    4.9730 C.3    84  MET84       0.0596
     92  SD        22.4930    0.1030    6.4000 S.3    84  MET84      -0.1393
     93  CE        24.0540    0.8240    5.8360 C.3    84  MET84       0.0692
     94  N         19.9170    3.8350    3.1780 N.am   85  GLU85      -0.1966
     95  CA        19.6000    5.2470    2.9990 C.3    85  GLU85       0.1733
     96  C         20.6650    6.0290    3.7580 C.2    85  GLU85       0.2616
     97  O         21.1250    5.5860    4.8140 O.2    85  GLU85      -0.2715
     98  CB        18.1800    5.6480    3.4900 C.3    85  GLU85       0.0429
     99  CG        17.9850    5.5410    5.0130 C.3    85  GLU85       0.1163
    100  CD        16.5210    5.7560    5.4620 C.2    85  GLU85       0.3649
    101  OE1       15.9120    6.7800    5.0130 O.co2  85  GLU85      -0.2457
    102  OE2       16.0010    4.8890    6.2210 O.co2  85  GLU85      -0.2457
    103  N         21.0300    7.1690    3.1830 N.am   86  TYR86      -0.1960
    104  CA        22.0030    8.0790    3.7490 C.3    86  TYR86       0.1771
    105  C         21.2930    8.9750    4.7890 C.2    86  TYR86       0.2619
    106  O         20.3740    9.7110    4.4450 O.2    86  TYR86      -0.2715
    107  CB        22.6570    8.8720    2.5800 C.3    86  TYR86       0.0574
    108  CG        23.5240   10.0570    2.9870 C.ar   86  TYR86      -0.0198
    109  CD1       24.3840    9.9730    4.0800 C.ar   86  TYR86      -0.0009
    110  CD2       23.4800   11.2650    2.2500 C.ar   86  TYR86      -0.0009
    111  CE1       25.1920   11.1170    4.4720 C.ar   86  TYR86       0.0417
    112  CE2       24.2860   12.3730    2.6090 C.ar   86  TYR86       0.0417
    113  CZ        25.1500   12.2840    3.7110 C.ar   86  TYR86       0.1957
    114  OH        25.9500   13.3640    4.1080 O.3    86  TYR86      -0.2866
    115  N         21.7080    8.9290    6.0640 N.am   87  ALA87      -0.1977
    116  CA        21.0800    9.8040    7.0840 C.3    87  ALA87       0.1597
    117  C         21.8560   11.1220    7.1160 C.2    87  ALA87       0.2287
    118  O         22.8900   11.2200    7.8050 O.2    87  ALA87      -0.2864
    119  CB        21.0450    9.1130    8.5000 C.3    87  ALA87       0.0319
    120  N         25.0040   11.8000   13.1350 N.3    91  GLU91      -0.1245
    121  CA        24.7490   11.1590   14.4140 C.3    91  GLU91       0.1567
    122  C         24.2110   12.2280   15.3820 C.2    91  GLU91       0.2260
    123  O         24.6310   13.3860   15.2990 O.2    91  GLU91      -0.2867
    124  CB        26.0950   10.6500   14.9570 C.3    91  GLU91       0.0388
    125  CG        26.7050    9.4920   14.2190 C.3    91  GLU91       0.1160
    126  CD        28.1340    9.1220   14.7750 C.2    91  GLU91       0.3649
    127  OE1       28.7960    9.9560   15.4080 O.co2  91  GLU91      -0.2457
    128  OE2       28.5680    7.9900   14.5860 O.co2  91  GLU91      -0.2457
    129  N         24.8120   12.5960   18.4140 N.3    93  PHE93      -0.1241
    130  CA        25.9420   13.0890   19.2020 C.3    93  PHE93       0.1605
    131  C         26.5720   14.3850   18.6420 C.2    93  PHE93       0.2264
    132  O         26.9270   15.3000   19.3990 O.2    93  PHE93      -0.2867
    133  CB        27.0170   11.9690   19.3660 C.3    93  PHE93       0.0534
    134  CG        28.2620   12.4170   20.1600 C.ar   93  PHE93      -0.0203
    135  CD1       28.2370   12.4790   21.5540 C.ar   93  PHE93      -0.0042
    136  CD2       29.4380   12.7880   19.4870 C.ar   93  PHE93      -0.0042
    137  CE1       29.3550   12.9110   22.2840 C.ar   93  PHE93      -0.0003
    138  CE2       30.5960   13.2250   20.1990 C.ar   93  PHE93      -0.0003
    139  CZ        30.5520   13.2840   21.6020 C.ar   93  PHE93      -0.0000
    140  N         25.1400    6.8940   20.2570 N.3   135  GLU135     -0.1245
    141  CA        25.8610    6.5810   19.0340 C.3   135  GLU135      0.1567
    142  C         24.9940    5.8840   17.9820 C.2   135  GLU135      0.2260
    143  O         25.2530    6.0320   16.8160 O.2   135  GLU135     -0.2867
    144  CB        27.0750    5.6880   19.3270 C.3   135  GLU135      0.0388
    145  CG        28.2120    5.9420   18.3880 C.3   135  GLU135      0.1160
    146  CD        29.1330    4.7410   18.2520 C.2   135  GLU135      0.3649
    147  OE1       29.2600    3.9500   19.2560 O.co2 135  GLU135     -0.2457
    148  OE2       29.6840    4.5950   17.1220 O.co2 135  GLU135     -0.2457
    149  N         20.7450    8.5520   14.5820 N.3   138  MET138     -0.1245
    150  CA        21.0700    9.5250   13.5510 C.3   138  MET138      0.1570
    151  C         19.8120   10.2990   13.2230 C.2   138  MET138      0.2261
    152  O         18.7260    9.9920   13.7340 O.2   138  MET138     -0.2867
    153  CB        21.6140    8.8220   12.3130 C.3   138  MET138      0.0387
    154  CG        22.9190    8.0210   12.6830 C.3   138  MET138      0.0595
    155  SD        23.7380    7.4610   11.2660 S.3   138  MET138     -0.1393
    156  CE        24.4160    9.0330   10.6600 C.3   138  MET138      0.0692
    157  N         20.1960    2.9710   13.9380 N.3   148  THR148     -0.1203
    158  CA        21.0820    2.3060   13.0100 C.3   148  THR148      0.1994
    159  C         21.8250    1.2100   13.8190 C.2   148  THR148      0.2617
    160  O         21.9710    1.3100   15.0390 O.2   148  THR148     -0.2717
    161  CB        22.1190    3.3030   12.3760 C.3   148  THR148      0.1784
    162  OG1       22.9690    2.5450   11.4860 O.3   148  THR148     -0.2211
    163  CG2       22.9940    3.9040   13.4190 C.3   148  THR148      0.0376
    164  N         22.3090    0.1840   13.1270 N.am  149  ASP149     -0.1973
    165  CA        23.0930   -0.8640   13.7530 C.3   149  ASP149      0.1709
    166  C         22.2270   -1.8630   14.5390 C.2   149  ASP149      0.2293
    167  O         21.7950   -1.6070   15.6600 O.2   149  ASP149     -0.2864
    168  CB        24.2830   -0.3370   14.5970 C.3   149  ASP149      0.1436
    169  CG        25.3560   -1.4000   14.7680 C.2   149  ASP149      0.3671
    170  OD1       24.9980   -2.5950   14.9900 O.co2 149  ASP149     -0.2456
    171  OD2       26.5450   -1.0510   14.6060 O.co2 149  ASP149     -0.2456
    172  N         28.8310   15.4360    9.5900 N.3   294  PHE294     -0.1241
    173  CA        29.8350   14.4100    9.8170 C.3   294  PHE294      0.1605
    174  C         31.2080   15.0390   10.1380 C.2   294  PHE294      0.2264
    175  O         31.5760   16.1000    9.6150 O.2   294  PHE294     -0.2867
    176  CB        29.9280   13.4840    8.6250 C.3   294  PHE294      0.0534
    177  CG        28.6320   12.7890    8.3470 C.ar  294  PHE294     -0.0203
    178  CD1       27.5700   13.4580    7.6590 C.ar  294  PHE294     -0.0042
    179  CD2       28.4080   11.4940    8.8610 C.ar  294  PHE294     -0.0042
    180  CE1       26.3400   12.7940    7.4590 C.ar  294  PHE294     -0.0003
    181  CE2       27.1700   10.8400    8.6370 C.ar  294  PHE294     -0.0003
    182  CZ        26.1570   11.5020    7.9310 C.ar  294  PHE294     -0.0000
    183  N         36.9270   12.1860    9.4830 N.3   298  PHE298     -0.1241
    184  CA        36.5560   11.1550    8.5180 C.3   298  PHE298      0.1605
    185  C         36.3990   11.6620    7.1020 C.2   298  PHE298      0.2264
    186  O         36.9490   11.0580    6.1910 O.2   298  PHE298     -0.2867
    187  CB        35.2680   10.4440    8.9580 C.3   298  PHE298      0.0534
    188  CG        35.4250    9.6700   10.2170 C.ar  298  PHE298     -0.0203
    189  CD1       34.5560    9.8810   11.3030 C.ar  298  PHE298     -0.0042
    190  CD2       36.4530    8.7410   10.3450 C.ar  298  PHE298     -0.0042
    191  CE1       34.7230    9.1580   12.4910 C.ar  298  PHE298     -0.0003
    192  CE2       36.6050    8.0040   11.5310 C.ar  298  PHE298     -0.0003
    193  CZ        35.7440    8.2080   12.5890 C.ar  298  PHE298     -0.0000
@<TRIPOS>BOND
     1    57    58    1
     2    89    88    2
     3   110   112   ar
     4   110   108   ar
     5    86    87    1
     6    49    48    1
     7   107   108    1
     8   107   104    1
     9   112   113   ar
    10    59    58    1
    11    59    60    2
    12    88    87    1
    13    88    94   am
    14    58    61    1
    15   108   109   ar
    16    95    94    1
    17    95    98    1
    18    95    96    1
    19    87    90    1
    20   103   104    1
    21   103    96   am
    22    48    47    1
    23    98    99    1
    24   113   114    1
    25   113   111   ar
    26   104   105    1
    27    96    97    2
    28    65    64    2
    29    62    63    1
    30   109   111   ar
    31    74    73    2
    32   106   105    2
    33    64    63    1
    34    47    46    1
    35    90    91    1
    36     7     6    1
    37   105   115   am
    38    52    53    2
    39    52    51    1
    40    91    92    1
    41     8     6    1
    42     6     5    1
    43    99   100    1
    44   101   100   ar
    45    63    66    1
    46    46    45    1
    47    71    72    1
    48    73    72    1
    49   100   102   ar
    50     1     2    1
    51    93    92    1
    52    51    50    1
    53    51    54    1
    54    44    43    2
    55    55    54    1
    56   115   116    1
    57    72    75    1
    58   186   185    2
    59    66    67    1
    60     5     2    1
    61    45    42    1
    62    43    50   am
    63    43    42    1
    64     2     3    1
    65    54    56    1
    66    75    76    1
    67   116   117    1
    68   116   119    1
    69   185   184    1
    70   117   118    2
    71    42    41    1
    72    67    68    1
    73   180   178   ar
    74   180   182   ar
    75    76    77    1
    76    76    78    1
    77   178   177   ar
    78    41    39   am
    79    81    82    2
    80    81    80    1
    81    20    21    1
    82    20    19    1
    83   182   181   ar
    84     3     9   am
    85     3     4    2
    86     9    10    1
    87   177   176    1
    88   177   179   ar
    89    12    11    2
    90   184   187    1
    91   184   183    1
    92    68    69    1
    93   176   173    1
    94   181   179   ar
    95    80    83    1
    96    80    79    1
    97    39    38    1
    98    39    40    2
    99    83    84    1
   100    83    85    1
   101   187   188    1
   102    38    37    1
   103    18    19    1
   104    18    17    1
   105    11    10    1
   106    11    13   am
   107    69    70    1
   108   172   173    1
   109   175   174    2
   110   173   174    1
   111    29    28    2
   112   188   190   ar
   113   188   189   ar
   114   190   192   ar
   115    37    28   am
   116    13    14    1
   117    17    14    1
   118   156   155    1
   119    14    15    1
   120    28    27    1
   121   155   154    1
   122   189   191   ar
   123   162   161    1
   124   192   193   ar
   125    15    22   am
   126    15    16    2
   127    22    23    1
   128    27    30    1
   129    27    26    1
   130   153   154    1
   131   153   150    1
   132   161   158    1
   133   161   163    1
   134   191   193   ar
   135    30    31    1
   136   158   159    1
   137   158   157    1
   138    25    24    2
   139   164   165    1
   140   164   159   am
   141   120   121    1
   142   151   150    1
   143   151   152    2
   144    23    24    1
   145   150   149    1
   146   165   166    1
   147   165   168    1
   148   159   160    2
   149    31    33   ar
   150    31    32   ar
   151   125   126    1
   152   125   124    1
   153   121   124    1
   154   121   122    1
   155   166   167    2
   156   128   126   ar
   157   168   169    1
   158   171   169   ar
   159    33    35   ar
   160    32    34   ar
   161   169   170   ar
   162   126   127   ar
   163   123   122    2
   164    35    36   ar
   165    34    36   ar
   166   143   142    2
   167   148   146   ar
   168   142   141    1
   169   146   145    1
   170   146   147   ar
   171   145   144    1
   172   129   130    1
   173   131   130    1
   174   131   132    2
   175   141   144    1
   176   141   140    1
   177   130   133    1
   178   133   134    1
   179   136   134   ar
   180   136   138   ar
   181   134   135   ar
   182   138   139   ar
   183   135   137   ar
   184   139   137   ar
