@<TRIPOS>MOLECULE
tmp/4ekqB00.pdb
 125 117 0 0 0
SMALL
GASTEIGER

@<TRIPOS>ATOM
      1  N         20.5950   25.7420   -4.6220 N.3    88  ILE88      -0.1245
      2  CA        21.1620   26.5670   -3.5390 C.3    88  ILE88       0.1561
      3  C         20.1800   27.7170   -3.1560 C.2    88  ILE88       0.2260
      4  O         19.9350   27.9170   -1.9600 O.2    88  ILE88      -0.2867
      5  CB        22.4850   27.1440   -4.0500 C.3    88  ILE88       0.0252
      6  CG1       23.5790   26.0620   -4.0170 C.3    88  ILE88       0.0019
      7  CG2       22.9540   28.3070   -3.1070 C.3    88  ILE88       0.0019
      8  CD1       24.8340   26.5560   -4.8750 C.3    88  ILE88       0.0001
      9  N         21.5630   26.9950    2.6970 N.3    94  LEU94      -0.1245
     10  CA        22.6220   27.3180    1.7470 C.3    94  LEU94       0.1561
     11  C         22.5200   28.7830    1.3160 C.2    94  LEU94       0.2260
     12  O         23.5740   29.4380    1.1720 O.2    94  LEU94      -0.2867
     13  CB        22.5740   26.4070    0.5170 C.3    94  LEU94       0.0270
     14  CG        22.7740   24.9240    0.8150 C.3    94  LEU94       0.0019
     15  CD1       22.7230   24.1740   -0.5190 C.3    94  LEU94       0.0001
     16  CD2       24.1070   24.7230    1.6090 C.3    94  LEU94       0.0001
     17  N         24.5440   31.5470    3.1920 N.3    97  VAL97      -0.1231
     18  CA        25.9960   31.3400    3.0710 C.3    97  VAL97       0.1692
     19  C         26.4230   31.7220    1.6680 C.2    97  VAL97       0.2592
     20  O         27.3700   32.5120    1.4690 O.2    97  VAL97      -0.2718
     21  CB        26.3690   29.8590    3.3510 C.3    97  VAL97       0.0266
     22  CG1       27.8720   29.6190    3.2050 C.3    97  VAL97       0.0020
     23  CG2       25.9460   29.4940    4.7810 C.3    97  VAL97       0.0020
     24  N         25.7240   31.2150    0.6580 N.am   98  TYR98      -0.1976
     25  CA        26.0170   31.5840   -0.7260 C.3    98  TYR98       0.1639
     26  C         26.0620   33.0930   -0.9800 C.2    98  TYR98       0.2290
     27  O         27.0140   33.6210   -1.5920 O.2    98  TYR98      -0.2864
     28  CB        24.9510   30.9650   -1.6300 C.3    98  TYR98       0.0560
     29  CG        25.2240   31.1990   -3.1140 C.ar   98  TYR98      -0.0198
     30  CD1       26.0430   30.3500   -3.8310 C.ar   98  TYR98      -0.0009
     31  CD2       24.6210   32.2470   -3.7690 C.ar   98  TYR98      -0.0009
     32  CE1       26.2270   30.5260   -5.2270 C.ar   98  TYR98       0.0417
     33  CE2       24.8320   32.4670   -5.1480 C.ar   98  TYR98       0.0417
     34  CZ        25.6670   31.5860   -5.8430 C.ar   98  TYR98       0.1957
     35  OH        25.8950   31.8150   -7.1520 O.3    98  TYR98      -0.2866
     36  N         29.2190   34.8260    0.1180 N.3   101  LEU101     -0.1245
     37  CA        30.4440   34.4980   -0.6120 C.3   101  LEU101      0.1561
     38  C         30.7120   35.4010   -1.8010 C.2   101  LEU101      0.2260
     39  O         29.8070   35.9980   -2.4100 O.2   101  LEU101     -0.2867
     40  CB        30.3500   33.0600   -1.1580 C.3   101  LEU101      0.0270
     41  CG        30.2080   31.9440   -0.1330 C.3   101  LEU101      0.0019
     42  CD1       30.0550   30.6170   -0.8840 C.3   101  LEU101      0.0001
     43  CD2       31.4270   31.8750    0.7710 C.3   101  LEU101      0.0001
     44  N         30.7470   26.7420   -4.6650 N.3   109  ALA109     -0.1245
     45  CA        29.4770   26.2680   -4.0760 C.3   109  ALA109      0.1562
     46  C         28.6180   25.5920   -5.1290 C.2   109  ALA109      0.2260
     47  O         28.0860   24.5000   -4.8890 O.2   109  ALA109     -0.2867
     48  CB        28.7160   27.5290   -3.5000 C.3   109  ALA109      0.0290
     49  N         30.1970   22.1900   -6.0370 N.3   112  HIS112     -0.1226
     50  CA        29.9130   21.1110   -5.0460 C.3   112  HIS112      0.1752
     51  C         28.4890   20.6250   -5.1580 C.2   112  HIS112      0.2595
     52  O         28.2230   19.4300   -5.1210 O.2   112  HIS112     -0.2718
     53  CB        30.2360   21.6720   -3.6650 C.3   112  HIS112      0.0759
     54  CG        30.1790   20.6620   -2.5790 C.ar  112  HIS112      0.0818
     55  ND1       30.2070   21.0370   -1.2450 N.ar  112  HIS112     -0.2268
     56  CD2       30.0390   19.3180   -2.6070 C.ar  112  HIS112      0.1154
     57  CE1       30.1580   19.9440   -0.5020 C.ar  112  HIS112      0.1986
     58  NE2       30.0650   18.8900   -1.3040 N.ar  112  HIS112     -0.2212
     59  N         27.5060   21.5510   -5.2510 N.am  113  VAL113     -0.1980
     60  CA        26.1040   21.1370   -5.3340 C.3   113  VAL113      0.1595
     61  C         25.8280   20.3820   -6.6230 C.2   113  VAL113      0.2287
     62  O         25.0330   19.4010   -6.6550 O.2   113  VAL113     -0.2864
     63  CB        25.1730   22.3640   -5.1490 C.3   113  VAL113      0.0276
     64  CG1       23.7390   22.0180   -5.4550 C.3   113  VAL113      0.0022
     65  CG2       25.2880   22.8550   -3.6850 C.3   113  VAL113      0.0022
     66  N         25.0530   18.4180    0.7230 N.3   121  VAL121     -0.1245
     67  CA        25.7210   19.6830    1.0000 C.3   121  VAL121      0.1561
     68  C         25.1880   20.4370    2.2440 C.2   121  VAL121      0.2260
     69  O         25.9140   20.8920    3.0680 O.2   121  VAL121     -0.2867
     70  CB        25.7570   20.6020   -0.2540 C.3   121  VAL121      0.0252
     71  CG1       26.3290   21.9030    0.1100 C.3   121  VAL121      0.0019
     72  CG2       26.5800   19.8830   -1.4300 C.3   121  VAL121      0.0019
     73  N         26.1700   20.0740    6.1370 N.3   124  PHE124     -0.1241
     74  CA        27.5410   20.3170    6.6410 C.3   124  PHE124      0.1605
     75  C         27.5740   21.5660    7.4530 C.2   124  PHE124      0.2264
     76  O         28.0860   22.6110    7.0250 O.2   124  PHE124     -0.2867
     77  CB        28.5050   20.5380    5.4960 C.3   124  PHE124      0.0534
     78  CG        28.8030   19.3090    4.7130 C.ar  124  PHE124     -0.0203
     79  CD1       28.2530   18.0760    5.0600 C.ar  124  PHE124     -0.0042
     80  CD2       29.6420   19.3830    3.6460 C.ar  124  PHE124     -0.0042
     81  CE1       28.5510   16.9230    4.2810 C.ar  124  PHE124     -0.0003
     82  CE2       29.9550   18.2550    2.8710 C.ar  124  PHE124     -0.0003
     83  CZ        29.4160   17.0380    3.1830 C.ar  124  PHE124     -0.0000
     84  N         30.9950   23.3890    8.1770 N.3   127  VAL127     -0.1231
     85  CA        31.5560   24.0390    6.9660 C.3   127  VAL127      0.1692
     86  C         30.7840   25.3200    6.6200 C.2   127  VAL127      0.2591
     87  O         31.3610   26.3470    6.3080 O.2   127  VAL127     -0.2718
     88  CB        31.5100   23.1470    5.7110 C.3   127  VAL127      0.0266
     89  CG1       31.8050   23.9500    4.4280 C.3   127  VAL127      0.0020
     90  CG2       32.5120   21.9980    5.8400 C.3   127  VAL127      0.0020
     91  N         29.4440   25.2460    6.6930 N.am  128  LEU128     -0.1980
     92  CA        28.6390   26.4260    6.3900 C.3   128  LEU128      0.1596
     93  C         28.8560   27.5510    7.3320 C.2   128  LEU128      0.2287
     94  O         29.0260   28.6810    6.8930 O.2   128  LEU128     -0.2864
     95  CB        27.1670   26.0160    6.3410 C.3   128  LEU128      0.0297
     96  CG        26.8780   25.0550    5.1860 C.3   128  LEU128      0.0022
     97  CD1       25.3790   24.6350    5.4150 C.3   128  LEU128      0.0001
     98  CD2       27.0310   25.5040    3.7880 C.3   128  LEU128      0.0001
     99  N         32.3560   29.0530    6.5660 N.3   131  LEU131     -0.1245
    100  CA        32.3580   29.9430    5.3890 C.3   131  LEU131      0.1561
    101  C         31.6440   31.2450    5.6690 C.2   131  LEU131      0.2260
    102  O         32.1240   32.2840    5.2370 O.2   131  LEU131     -0.2867
    103  CB        31.6520   29.2320    4.1990 C.3   131  LEU131      0.0270
    104  CG        32.4280   28.0350    3.6210 C.3   131  LEU131      0.0019
    105  CD1       31.5780   27.3570    2.5630 C.3   131  LEU131      0.0001
    106  CD2       33.7750   28.5420    3.0150 C.3   131  LEU131      0.0001
    107  N         35.8120   20.2670    4.7530 N.3   143  LEU143     -0.1245
    108  CA        35.3770   19.6520    3.5160 C.3   143  LEU143      0.1561
    109  C         36.2390   18.4360    3.1340 C.2   143  LEU143      0.2260
    110  O         35.7280   17.4480    2.5800 O.2   143  LEU143     -0.2867
    111  CB        35.4120   20.6890    2.3780 C.3   143  LEU143      0.0270
    112  CG        34.2970   21.6990    2.3470 C.3   143  LEU143      0.0019
    113  CD1       34.6300   22.8180    1.3530 C.3   143  LEU143      0.0001
    114  CD2       32.9450   20.9720    1.9000 C.3   143  LEU143      0.0001
    115  N         37.6290   27.0670   -2.3790 N.3   163  PHE163     -0.1241
    116  CA        37.0270   27.5660   -1.1510 C.3   163  PHE163      0.1605
    117  C         38.0840   28.1750   -0.2150 C.2   163  PHE163      0.2264
    118  O         37.7880   29.1620    0.5250 O.2   163  PHE163     -0.2867
    119  CB        36.2710   26.4570   -0.4200 C.3   163  PHE163      0.0534
    120  CG        34.8780   26.2710   -0.9200 C.ar  163  PHE163     -0.0203
    121  CD1       33.8950   27.2850   -0.8000 C.ar  163  PHE163     -0.0042
    122  CD2       34.5010   25.0470   -1.3790 C.ar  163  PHE163     -0.0042
    123  CE1       32.5740   27.0700   -1.2150 C.ar  163  PHE163     -0.0003
    124  CE2       33.2010   24.7960   -1.7710 C.ar  163  PHE163     -0.0003
    125  CZ        32.2040   25.7730   -1.6850 C.ar  163  PHE163     -0.0000
@<TRIPOS>BOND
     1    35    34    1
     2    62    61    2
     3    61    60    1
     4    49    50    1
     5    34    32   ar
     6    34    33   ar
     7    64    63    1
     8    60    59    1
     9    60    63    1
    10    59    51   am
    11    32    30   ar
    12    51    52    2
    13    51    50    1
    14    63    65    1
    15    33    31   ar
    16    46    47    2
    17    46    45    1
    18    50    53    1
    19     8     6    1
    20    44    45    1
    21     1     2    1
    22    45    48    1
    23     5     6    1
    24     5     2    1
    25     5     7    1
    26    30    29   ar
    27    31    29   ar
    28    53    54    1
    29     2     3    1
    30     3     4    2
    31    29    28    1
    32    56    54   ar
    33    56    58   ar
    34    54    55   ar
    35    39    38    2
    36   115   116    1
    37    38    37    1
    38   124   125   ar
    39   124   122   ar
    40   125   123   ar
    41    28    25    1
    42    27    26    2
    43    72    70    1
    44   122   120   ar
    45    58    57   ar
    46    55    57   ar
    47   123   121   ar
    48    40    37    1
    49    40    41    1
    50   116   119    1
    51   116   117    1
    52    26    25    1
    53   120   121   ar
    54   120   119    1
    55    42    41    1
    56    25    24    1
    57    37    36    1
    58    15    14    1
    59    70    71    1
    60    70    67    1
    61   117   118    2
    62    41    43    1
    63    13    14    1
    64    13    10    1
    65    24    19   am
    66    66    67    1
    67    14    16    1
    68    67    68    1
    69    12    11    2
    70    11    10    1
    71   113   112    1
    72    20    19    2
    73    19    18    1
    74    10     9    1
    75   114   112    1
    76    68    69    2
    77   112   111    1
    78   111   108    1
    79   105   104    1
    80   110   109    2
    81    82    83   ar
    82    82    80   ar
    83   106   104    1
    84    18    17    1
    85    18    21    1
    86   109   108    1
    87    83    81   ar
    88    22    21    1
    89    21    23    1
    90   108   107    1
    91   104   103    1
    92    80    78   ar
    93    98    96    1
    94   103   100    1
    95    81    79   ar
    96    89    88    1
    97    78    79   ar
    98    78    77    1
    99    96    97    1
   100    96    95    1
   101   102   101    2
   102   100   101    1
   103   100    99    1
   104    77    74    1
   105    88    90    1
   106    88    85    1
   107    73    74    1
   108    87    86    2
   109    95    92    1
   110    92    91    1
   111    92    93    1
   112    86    91   am
   113    86    85    1
   114    74    75    1
   115    94    93    2
   116    85    84    1
   117    76    75    2
