@<TRIPOS>MOLECULE
tmp/4ekrA00.pdb
 125 117 0 0 0
SMALL
GASTEIGER

@<TRIPOS>ATOM
      1  N         -3.6420    8.9340    5.6400 N.3    89  ILE89      -0.1245
      2  CA        -3.1020    8.1490    4.5370 C.3    89  ILE89       0.1561
      3  C         -4.0480    7.0290    4.1150 C.2    89  ILE89       0.2260
      4  O         -4.3330    6.8440    2.9280 O.2    89  ILE89      -0.2867
      5  CB        -1.7250    7.5390    4.9380 C.3    89  ILE89       0.0252
      6  CG1       -0.7080    8.6660    5.0510 C.3    89  ILE89       0.0019
      7  CG2       -1.2410    6.4300    3.9750 C.3    89  ILE89       0.0019
      8  CD1        0.6190    8.2400    5.6780 C.3    89  ILE89       0.0001
      9  N         -2.8640    8.0990   -1.6990 N.3    95  LEU95      -0.1245
     10  CA        -1.7720    7.7600   -0.8050 C.3    95  LEU95       0.1561
     11  C         -1.8260    6.3120   -0.3610 C.2    95  LEU95       0.2260
     12  O         -0.7510    5.6890   -0.2470 O.2    95  LEU95      -0.2867
     13  CB        -1.8560    8.6610    0.4340 C.3    95  LEU95       0.0270
     14  CG        -1.6410   10.1580    0.2010 C.3    95  LEU95       0.0019
     15  CD1       -1.6380   10.8370    1.5800 C.3    95  LEU95       0.0001
     16  CD2       -0.3820   10.4940   -0.6380 C.3    95  LEU95       0.0001
     17  N          0.2270    3.7190   -2.4850 N.3    98  VAL98      -0.1231
     18  CA         1.6590    3.9950   -2.4230 C.3    98  VAL98       0.1692
     19  C          2.1770    3.5330   -1.0750 C.2    98  VAL98       0.2588
     20  O          3.2250    2.8580   -1.0000 O.2    98  VAL98      -0.2718
     21  CB         1.9630    5.4890   -2.6670 C.3    98  VAL98       0.0266
     22  CG1        3.4920    5.7180   -2.5710 C.3    98  VAL98       0.0020
     23  CG2        1.4990    5.8400   -4.0430 C.3    98  VAL98       0.0020
     24  N          1.4820    3.8810   -0.0020 N.am   99  TYR99      -0.2029
     25  CA         1.9010    3.4830    1.3260 C.3    99  TYR99       0.1325
     26  C          1.9800    1.9640    1.4530 C.3    99  TYR99       0.2039
     27  O          2.9860    1.3980    2.0260 O.3    99  TYR99      -0.2185
     28  CB         0.8950    4.0100    2.3370 C.3    99  TYR99       0.0507
     29  CG         1.1740    3.6520    3.7610 C.ar   99  TYR99      -0.0202
     30  CD1        2.0010    4.4700    4.5260 C.ar   99  TYR99      -0.0009
     31  CD2        0.5760    2.5580    4.3600 C.ar   99  TYR99      -0.0009
     32  CE1        2.2350    4.1840    5.8570 C.ar   99  TYR99       0.0417
     33  CE2        0.8590    2.2490    5.7160 C.ar   99  TYR99       0.0417
     34  CZ         1.6710    3.0990    6.4260 C.ar   99  TYR99       0.1957
     35  OH         1.9430    2.8190    7.7480 O.3    99  TYR99      -0.2866
     36  N          5.0810    0.2880    0.2570 N.3   102  LEU102     -0.1245
     37  CA         6.3640    0.6180    0.9020 C.3   102  LEU102      0.1561
     38  C          6.6930   -0.3850    1.9990 C.2   102  LEU102      0.2260
     39  O          5.8100   -1.0290    2.5930 O.2   102  LEU102     -0.2867
     40  CB         6.2960    1.9930    1.5470 C.3   102  LEU102      0.0270
     41  CG         6.1390    3.1320    0.5370 C.3   102  LEU102      0.0019
     42  CD1        5.8820    4.4450    1.3640 C.3   102  LEU102      0.0001
     43  CD2        7.3500    3.3250   -0.3470 C.3   102  LEU102      0.0001
     44  N          6.6180    7.9750    5.4000 N.3   110  ALA110     -0.1245
     45  CA         5.3760    8.4380    4.8560 C.3   110  ALA110      0.1562
     46  C          4.4880    9.0280    5.9430 C.2   110  ALA110      0.2260
     47  O          3.8660   10.0850    5.7580 O.2   110  ALA110     -0.2867
     48  CB         4.6570    7.2150    4.1870 C.3   110  ALA110      0.0290
     49  N          5.9920   12.3760    6.8760 N.3   113  HIS113     -0.1226
     50  CA         5.7450   13.3330    5.8450 C.3   113  HIS113      0.1752
     51  C          4.3440   13.9240    5.9250 C.2   113  HIS113      0.2595
     52  O          4.1880   15.1340    5.8770 O.2   113  HIS113     -0.2718
     53  CB         6.0150   12.6090    4.5290 C.3   113  HIS113      0.0759
     54  CG         6.0750   13.4820    3.3270 C.ar  113  HIS113      0.0818
     55  ND1        5.7910   12.9790    2.0710 N.ar  113  HIS113     -0.2268
     56  CD2        6.4570   14.7650    3.1540 C.ar  113  HIS113      0.1154
     57  CE1        5.9510   13.9400    1.1770 C.ar  113  HIS113      0.1986
     58  NE2        6.3260   15.0430    1.8060 N.ar  113  HIS113     -0.2212
     59  N          3.3620   13.0410    6.0890 N.am  114  VAL114     -0.1980
     60  CA         1.9720   13.4910    6.2540 C.3   114  VAL114      0.1595
     61  C          1.7440   14.2590    7.5710 C.2   114  VAL114      0.2287
     62  O          1.0350   15.2840    7.5750 O.2   114  VAL114     -0.2864
     63  CB         1.0220   12.3100    6.0460 C.3   114  VAL114      0.0276
     64  CG1       -0.3620   12.6870    6.4870 C.3   114  VAL114      0.0022
     65  CG2        1.0630   11.9090    4.5570 C.3   114  VAL114      0.0022
     66  N          0.8750   16.2990    0.5730 N.3   122  VAL122     -0.1245
     67  CA         1.5930   15.1130    0.1160 C.3   122  VAL122      0.1561
     68  C          0.9810   14.5030   -1.1270 C.2   122  VAL122      0.2260
     69  O          1.6800   14.1180   -2.0490 O.2   122  VAL122     -0.2867
     70  CB         1.7090   14.0560    1.2510 C.3   122  VAL122      0.0252
     71  CG1        2.3560   12.7630    0.7140 C.3   122  VAL122      0.0019
     72  CG2        2.5500   14.6220    2.4220 C.3   122  VAL122      0.0019
     73  N          2.0110   15.6380   -4.5570 N.3   125  PHE125     -0.1241
     74  CA         3.3580   15.3220   -5.0770 C.3   125  PHE125      0.1605
     75  C          3.2820   14.1570   -6.1030 C.2   125  PHE125      0.2264
     76  O          3.7620   13.0520   -5.8570 O.2   125  PHE125     -0.2867
     77  CB         4.3190   14.9120   -3.9220 C.3   125  PHE125      0.0534
     78  CG         4.8870   16.0680   -3.1110 C.ar  125  PHE125     -0.0203
     79  CD1        5.8940   15.8450   -2.1680 C.ar  125  PHE125     -0.0042
     80  CD2        4.4350   17.3670   -3.2890 C.ar  125  PHE125     -0.0042
     81  CE1        6.4400   16.8990   -1.4110 C.ar  125  PHE125     -0.0003
     82  CE2        4.9750   18.4180   -2.5310 C.ar  125  PHE125     -0.0003
     83  CZ         5.9720   18.1740   -1.5920 C.ar  125  PHE125     -0.0000
     84  N          6.6320   12.2890   -7.1270 N.3   128  VAL128     -0.1231
     85  CA         7.2380   11.5450   -6.0310 C.3   128  VAL128      0.1692
     86  C          6.4320   10.2720   -5.7410 C.2   128  VAL128      0.2591
     87  O          6.9990    9.2120   -5.5030 O.2   128  VAL128     -0.2718
     88  CB         7.3220   12.3930   -4.7770 C.3   128  VAL128      0.0266
     89  CG1        7.7930   11.5300   -3.6060 C.3   128  VAL128      0.0020
     90  CG2        8.2640   13.5860   -5.0210 C.3   128  VAL128      0.0020
     91  N          5.1100   10.3720   -5.7550 N.am  129  LEU129     -0.1980
     92  CA         4.2970    9.2230   -5.4220 C.3   129  LEU129      0.1596
     93  C          4.5110    8.1030   -6.4390 C.2   129  LEU129      0.2287
     94  O          4.6350    6.9280   -6.0690 O.2   129  LEU129     -0.2864
     95  CB         2.8030    9.6100   -5.3670 C.3   129  LEU129      0.0297
     96  CG         2.4440   10.5670   -4.2170 C.3   129  LEU129      0.0022
     97  CD1        0.9620   10.9560   -4.3510 C.3   129  LEU129      0.0001
     98  CD2        2.7270    9.9650   -2.8580 C.3   129  LEU129      0.0001
     99  N          7.9740    6.5650   -5.8070 N.3   132  LEU132     -0.1245
    100  CA         8.0370    5.6620   -4.6430 C.3   132  LEU132      0.1561
    101  C          7.3990    4.3450   -5.0110 C.2   132  LEU132      0.2260
    102  O          7.9340    3.3000   -4.6670 O.2   132  LEU132     -0.2867
    103  CB         7.3520    6.2820   -3.4220 C.3   132  LEU132      0.0270
    104  CG         8.1290    7.4740   -2.8310 C.3   132  LEU132      0.0019
    105  CD1        7.1980    8.1650   -1.8020 C.3   132  LEU132      0.0001
    106  CD2        9.5000    7.0340   -2.1880 C.3   132  LEU132      0.0001
    107  N         11.8900   15.1780   -3.6760 N.3   144  LEU144     -0.1245
    108  CA        11.4490   15.7310   -2.4070 C.3   144  LEU144      0.1561
    109  C         12.3400   16.8840   -1.9940 C.2   144  LEU144      0.2260
    110  O         11.8710   17.8470   -1.3530 O.2   144  LEU144     -0.2867
    111  CB        11.4960   14.6430   -1.3060 C.3   144  LEU144      0.0270
    112  CG        10.4070   13.5760   -1.4000 C.3   144  LEU144      0.0019
    113  CD1       10.7020   12.4050   -0.4830 C.3   144  LEU144      0.0001
    114  CD2        9.1170   14.2400   -0.9700 C.3   144  LEU144      0.0001
    115  N         13.4060    7.9860    3.0650 N.3   164  PHE164     -0.1241
    116  CA        12.8310    7.5820    1.7920 C.3   164  PHE164      0.1605
    117  C         13.8670    7.0180    0.7980 C.2   164  PHE164      0.2264
    118  O         13.5870    6.1060    0.0010 O.2   164  PHE164     -0.2867
    119  CB        12.0640    8.7320    1.1100 C.3   164  PHE164      0.0534
    120  CG        10.6660    8.9360    1.6070 C.ar  164  PHE164     -0.0203
    121  CD1        9.7130    7.9040    1.5420 C.ar  164  PHE164     -0.0042
    122  CD2       10.2890   10.1750    2.1070 C.ar  164  PHE164     -0.0042
    123  CE1        8.4000    8.1340    1.9900 C.ar  164  PHE164     -0.0003
    124  CE2        8.9740   10.4190    2.5280 C.ar  164  PHE164     -0.0003
    125  CZ         8.0330    9.3790    2.4590 C.ar  164  PHE164     -0.0000
@<TRIPOS>BOND
     1    84    85    1
     2    93    94    2
     3    93    92    1
     4    75    76    2
     5    75    74    1
     6    85    86    1
     7    85    88    1
     8    99   100    1
     9    91    86   am
    10    91    92    1
    11    86    87    2
    12    92    95    1
    13    95    96    1
    14    74    73    1
    15    74    77    1
    16    90    88    1
    17   101   102    2
    18   101   100    1
    19    88    89    1
    20   100   103    1
    21    97    96    1
    22    96    98    1
    23    23    21    1
    24    77    78    1
    25   107   108    1
    26   103   104    1
    27    80    78   ar
    28    80    82   ar
    29    78    79   ar
    30   104   106    1
    31   104   105    1
    32    21    22    1
    33    21    18    1
    34    82    83   ar
    35    17    18    1
    36    18    19    1
    37   108   109    1
    38   108   111    1
    39    79    81   ar
    40    69    68    2
    41   109   110    2
    42     9    10    1
    43    83    81   ar
    44   112   111    1
    45   112   114    1
    46   112   113    1
    47    68    67    1
    48    19    20    2
    49    19    24   am
    50    10    11    1
    51    10    13    1
    52    16    14    1
    53    11    12    2
    54    43    41    1
    55    24    25    1
    56   118   117    2
    57    67    66    1
    58    67    70    1
    59    14    13    1
    60    14    15    1
    61    36    37    1
    62    41    42    1
    63    41    40    1
    64    71    70    1
    65   117   116    1
    66    37    40    1
    67    37    38    1
    68   119   120    1
    69   119   116    1
    70    57    58   ar
    71    57    55   ar
    72    70    72    1
    73    25    26    1
    74    25    28    1
    75    26    27    1
    76   121   120   ar
    77   121   123   ar
    78   120   122   ar
    79   116   115    1
    80    58    56   ar
    81   123   125   ar
    82    38    39    2
    83    55    54   ar
    84   122   124   ar
    85    28    29    1
    86   125   124   ar
    87     4     3    2
    88    56    54   ar
    89    54    53    1
    90    29    31   ar
    91    29    30   ar
    92     7     5    1
    93     3     2    1
    94    48    45    1
    95    31    33   ar
    96    30    32   ar
    97    53    50    1
    98     2     5    1
    99     2     1    1
   100    65    63    1
   101    45    44    1
   102    45    46    1
   103     5     6    1
   104     6     8    1
   105    33    34   ar
   106    47    46    2
   107    50    51    1
   108    50    49    1
   109    32    34   ar
   110    52    51    2
   111    51    59   am
   112    63    60    1
   113    63    64    1
   114    59    60    1
   115    60    61    1
   116    34    35    1
   117    61    62    2
