@<TRIPOS>MOLECULE
tmp/4eksA00.pdb
 106 99 0 0 0
SMALL
GASTEIGER

@<TRIPOS>ATOM
      1  N         -3.7320    8.6970    5.6200 N.3    89  ILE89      -0.1245
      2  CA        -3.1830    7.9400    4.4990 C.3    89  ILE89       0.1561
      3  C         -4.1220    6.7980    4.0760 C.2    89  ILE89       0.2260
      4  O         -4.4200    6.6220    2.8770 O.2    89  ILE89      -0.2867
      5  CB        -1.8080    7.3270    4.9100 C.3    89  ILE89       0.0252
      6  CG1       -0.7830    8.4540    5.0150 C.3    89  ILE89       0.0019
      7  CG2       -1.3640    6.2460    3.9010 C.3    89  ILE89       0.0019
      8  CD1        0.5550    8.0380    5.6750 C.3    89  ILE89       0.0001
      9  N         -2.9820    7.9320   -1.6970 N.3    95  LEU95      -0.1245
     10  CA        -1.8830    7.5740   -0.8090 C.3    95  LEU95       0.1561
     11  C         -1.8560    6.1200   -0.3780 C.2    95  LEU95       0.2260
     12  O         -0.7780    5.5520   -0.2250 O.2    95  LEU95      -0.2867
     13  CB        -1.9240    8.4500    0.4310 C.3    95  LEU95       0.0270
     14  CG        -1.7350    9.9480    0.1770 C.3    95  LEU95       0.0019
     15  CD1       -1.7100   10.6500    1.5180 C.3    95  LEU95       0.0001
     16  CD2       -0.4500   10.2060   -0.6320 C.3    95  LEU95       0.0001
     17  N          0.1810    3.5670   -2.5030 N.3    98  VAL98      -0.1231
     18  CA         1.6200    3.8320   -2.4150 C.3    98  VAL98       0.1692
     19  C          2.1560    3.3630   -1.0780 C.2    98  VAL98       0.2592
     20  O          3.2030    2.6860   -1.0030 O.2    98  VAL98      -0.2718
     21  CB         1.9330    5.3140   -2.6330 C.3    98  VAL98       0.0266
     22  CG1        3.4410    5.5290   -2.5280 C.3    98  VAL98       0.0020
     23  CG2        1.4490    5.7180   -4.0350 C.3    98  VAL98       0.0020
     24  N          1.4310    3.6900   -0.0140 N.am   99  TYR99      -0.1976
     25  CA         1.8480    3.3200    1.3230 C.3    99  TYR99       0.1639
     26  C          1.9400    1.8080    1.4220 C.2    99  TYR99       0.2290
     27  O          2.9330    1.2520    1.9130 O.2    99  TYR99      -0.2864
     28  CB         0.8260    3.8640    2.3370 C.3    99  TYR99       0.0560
     29  CG         1.0750    3.4670    3.7700 C.ar   99  TYR99      -0.0198
     30  CD1        1.8860    4.2560    4.5900 C.ar   99  TYR99      -0.0009
     31  CD2        0.5240    2.3060    4.2990 C.ar   99  TYR99      -0.0009
     32  CE1        2.1180    3.9180    5.8990 C.ar   99  TYR99       0.0417
     33  CE2        0.7520    1.9550    5.6630 C.ar   99  TYR99       0.0417
     34  CZ         1.5670    2.7860    6.4270 C.ar   99  TYR99       0.1957
     35  OH         1.8600    2.5170    7.7410 O.3    99  TYR99      -0.2866
     36  N          5.0510    0.1170    0.1480 N.3   102  LEU102     -0.1245
     37  CA         6.3160    0.4370    0.8270 C.3   102  LEU102      0.1561
     38  C          6.6800   -0.5860    1.9030 C.2   102  LEU102      0.2260
     39  O          5.8290   -1.2490    2.4970 O.2   102  LEU102     -0.2867
     40  CB         6.2570    1.8280    1.4610 C.3   102  LEU102      0.0270
     41  CG         6.0540    3.0160    0.5260 C.3   102  LEU102      0.0019
     42  CD1        5.8080    4.3020    1.3420 C.3   102  LEU102      0.0001
     43  CD2        7.2560    3.1480   -0.3970 C.3   102  LEU102      0.0001
     44  N          6.5920    7.8230    5.3100 N.3   110  ALA110     -0.1245
     45  CA         5.3090    8.2860    4.7510 C.3   110  ALA110      0.1562
     46  C          4.4220    8.9180    5.8160 C.2   110  ALA110      0.2260
     47  O          3.8600   10.0180    5.6310 O.2   110  ALA110     -0.2867
     48  CB         4.5560    7.1090    4.0720 C.3   110  ALA110      0.0290
     49  N          5.9060   12.2520    6.7470 N.3   113  HIS113     -0.1226
     50  CA         5.6820   13.2680    5.7400 C.3   113  HIS113      0.1752
     51  C          4.2610   13.8390    5.8610 C.2   113  HIS113      0.2595
     52  O          4.0630   15.0460    5.8550 O.2   113  HIS113     -0.2718
     53  CB         5.8930   12.6030    4.3920 C.3   113  HIS113      0.0759
     54  CG         5.9870   13.5480    3.2430 C.ar  113  HIS113      0.0818
     55  ND1        5.8560   13.1200    1.9410 N.ar  113  HIS113     -0.2268
     56  CD2        6.1730   14.8890    3.1880 C.ar  113  HIS113      0.1154
     57  CE1        5.9840   14.1550    1.1300 C.ar  113  HIS113      0.1986
     58  NE2        6.1660   15.2410    1.8600 N.ar  113  HIS113     -0.2212
     59  N          3.2860   12.9560    6.0330 N.am  114  VAL114     -0.1980
     60  CA         1.9010   13.3900    6.1900 C.3   114  VAL114      0.1595
     61  C          1.6790   14.1300    7.5210 C.2   114  VAL114      0.2287
     62  O          0.9740   15.1370    7.5490 O.2   114  VAL114     -0.2864
     63  CB         0.9430   12.1750    6.0740 C.3   114  VAL114      0.0276
     64  CG1       -0.4460   12.5410    6.5340 C.3   114  VAL114      0.0022
     65  CG2        0.9230   11.6910    4.5890 C.3   114  VAL114      0.0022
     66  N          0.8230   16.1670    0.6370 N.3   122  VAL122     -0.1245
     67  CA         1.5320   14.9720    0.2180 C.3   122  VAL122      0.1561
     68  C          0.9340   14.3690   -1.0540 C.2   122  VAL122      0.2260
     69  O          1.6550   13.9820   -1.9830 O.2   122  VAL122     -0.2867
     70  CB         1.5460   13.9330    1.3430 C.3   122  VAL122      0.0252
     71  CG1        2.1220   12.6210    0.8100 C.3   122  VAL122      0.0019
     72  CG2        2.3770   14.4680    2.5160 C.3   122  VAL122      0.0019
     73  N          6.6170   12.1750   -7.1090 N.3   128  VAL128     -0.1231
     74  CA         7.2300   11.4400   -5.9970 C.3   128  VAL128      0.1692
     75  C          6.4600   10.1600   -5.6760 C.2   128  VAL128      0.2591
     76  O          7.0570    9.1070   -5.4550 O.2   128  VAL128     -0.2718
     77  CB         7.3120   12.3090   -4.7280 C.3   128  VAL128      0.0266
     78  CG1        7.8180   11.4930   -3.5210 C.3   128  VAL128      0.0020
     79  CG2        8.2110   13.4800   -4.9870 C.3   128  VAL128      0.0020
     80  N          5.1350   10.2470   -5.6460 N.am  129  LEU129     -0.1980
     81  CA         4.3270    9.0730   -5.3260 C.3   129  LEU129      0.1596
     82  C          4.5220    7.9780   -6.3640 C.2   129  LEU129      0.2287
     83  O          4.6220    6.8100   -6.0150 O.2   129  LEU129     -0.2864
     84  CB         2.8520    9.4550   -5.2080 C.3   129  LEU129      0.0297
     85  CG         2.5750   10.4370   -4.0670 C.3   129  LEU129      0.0022
     86  CD1        1.1460   10.9490   -4.1140 C.3   129  LEU129      0.0001
     87  CD2        2.8700    9.7880   -2.7220 C.3   129  LEU129      0.0001
     88  N          7.9500    6.4310   -5.8560 N.3   132  LEU132     -0.1245
     89  CA         8.0140    5.5340   -4.6970 C.3   132  LEU132      0.1561
     90  C          7.3530    4.2110   -5.0190 C.2   132  LEU132      0.2260
     91  O          7.8990    3.1640   -4.7100 O.2   132  LEU132     -0.2867
     92  CB         7.3960    6.1750   -3.4650 C.3   132  LEU132      0.0270
     93  CG         8.2170    7.3470   -2.9000 C.3   132  LEU132      0.0019
     94  CD1        7.3620    8.0890   -1.8680 C.3   132  LEU132      0.0001
     95  CD2        9.5710    6.8580   -2.2900 C.3   132  LEU132      0.0001
     96  N         13.4660    7.8500    2.8970 N.3   164  PHE164     -0.1241
     97  CA        12.8590    7.4180    1.6430 C.3   164  PHE164      0.1605
     98  C         13.9080    6.8850    0.6580 C.2   164  PHE164      0.2264
     99  O         13.6390    5.9610   -0.1170 O.2   164  PHE164     -0.2867
    100  CB        12.0700    8.5360    0.9350 C.3   164  PHE164      0.0534
    101  CG        10.6720    8.7820    1.4850 C.ar  164  PHE164     -0.0203
    102  CD1        9.6990    7.7680    1.4760 C.ar  164  PHE164     -0.0042
    103  CD2       10.3230   10.0370    1.9640 C.ar  164  PHE164     -0.0042
    104  CE1        8.4130    8.0080    1.9660 C.ar  164  PHE164     -0.0003
    105  CE2        9.0350   10.3010    2.4100 C.ar  164  PHE164     -0.0003
    106  CZ         8.0790    9.2660    2.4240 C.ar  164  PHE164     -0.0000
@<TRIPOS>BOND
     1    73    74    1
     2    82    83    2
     3    82    81    1
     4    74    75    1
     5    74    77    1
     6    88    89    1
     7    75    80   am
     8    75    76    2
     9    80    81    1
    10    81    84    1
    11    84    85    1
    12    90    91    2
    13    90    89    1
    14    79    77    1
    15    77    78    1
    16    89    92    1
    17    86    85    1
    18    85    87    1
    19    23    21    1
    20    92    93    1
    21    93    95    1
    22    93    94    1
    23    21    22    1
    24    21    18    1
    25    17    18    1
    26    18    19    1
    27    69    68    2
    28     9    10    1
    29    19    20    2
    30    19    24   am
    31    68    67    1
    32    10    11    1
    33    10    13    1
    34    16    14    1
    35    43    41    1
    36    11    12    2
    37    99    98    2
    38    24    25    1
    39    36    37    1
    40    14    13    1
    41    14    15    1
    42    67    66    1
    43    67    70    1
    44    41    42    1
    45    41    40    1
    46    98    97    1
    47    71    70    1
    48    37    40    1
    49    37    38    1
    50   100   101    1
    51   100    97    1
    52    57    58   ar
    53    57    55   ar
    54    25    26    1
    55    25    28    1
    56    70    72    1
    57    26    27    2
    58   102   101   ar
    59   102   104   ar
    60   101   103   ar
    61    97    96    1
    62    58    56   ar
    63    38    39    2
    64    55    54   ar
    65   103   105   ar
    66   104   106   ar
    67    28    29    1
    68   105   106   ar
    69     4     3    2
    70    56    54   ar
    71    54    53    1
    72    29    31   ar
    73    29    30   ar
    74     7     5    1
    75    48    45    1
    76     3     2    1
    77    31    33   ar
    78    53    50    1
    79     2     5    1
    80     2     1    1
    81    65    63    1
    82    30    32   ar
    83    45    44    1
    84    45    46    1
    85     5     6    1
    86     6     8    1
    87    47    46    2
    88    33    34   ar
    89    50    51    1
    90    50    49    1
    91    52    51    2
    92    51    59   am
    93    32    34   ar
    94    59    60    1
    95    63    60    1
    96    63    64    1
    97    60    61    1
    98    34    35    1
    99    61    62    2
