@<TRIPOS>MOLECULE
tmp/4el0A00.pdb
 188 180 0 0 0
SMALL
GASTEIGER

@<TRIPOS>ATOM
      1  N         32.9120   20.1320   39.3210 N.3    77  GLU77      -0.1245
      2  CA        31.6100   20.6530   38.9310 C.3    77  GLU77       0.1567
      3  C         30.6500   19.5310   38.6360 C.2    77  GLU77       0.2260
      4  O         30.9760   18.5850   37.8660 O.2    77  GLU77      -0.2867
      5  CB        31.7290   21.6110   37.7080 C.3    77  GLU77       0.0388
      6  CG        32.6030   22.8220   37.9540 C.3    77  GLU77       0.1160
      7  CD        32.5570   23.8290   36.8220 C.2    77  GLU77       0.3649
      8  OE1       33.5000   24.6060   36.7700 O.co2  77  GLU77      -0.2457
      9  OE2       31.6160   23.8530   35.9750 O.co2  77  GLU77      -0.2457
     10  N         29.4380   25.5640   36.0280 N.3   122  ASN122     -0.1225
     11  CA        29.3540   26.7960   35.2250 C.3   122  ASN122      0.1785
     12  C         28.6020   26.6180   33.9110 C.2   122  ASN122      0.2598
     13  O         27.8850   27.5080   33.5070 O.2   122  ASN122     -0.2718
     14  CB        30.7330   27.3630   34.9060 C.3   122  ASN122      0.1169
     15  CG        31.3570   28.0550   36.0810 C.2   122  ASN122      0.2627
     16  OD1       30.9670   29.1630   36.4660 O.2   122  ASN122     -0.2716
     17  ND2       32.3330   27.3960   36.6760 N.am  122  ASN122     -0.0877
     18  N         28.8080   25.5000   33.2320 N.am  123  GLY123     -0.1942
     19  CA        28.1770   25.2220   31.9360 C.3   123  GLY123      0.2014
     20  C         28.4830   23.8160   31.4650 C.2   123  GLY123      0.2639
     21  O         28.1180   22.8150   32.1590 O.2   123  GLY123     -0.2714
     22  N         29.2190   23.7180   30.3480 N.am  124  GLY124     -0.1939
     23  CA        29.2370   22.4760   29.5520 C.3   124  GLY124      0.2014
     24  C         29.8900   21.3570   30.3220 C.2   124  GLY124      0.2638
     25  O         29.3720   20.2610   30.4130 O.2   124  GLY124     -0.2714
     26  N         31.0390   21.6650   30.9060 N.am  125  LEU125     -0.1977
     27  CA        31.8810   20.7040   31.6190 C.3   125  LEU125      0.1596
     28  C         31.1390   20.1610   32.8720 C.2   125  LEU125      0.2287
     29  O         31.1060   18.9340   33.1140 O.2   125  LEU125     -0.2864
     30  CB        33.2460   21.3830   31.9590 C.3   125  LEU125      0.0297
     31  CG        34.2930   20.6640   32.8220 C.3   125  LEU125      0.0022
     32  CD1       35.7160   21.2370   32.7420 C.3   125  LEU125      0.0001
     33  CD2       33.8190   20.8940   34.2060 C.3   125  LEU125      0.0001
     34  N         28.2350   18.0190   31.7090 N.3   128  LEU128     -0.1245
     35  CA        28.6730   16.7300   31.1760 C.3   128  LEU128      0.1561
     36  C         28.8140   15.7040   32.3070 C.2   128  LEU128      0.2260
     37  O         28.3960   14.5110   32.2030 O.2   128  LEU128     -0.2867
     38  CB        29.9740   16.8820   30.4250 C.3   128  LEU128      0.0270
     39  CG        30.4250   15.6250   29.6440 C.3   128  LEU128      0.0019
     40  CD1       29.7240   15.4400   28.2450 C.3   128  LEU128      0.0001
     41  CD2       31.9190   15.6780   29.4250 C.3   128  LEU128      0.0001
     42  N         34.8110   30.4150   33.8420 N.3   266  ASP266     -0.1225
     43  CA        35.0830   29.1610   33.1330 C.3   266  ASP266      0.1805
     44  C         36.2580   29.1760   32.1380 C.2   266  ASP266      0.2597
     45  O         37.2930   28.4340   32.3020 O.2   266  ASP266     -0.2718
     46  CB        33.8720   28.5860   32.4480 C.3   266  ASP266      0.1424
     47  CG        33.0760   29.5920   31.7420 C.2   266  ASP266      0.3668
     48  OD1       33.4490   30.7690   31.7630 O.co2 266  ASP266     -0.2456
     49  OD2       32.0540   29.1710   31.1640 O.co2 266  ASP266     -0.2456
     50  N         36.1300   29.9860   31.0940 N.am  267  ASN267     -0.1974
     51  CA        37.1320   29.8280   30.0730 C.3   267  ASN267      0.1688
     52  C         38.3260   30.8100   30.2280 C.2   267  ASN267      0.2292
     53  O         38.9320   31.1910   29.2330 O.2   267  ASN267     -0.2864
     54  CB        36.4790   29.7210   28.6600 C.3   267  ASN267      0.1181
     55  CG        36.0400   28.2250   28.2710 C.2   267  ASN267      0.2629
     56  OD1       34.9370   27.7470   28.6340 O.2   267  ASN267     -0.2716
     57  ND2       36.8980   27.5250   27.4910 N.am  267  ASN267     -0.0877
     58  N         39.0530   17.1820   33.2000 N.3   313  ASP313     -0.1225
     59  CA        40.0160   18.2300   32.9770 C.3   313  ASP313      0.1805
     60  C         41.1190   18.1980   34.0790 C.2   313  ASP313      0.2598
     61  O         41.2030   17.2220   34.8320 O.2   313  ASP313     -0.2718
     62  CB        39.3890   19.6260   32.7370 C.3   313  ASP313      0.1424
     63  CG        40.1800   20.3950   31.6600 C.2   313  ASP313      0.3668
     64  OD1       39.7320   20.6900   30.4860 O.co2 313  ASP313     -0.2456
     65  OD2       41.3870   20.4890   31.9420 O.co2 313  ASP313     -0.2456
     66  N         41.9240   19.2660   34.1800 N.am  314  THR314     -0.1939
     67  CA        43.0500   19.2840   35.0890 C.3   314  THR314      0.2028
     68  C         42.6310   19.7680   36.5040 C.2   314  THR314      0.2642
     69  O         43.5040   19.8860   37.3850 O.2   314  THR314     -0.2714
     70  CB        44.1820   20.2590   34.5620 C.3   314  THR314      0.1808
     71  OG1       43.6390   21.5880   34.4140 O.3   314  THR314     -0.2208
     72  CG2       44.7500   19.8130   33.2090 C.3   314  THR314      0.0379
     73  N         41.3470   20.0890   36.7320 N.am  315  HIS315     -0.1973
     74  CA        40.9760   20.5400   38.0870 C.3   315  HIS315      0.1656
     75  C         41.4250   19.5830   39.2060 C.2   315  HIS315      0.2291
     76  O         41.8250   20.0390   40.2690 O.2   315  HIS315     -0.2864
     77  CB        39.4760   20.9010   38.2550 C.3   315  HIS315      0.0771
     78  CG        39.0040   21.9660   37.3210 C.ar  315  HIS315      0.0820
     79  ND1       37.7200   22.0000   36.8220 N.ar  315  HIS315     -0.2267
     80  CD2       39.6690   22.9740   36.7060 C.ar  315  HIS315      0.1154
     81  CE1       37.5960   23.0200   35.9870 C.ar  315  HIS315      0.1986
     82  NE2       38.7720   23.6130   35.8830 N.ar  315  HIS315     -0.2212
     83  N         39.2110   19.4550   27.8170 N.3   351  HIS351     -0.1226
     84  CA        37.9750   20.0510   27.3080 C.3   351  HIS351      0.1752
     85  C         38.1580   21.4010   26.5820 C.2   351  HIS351      0.2596
     86  O         37.1780   22.0910   26.3260 O.2   351  HIS351     -0.2718
     87  CB        37.0160   20.2980   28.4650 C.3   351  HIS351      0.0759
     88  CG        36.5550   19.0910   29.1740 C.ar  351  HIS351      0.0818
     89  ND1       35.3490   18.4820   28.8940 N.ar  351  HIS351     -0.2268
     90  CD2       37.0890   18.4170   30.2240 C.ar  351  HIS351      0.1154
     91  CE1       35.1560   17.4760   29.7330 C.ar  351  HIS351      0.1986
     92  NE2       36.2060   17.4050   30.5390 N.ar  351  HIS351     -0.2212
     93  N         39.3720   21.8260   26.3110 N.am  352  THR352     -0.1953
     94  CA        39.5470   23.1140   25.6390 C.3   352  THR352      0.1897
     95  C         40.9840   23.2300   25.1060 C.2   352  THR352      0.2313
     96  O         41.8900   22.5560   25.5930 O.2   352  THR352     -0.2863
     97  CB        39.3350   24.3470   26.5640 C.3   352  THR352      0.1794
     98  OG1       39.4000   25.5450   25.7780 O.3   352  THR352     -0.2208
     99  CG2       40.4570   24.4100   27.6060 C.3   352  THR352      0.0378
    100  N         42.8340   29.3900   29.1260 N.3   357  ALA357     -0.1231
    101  CA        41.9510   28.5600   29.9650 C.3   357  ALA357      0.1694
    102  C         42.7940   27.5140   30.7480 C.2   357  ALA357      0.2592
    103  O         42.3220   27.0130   31.7590 O.2   357  ALA357     -0.2718
    104  CB        40.8650   27.8680   29.1270 C.3   357  ALA357      0.0304
    105  N         44.0280   27.2010   30.2710 N.am  358  LEU358     -0.1966
    106  CA        44.8260   26.1100   30.8130 C.3   358  LEU358      0.1728
    107  C         45.4250   26.4640   32.1710 C.2   358  LEU358      0.2616
    108  O         45.8400   27.5950   32.3920 O.2   358  LEU358     -0.2715
    109  CB        45.9510   25.7630   29.8640 C.3   358  LEU358      0.0311
    110  CG        45.6300   25.3210   28.4310 C.3   358  LEU358      0.0022
    111  CD1       46.9170   24.7870   27.7910 C.3   358  LEU358      0.0001
    112  CD2       44.4920   24.3190   28.2950 C.3   358  LEU358      0.0001
    113  N         45.4470   25.5010   33.0920 N.am  359  GLU359     -0.1977
    114  CA        45.9060   25.7550   34.4460 C.3   359  GLU359      0.1602
    115  C         47.4060   25.7000   34.4940 C.2   359  GLU359      0.2287
    116  O         47.9940   24.7110   34.0840 O.2   359  GLU359     -0.2864
    117  CB        45.3430   24.7400   35.4290 C.3   359  GLU359      0.0415
    118  CG        43.8620   24.8880   35.6590 C.3   359  GLU359      0.1163
    119  CD        43.3730   24.0410   36.8090 C.2   359  GLU359      0.3649
    120  OE1       43.3720   22.7470   36.7650 O.co2 359  GLU359     -0.2457
    121  OE2       43.0090   24.6990   37.7880 O.co2 359  GLU359     -0.2457
    122  N         37.0460   15.5040   23.2130 N.3   429  VAL429     -0.1245
    123  CA        35.6040   15.4240   23.5140 C.3   429  VAL429      0.1561
    124  C         34.7340   15.5150   22.2810 C.2   429  VAL429      0.2260
    125  O         33.5170   15.4810   22.3560 O.2   429  VAL429     -0.2867
    126  CB        35.1580   16.3820   24.6710 C.3   429  VAL429      0.0252
    127  CG1       35.6310   15.8060   26.0700 C.3   429  VAL429      0.0019
    128  CG2       35.5360   17.9420   24.4190 C.3   429  VAL429      0.0019
    129  N         31.3080   13.7090   23.0980 N.3   458  ASN458     -0.1240
    130  CA        30.3750   13.9840   24.1510 C.3   458  ASN458      0.1653
    131  C         28.9790   13.4760   23.7120 C.2   458  ASN458      0.2266
    132  O         28.8030   13.0870   22.5540 O.2   458  ASN458     -0.2867
    133  CB        30.3930   15.4850   24.4200 C.3   458  ASN458      0.1155
    134  CG        31.5630   15.9270   25.3790 C.2   458  ASN458      0.2627
    135  OD1       31.8030   17.1420   25.5700 O.2   458  ASN458     -0.2716
    136  ND2       32.2210   14.9680   26.0160 N.am  458  ASN458     -0.0877
    137  N         34.6610   33.7030   22.0000 N.3   547  TYR547     -0.1227
    138  CA        34.7900   32.6220   21.0490 C.3   547  TYR547      0.1736
    139  C         33.4260   32.0680   20.6260 C.2   547  TYR547      0.2595
    140  O         33.3080   31.5580   19.5400 O.2   547  TYR547     -0.2718
    141  CB        35.7410   31.5150   21.5470 C.3   547  TYR547      0.0548
    142  CG        35.1620   30.4180   22.3590 C.ar  547  TYR547     -0.0200
    143  CD1       34.5650   29.3360   21.7500 C.ar  547  TYR547     -0.0009
    144  CD2       35.3320   30.3760   23.7460 C.ar  547  TYR547     -0.0009
    145  CE1       34.0830   28.2680   22.4960 C.ar  547  TYR547      0.0417
    146  CE2       34.8640   29.3190   24.4950 C.ar  547  TYR547      0.0417
    147  CZ        34.2180   28.2760   23.8780 C.ar  547  TYR547      0.1957
    148  OH        33.7090   27.2250   24.6410 O.3   547  TYR547     -0.2866
    149  N         32.4080   32.1960   21.4540 N.am  548  LYS548     -0.1980
    150  CA        31.1170   31.6570   21.1270 C.3   548  LYS548      0.1596
    151  C         30.3610   32.6300   20.1760 C.2   548  LYS548      0.2287
    152  O         29.3010   32.2790   19.6170 O.2   548  LYS548     -0.2864
    153  CB        30.3270   31.3620   22.4200 C.3   548  LYS548      0.0298
    154  CG        30.7860   30.1100   23.1820 C.3   548  LYS548      0.0038
    155  CD        30.5190   30.2780   24.7430 C.3   548  LYS548      0.0206
    156  CE        30.7230   28.9920   25.6040 C.3   548  LYS548      0.1093
    157  NZ        30.0420   27.7060   24.9930 N.3   548  LYS548     -0.1314
    158  N         35.3940   25.7130   19.9960 N.3   646  GLU646     -0.1231
    159  CA        34.4280   24.9600   20.8410 C.3   646  GLU646      0.1699
    160  C         34.8390   23.4820   20.8090 C.2   646  GLU646      0.2592
    161  O         34.7330   22.8870   19.7570 O.2   646  GLU646     -0.2718
    162  CB        32.9950   25.0960   20.2820 C.3   646  GLU646      0.0402
    163  CG        31.8390   24.7250   21.2500 C.3   646  GLU646      0.1161
    164  CD        31.7850   25.5890   22.5270 C.2   646  GLU646      0.3649
    165  OE1       32.5150   25.2370   23.4720 O.co2 646  GLU646     -0.2457
    166  OE2       31.0200   26.6080   22.6180 O.co2 646  GLU646     -0.2457
    167  N         35.3800   22.9240   21.9130 N.am  647  ALA647     -0.1966
    168  CA        35.9370   21.5670   21.8680 C.3   647  ALA647      0.1728
    169  C         34.8780   20.5490   21.3670 C.2   647  ALA647      0.2617
    170  O         35.1870   19.6710   20.5050 O.2   647  ALA647     -0.2715
    171  CB        36.5390   21.1120   23.2580 C.3   647  ALA647      0.0334
    172  N         33.6640   20.6640   21.9310 N.am  648  SER648     -0.1936
    173  CA        32.6000   19.8450   21.5200 C.3   648  SER648      0.2055
    174  C         31.3010   20.5940   21.4180 C.2   648  SER648      0.2644
    175  O         30.6850   20.6200   20.3170 O.2   648  SER648     -0.2714
    176  CB        32.3820   18.6710   22.4560 C.3   648  SER648      0.2130
    177  OG        31.1620   18.0460   22.0570 O.3   648  SER648     -0.2179
    178  N         30.8780   21.1660   22.5490 N.am  649  GLY649     -0.1939
    179  CA        29.5300   21.6550   22.7260 C.3   649  GLY649      0.2014
    180  C         28.5950   20.5080   23.1050 C.2   649  GLY649      0.2639
    181  O         28.7930   19.3580   22.7110 O.2   649  GLY649     -0.2714
    182  N         27.5590   20.8080   23.8770 N.am  650  THR650     -0.1950
    183  CA        26.5640   19.7870   24.1920 C.3   650  THR650      0.1897
    184  C         25.1700   20.3300   24.1040 C.2   650  THR650      0.2313
    185  O         24.2280   19.5660   23.8640 O.2   650  THR650     -0.2863
    186  CB        26.7740   19.1690   25.5210 C.3   650  THR650      0.1794
    187  OG1       26.8860   20.1970   26.4690 O.3   650  THR650     -0.2208
    188  CG2       27.9870   18.3630   25.5120 C.3   650  THR650      0.0378
@<TRIPOS>BOND
     1   140   139    2
     2   152   151    2
     3   161   160    2
     4   158   159    1
     5   151   150    1
     6   162   159    1
     7   162   163    1
     8   175   174    2
     9   170   169    2
    10   139   138    1
    11   139   149   am
    12   160   159    1
    13   160   167   am
    14   138   141    1
    15   138   137    1
    16   150   149    1
    17   150   153    1
    18   163   164    1
    19   169   168    1
    20   169   172   am
    21   174   173    1
    22   174   178   am
    23   173   172    1
    24   173   176    1
    25   141   142    1
    26   143   142   ar
    27   143   145   ar
    28   168   167    1
    29   168   171    1
    30   177   176    1
    31   124   125    2
    32   124   123    1
    33   142   144   ar
    34   153   154    1
    35   145   147   ar
    36   164   166   ar
    37   164   165   ar
    38   178   179    1
    39   132   131    2
    40   181   180    2
    41   179   180    1
    42   129   130    1
    43   180   182   am
    44   154   155    1
    45   122   123    1
    46   123   126    1
    47   131   130    1
    48   144   146   ar
    49   185   184    2
    50   182   183    1
    51   147   146   ar
    52   147   148    1
    53   184   183    1
    54   130   133    1
    55   183   186    1
    56   128   126    1
    57   133   134    1
    58   126   127    1
    59   155   156    1
    60   157   156    1
    61    95    96    2
    62    95    94    1
    63   134   135    2
    64   134   136   am
    65   188   186    1
    66   186   187    1
    67    94    93    1
    68    94    97    1
    69    98    97    1
    70    93    85   am
    71    86    85    2
    72    97    99    1
    73    85    84    1
    74    84    83    1
    75    84    87    1
    76    57    55   am
    77   111   110    1
    78    40    39    1
    79    55    56    2
    80    55    54    1
    81   112   110    1
    82   110   109    1
    83    87    88    1
    84    54    51    1
    85    89    88   ar
    86    89    91   ar
    87   100   101    1
    88   104   101    1
    89    88    90   ar
    90    53    52    2
    91    41    39    1
    92    23    24    1
    93    23    22    1
    94    39    38    1
    95    91    92   ar
    96   109   106    1
    97   101   102    1
    98    51    52    1
    99    51    50    1
   100    90    92   ar
   101   105   102   am
   102   105   106    1
   103    24    25    2
   104    24    26   am
   105    22    20   am
   106    38    35    1
   107    64    63   ar
   108   102   103    2
   109   106   107    1
   110    26    27    1
   111    50    44   am
   112    49    47   ar
   113    35    34    1
   114    35    36    1
   115    20    19    1
   116    20    21    2
   117    27    30    1
   118    27    28    1
   119    63    65   ar
   120    63    62    1
   121    47    48   ar
   122    47    46    1
   123    19    18    1
   124    30    31    1
   125    44    45    2
   126    44    43    1
   127   107   108    2
   128   107   113   am
   129    37    36    2
   130    46    43    1
   131    62    59    1
   132    32    31    1
   133    31    33    1
   134    28    29    2
   135    59    58    1
   136    59    60    1
   137   113   114    1
   138    43    42    1
   139    72    70    1
   140    18    12   am
   141    13    12    2
   142    12    11    1
   143    60    66   am
   144    60    61    2
   145   116   115    2
   146    66    67    1
   147    71    70    1
   148   114   115    1
   149   114   117    1
   150    70    67    1
   151    14    11    1
   152    14    15    1
   153    67    68    1
   154    11    10    1
   155   117   118    1
   156   118   119    1
   157    82    81   ar
   158    82    80   ar
   159     9     7   ar
   160    81    79   ar
   161    15    16    2
   162    15    17   am
   163    68    73   am
   164    68    69    2
   165    80    78   ar
   166    73    74    1
   167   120   119   ar
   168     8     7   ar
   169   119   121   ar
   170     7     6    1
   171    79    78   ar
   172    78    77    1
   173     5     6    1
   174     5     2    1
   175     4     3    2
   176    74    77    1
   177    74    75    1
   178     3     2    1
   179     2     1    1
   180    75    76    2
