@<TRIPOS>MOLECULE
tmp/4elbB00.pdb
 189 179 0 0 0
SMALL
GASTEIGER

@<TRIPOS>ATOM
      1  N         15.8480   -3.7450   51.5250 N.3     6  MET6       -0.1230
      2  CA        15.6060   -3.3400   50.1500 C.3     6  MET6        0.1702
      3  C         16.1500   -4.4470   49.2510 C.2     6  MET6        0.2592
      4  O         17.3400   -4.7500   49.3040 O.2     6  MET6       -0.2718
      5  CB        16.3050   -2.0150   49.8610 C.3     6  MET6        0.0401
      6  CG        16.2850   -1.6140   48.4050 C.3     6  MET6        0.0596
      7  SD        14.6040   -1.2640   47.8610 S.3     6  MET6       -0.1393
      8  CE        14.2130    0.1790   48.8470 C.3     6  MET6        0.0692
      9  N         15.2940   -5.0610   48.4400 N.am    7  VAL7       -0.1966
     10  CA        15.7090   -6.2350   47.6750 C.3     7  VAL7        0.1727
     11  C         15.1680   -6.2340   46.2460 C.2     7  VAL7        0.2616
     12  O         14.0210   -5.8570   46.0030 O.2     7  VAL7       -0.2715
     13  CB        15.2480   -7.5390   48.3570 C.3     7  VAL7        0.0290
     14  CG1       15.8610   -8.7450   47.6670 C.3     7  VAL7        0.0023
     15  CG2       15.6180   -7.5220   49.8360 C.3     7  VAL7        0.0023
     16  N         16.0070   -6.6540   45.3050 N.am    8  ALA8       -0.1977
     17  CA        15.5590   -6.9460   43.9490 C.3     8  ALA8        0.1597
     18  C         15.9860   -8.3590   43.5760 C.2     8  ALA8        0.2287
     19  O         17.1750   -8.6770   43.5610 O.2     8  ALA8       -0.2864
     20  CB        16.1540   -5.9480   42.9650 C.3     8  ALA8        0.0319
     21  N         19.6480  -12.5430   43.1940 N.3    15  ILE15      -0.1231
     22  CA        19.9260  -11.1340   43.4540 C.3    15  ILE15       0.1692
     23  C         21.2630  -10.6960   42.8740 C.2    15  ILE15       0.2592
     24  O         21.6200   -9.5220   42.9470 O.2    15  ILE15      -0.2718
     25  CB        19.9370  -10.8020   44.9560 C.3    15  ILE15       0.0266
     26  CG1       20.9310  -11.7050   45.6870 C.3    15  ILE15       0.0019
     27  CG2       18.5430  -10.9160   45.5490 C.3    15  ILE15       0.0020
     28  CD1       21.0160  -11.4290   47.1630 C.3    15  ILE15       0.0001
     29  N         21.9930  -11.6320   42.2820 N.am   16  GLY16      -0.1957
     30  CA        23.3170  -11.3360   41.7760 C.3    16  GLY16       0.1869
     31  C         23.8720  -12.4580   40.9290 C.2    16  GLY16       0.2309
     32  O         23.4980  -13.6210   41.0830 O.2    16  GLY16      -0.2863
     33  N         29.0270  -11.2110   40.9270 N.3    19  ASN19      -0.1225
     34  CA        29.1370   -9.9430   41.6250 C.3    19  ASN19       0.1785
     35  C         28.5510   -8.7820   40.8230 C.2    19  ASN19       0.2597
     36  O         29.2030   -7.7570   40.6190 O.2    19  ASN19      -0.2718
     37  CB        30.6120   -9.7170   41.9380 C.3    19  ASN19       0.1169
     38  CG        31.1340  -10.6930   42.9780 C.2    19  ASN19       0.2627
     39  OD1       32.3050  -11.0800   42.9500 O.2    19  ASN19      -0.2716
     40  ND2       30.2520  -11.1360   43.8700 N.am   19  ASN19      -0.0877
     41  N         27.3090   -8.9510   40.3820 N.am   20  ASN20      -0.1960
     42  CA        26.6020   -7.9240   39.6280 C.3    20  ASN20       0.1819
     43  C         25.1590   -8.3410   39.3680 C.2    20  ASN20       0.2621
     44  O         24.7550   -9.4420   39.7310 O.2    20  ASN20      -0.2715
     45  CB        27.3190   -7.6340   38.3090 C.3    20  ASN20       0.1195
     46  CG        27.7730   -6.1920   38.1950 C.2    20  ASN20       0.2630
     47  OD1       27.0920   -5.3620   37.5940 O.2    20  ASN20      -0.2716
     48  ND2       28.9280   -5.8870   38.7720 N.am   20  ASN20      -0.0877
     49  N         24.3800   -7.4630   38.7440 N.am   21  LEU21      -0.1977
     50  CA        22.9940   -7.7820   38.4420 C.3    21  LEU21       0.1596
     51  C         22.8880   -8.3660   37.0380 C.2    21  LEU21       0.2287
     52  O         23.4510   -7.8280   36.0870 O.2    21  LEU21      -0.2864
     53  CB        22.1380   -6.5200   38.5290 C.3    21  LEU21       0.0297
     54  CG        21.9690   -5.9080   39.9210 C.3    21  LEU21       0.0022
     55  CD1       21.1260   -4.6430   39.8660 C.3    21  LEU21       0.0001
     56  CD2       21.3860   -6.9160   40.9010 C.3    21  LEU21       0.0001
     57  N         17.3190    0.7070   35.0010 N.3    26  PRO26      -0.2116
     58  CA        17.5340    2.0230   35.6090 C.3    26  PRO26       0.1372
     59  C         16.2930    2.4980   36.3520 C.2    26  PRO26       0.2244
     60  O         16.4170    3.1520   37.3880 O.2    26  PRO26      -0.2868
     61  CB        17.8470    2.9290   34.4140 C.3    26  PRO26       0.0268
     62  CG        17.4470    2.1640   33.2070 C.3    26  PRO26       0.0207
     63  CD        17.5730    0.7170   33.5520 C.3    26  PRO26       0.0892
     64  N         14.0760    0.6920   37.9720 N.3    28  GLU28      -0.1231
     65  CA        14.1060    0.0110   39.2650 C.3    28  GLU28       0.1699
     66  C         15.0260    0.7210   40.2530 C.2    28  GLU28       0.2592
     67  O         14.7120    0.8350   41.4390 O.2    28  GLU28      -0.2718
     68  CB        14.5560   -1.4460   39.0960 C.3    28  GLU28       0.0402
     69  CG        14.0400   -2.4160   40.1620 C.3    28  GLU28       0.1161
     70  CD        14.8370   -2.3600   41.4590 C.2    28  GLU28       0.3649
     71  OE1       16.0690   -2.1680   41.3980 O.co2  28  GLU28      -0.2457
     72  OE2       14.2370   -2.5300   42.5420 O.co2  28  GLU28      -0.2457
     73  N         16.1670    1.1870   39.7530 N.am   29  LEU29      -0.1966
     74  CA        17.1450    1.8810   40.5810 C.3    29  LEU29       0.1728
     75  C         16.6700    3.2720   40.9950 C.2    29  LEU29       0.2616
     76  O         17.0090    3.7630   42.0740 O.2    29  LEU29      -0.2715
     77  CB        18.4880    1.9420   39.8490 C.3    29  LEU29       0.0311
     78  CG        19.0690    0.5680   39.4990 C.3    29  LEU29       0.0022
     79  CD1       20.3830    0.6860   38.7360 C.3    29  LEU29       0.0001
     80  CD2       19.2470   -0.2670   40.7570 C.3    29  LEU29       0.0001
     81  N         15.8720    3.8940   40.1340 N.am   30  GLN30      -0.1977
     82  CA        15.2440    5.1670   40.4540 C.3    30  GLN30       0.1601
     83  C         14.2610    4.9780   41.5990 C.2    30  GLN30       0.2287
     84  O         14.1160    5.8460   42.4570 O.2    30  GLN30      -0.2864
     85  CB        14.5370    5.7590   39.2330 C.3    30  GLN30       0.0394
     86  CG        14.5120    7.2820   39.2160 C.3    30  GLN30       0.0908
     87  CD        15.8980    7.8870   39.0860 C.2    30  GLN30       0.2608
     88  OE1       16.8600    7.1980   38.7460 O.2    30  GLN30      -0.2717
     89  NE2       16.0070    9.1820   39.3590 N.am   30  GLN30      -0.0878
     90  N         14.6190    2.6250   43.9850 N.3    32  VAL32      -0.1231
     91  CA        15.5260    2.5360   45.1290 C.3    32  VAL32       0.1692
     92  C         15.9180    3.9130   45.6560 C.2    32  VAL32       0.2591
     93  O         15.8640    4.1730   46.8580 O.2    32  VAL32      -0.2718
     94  CB        16.8050    1.7380   44.7860 C.3    32  VAL32       0.0266
     95  CG1       17.8600    1.9330   45.8630 C.3    32  VAL32       0.0020
     96  CG2       16.4890    0.2610   44.5960 C.3    32  VAL32       0.0020
     97  N         16.3100    4.7850   44.7340 N.am   33  LYS33      -0.1980
     98  CA        16.7640    6.1330   45.0510 C.3    33  LYS33       0.1596
     99  C         15.6630    6.9050   45.7680 C.2    33  LYS33       0.2287
    100  O         15.9080    7.5700   46.7750 O.2    33  LYS33      -0.2864
    101  CB        17.1860    6.8390   43.7610 C.3    33  LYS33       0.0298
    102  CG        17.6780    8.2620   43.9140 C.3    33  LYS33       0.0038
    103  CD        17.9900    8.8360   42.5390 C.3    33  LYS33       0.0206
    104  CE        18.4890   10.2630   42.6090 C.3    33  LYS33       0.1093
    105  NZ        17.3450   11.2060   42.4500 N.3    33  LYS33      -0.1314
    106  N         14.6730    5.2920   49.3620 N.3    36  THR36      -0.1218
    107  CA        15.7180    5.3990   50.3790 C.3    36  THR36       0.1862
    108  C         16.1630    6.8350   50.6200 C.2    36  THR36       0.2287
    109  O         17.0750    7.0770   51.4090 O.2    36  THR36      -0.2866
    110  CB        16.9830    4.5740   50.0130 C.3    36  THR36       0.1770
    111  OG1       17.4810    4.9860   48.7330 O.3    36  THR36      -0.2211
    112  CG2       16.6870    3.0800   49.9910 C.3    36  THR36       0.0375
    113  N         29.0520   -5.8340   47.8430 N.3    47  ASN47      -0.1240
    114  CA        27.9090   -5.1130   47.3120 C.3    47  ASN47       0.1653
    115  C         28.1770   -3.6600   46.9410 C.2    47  ASN47       0.2266
    116  O         27.7820   -3.2140   45.8660 O.2    47  ASN47      -0.2867
    117  CB        26.7690   -5.1700   48.3380 C.3    47  ASN47       0.1155
    118  CG        25.4100   -5.3730   47.7030 C.2    47  ASN47       0.2627
    119  OD1       25.0150   -6.4990   47.3900 O.2    47  ASN47      -0.2716
    120  ND2       24.6790   -4.2780   47.5140 N.am   47  ASN47      -0.0877
    121  N         30.3810   -3.4960   43.8360 N.3    50  ALA50      -0.1231
    122  CA        29.5990   -3.9410   42.6880 C.3    50  ALA50       0.1694
    123  C         28.8700   -2.7560   42.0760 C.2    50  ALA50       0.2591
    124  O         28.6940   -2.6590   40.8620 O.2    50  ALA50      -0.2718
    125  CB        28.6270   -5.0360   43.0830 C.3    50  ALA50       0.0304
    126  N         28.4650   -1.8460   42.9470 N.am   51  ILE51      -0.1980
    127  CA        27.7740   -0.6400   42.5400 C.3    51  ILE51       0.1595
    128  C         28.7690    0.2920   41.8490 C.2    51  ILE51       0.2287
    129  O         28.3910    1.0280   40.9390 O.2    51  ILE51      -0.2864
    130  CB        27.1250    0.0770   43.7410 C.3    51  ILE51       0.0276
    131  CG1       26.0520   -0.8100   44.3790 C.3    51  ILE51       0.0022
    132  CG2       26.5360    1.4090   43.3150 C.3    51  ILE51       0.0022
    133  CD1       25.3470   -0.1670   45.5500 C.3    51  ILE51       0.0001
    134  N         26.3600    6.3400   46.6040 N.3    55  LEU55      -0.1231
    135  CA        25.1580    7.0050   46.1160 C.3    55  LEU55       0.1678
    136  C         24.9660    8.3690   46.7680 C.2    55  LEU55       0.2434
    137  O         24.8360    8.4750   47.9860 O.2    55  LEU55      -0.2733
    138  CB        23.9380    6.1180   46.3510 C.3    55  LEU55       0.0284
    139  CG        24.1820    4.6410   46.0390 C.3    55  LEU55       0.0019
    140  CD1       23.3100    3.7470   46.9010 C.3    55  LEU55       0.0001
    141  CD2       23.9590    4.3620   44.5620 C.3    55  LEU55       0.0001
    142  N         24.9490    9.4110   45.9430 N.am   56  PRO56      -0.2729
    143  CA        24.8470   10.7880   46.4360 C.3    56  PRO56       0.1401
    144  C         23.4750   11.1430   47.0010 C.2    56  PRO56       0.2269
    145  O         22.4680   11.0550   46.3010 O.2    56  PRO56      -0.2865
    146  CB        25.1300   11.6260   45.1850 C.3    56  PRO56       0.0296
    147  CG        24.7730   10.7410   44.0480 C.3    56  PRO56       0.0237
    148  CD        25.1440    9.3590   44.4850 C.3    56  PRO56       0.0939
    149  N         22.5450   10.1730   50.4540 N.3    58  ARG58      -0.1245
    150  CA        22.2400    9.3820   51.6500 C.3    58  ARG58       0.1563
    151  C         23.4890    8.9200   52.4040 C.2    58  ARG58       0.2260
    152  O         24.5620    8.7990   51.8140 O.2    58  ARG58      -0.2867
    153  CB        21.3760    8.1490   51.3440 C.3    58  ARG58       0.0307
    154  CG        22.0050    7.1210   50.4130 C.3    58  ARG58       0.0489
    155  CD        21.1380    6.7350   49.2230 C.3    58  ARG58       0.2205
    156  NE        19.8380    7.3950   49.1990 N.pl3  58  ARG58      -0.0865
    157  CZ        19.5600    8.4290   48.4150 C.cat  58  ARG58       0.5346
    158  NH1       18.3560    8.9800   48.4320 N.pl3  58  ARG58       0.1354
    159  NH2       20.4960    8.9110   47.6120 N.pl3  58  ARG58       0.1354
    160  N         20.7100   -3.3910   52.3670 N.3    96  PHE96      -0.1241
    161  CA        20.7740   -3.2730   50.9190 C.3    96  PHE96       0.1605
    162  C         21.3900   -4.5260   50.3340 C.2    96  PHE96       0.2264
    163  O         21.5460   -4.6560   49.1190 O.2    96  PHE96      -0.2867
    164  CB        21.5930   -2.0400   50.5350 C.3    96  PHE96       0.0534
    165  CG        21.3560   -1.5660   49.1310 C.ar   96  PHE96      -0.0203
    166  CD1       20.0700   -1.3340   48.6750 C.ar   96  PHE96      -0.0042
    167  CD2       22.4170   -1.3310   48.2760 C.ar   96  PHE96      -0.0042
    168  CE1       19.8460   -0.8920   47.3880 C.ar   96  PHE96      -0.0003
    169  CE2       22.1990   -0.8880   46.9870 C.ar   96  PHE96      -0.0003
    170  CZ        20.9120   -0.6680   46.5430 C.ar   96  PHE96      -0.0000
    171  N         21.8340   -9.7920   54.7460 N.3   102  TYR102     -0.1241
    172  CA        20.4300  -10.0170   55.0530 C.3   102  TYR102      0.1605
    173  C         20.3050  -10.9790   56.2190 C.2   102  TYR102      0.2264
    174  O         19.5480  -10.7460   57.1610 O.2   102  TYR102     -0.2867
    175  CB        19.7040  -10.6030   53.8420 C.3   102  TYR102      0.0534
    176  CG        19.5360   -9.6530   52.6810 C.ar  102  TYR102     -0.0201
    177  CD1       19.0530   -8.3680   52.8750 C.ar  102  TYR102     -0.0009
    178  CD2       19.8400  -10.0510   51.3850 C.ar  102  TYR102     -0.0009
    179  CE1       18.8900   -7.5000   51.8140 C.ar  102  TYR102      0.0417
    180  CE2       19.6790   -9.1910   50.3170 C.ar  102  TYR102      0.0417
    181  CZ        19.2020   -7.9180   50.5370 C.ar  102  TYR102      0.1957
    182  OH        19.0420   -7.0550   49.4790 O.3   102  TYR102     -0.2866
    183  N         11.5300   -6.0290   45.1100 N.3   115  THR115     -0.1218
    184  CA        11.2130   -5.9690   43.6870 C.3   115  THR115      0.1862
    185  C         11.2910   -7.3750   43.1020 C.2   115  THR115      0.2287
    186  O         12.3440   -8.0120   43.1310 O.2   115  THR115     -0.2866
    187  CB        12.1710   -5.0450   42.9180 C.3   115  THR115      0.1770
    188  OG1       12.0360   -3.7050   43.4100 O.3   115  THR115     -0.2211
    189  CG2       11.8380   -5.0570   41.4330 C.3   115  THR115      0.0375
@<TRIPOS>BOND
     1    62    63    1
     2    62    61    1
     3    63    57    1
     4    61    58    1
     5    57    58    1
     6    58    59    1
     7    52    51    2
     8    59    60    2
     9    51    50    1
    10    47    46    2
    11    64    65    1
    12    46    45    1
    13    46    48   am
    14    45    42    1
    15    50    53    1
    16    50    49    1
    17    53    54    1
    18    79    78    1
    19    49    43   am
    20    88    87    2
    21    87    86    1
    22    87    89   am
    23    68    65    1
    24    68    69    1
    25    86    85    1
    26    85    82    1
    27    65    66    1
    28    43    42    1
    29    43    44    2
    30    78    77    1
    31    78    80    1
    32    42    41    1
    33    73    66   am
    34    73    74    1
    35    77    74    1
    36    55    54    1
    37    54    56    1
    38    81    82    1
    39    81    75   am
    40    69    70    1
    41    66    67    2
    42    41    35   am
    43    82    83    1
    44    74    75    1
    45    36    35    2
    46    35    34    1
    47   124   123    2
    48    33    34    1
    49    31    32    2
    50    31    30    1
    51   129   128    2
    52    75    76    2
    53    71    70   ar
    54   189   187    1
    55    70    72   ar
    56    83    84    2
    57    34    37    1
    58    30    29    1
    59   128   127    1
    60    37    38    1
    61   123   122    1
    62   123   126   am
    63    29    23   am
    64   105   104    1
    65   103   104    1
    66   103   102    1
    67   127   126    1
    68   127   130    1
    69   122   125    1
    70   122   121    1
    71    23    24    2
    72    23    22    1
    73   187   188    1
    74   187   184    1
    75    39    38    2
    76    20    17    1
    77    38    40   am
    78   185   186    2
    79   185   184    1
    80    21    22    1
    81   132   130    1
    82    22    25    1
    83    19    18    2
    84    18    17    1
    85   184   183    1
    86   130   131    1
    87   101   102    1
    88   101    98    1
    89    17    16    1
    90    90    91    1
    91   147   148    1
    92   147   146    1
    93   131   133    1
    94   148   142    1
    95   141   139    1
    96    96    94    1
    97    97    98    1
    98    97    92   am
    99    94    91    1
   100    94    95    1
   101    25    27    1
   102    25    26    1
   103    98    99    1
   104    91    92    1
   105   146   143    1
   106    16    11   am
   107    92    93    2
   108    26    28    1
   109    99   100    2
   110   116   115    2
   111   142   143    1
   112   142   136   am
   113    12    11    2
   114   139   138    1
   115   139   140    1
   116   135   138    1
   117   135   134    1
   118   135   136    1
   119    11    10    1
   120   145   144    2
   121   143   144    1
   122   170   169   ar
   123   170   168   ar
   124   136   137    2
   125   115   114    1
   126   169   167   ar
   127   114   113    1
   128   114   117    1
   129   168   166   ar
   130   119   118    2
   131   120   118   am
   132   159   157    1
   133    14    13    1
   134    10    13    1
   135    10     9    1
   136   118   117    1
   137     7     6    1
   138     7     8    1
   139   167   165   ar
   140    13    15    1
   141     6     5    1
   142   157   158    1
   143   157   156    2
   144     9     3   am
   145   166   165   ar
   146   111   110    1
   147   163   162    2
   148   165   164    1
   149   156   155    1
   150   155   154    1
   151     3     4    2
   152     3     2    1
   153   106   107    1
   154   182   181    1
   155     5     2    1
   156   112   110    1
   157   110   107    1
   158     2     1    1
   159   180   181   ar
   160   180   178   ar
   161   162   161    1
   162   107   108    1
   163   154   153    1
   164   149   150    1
   165   164   161    1
   166   181   179   ar
   167   108   109    2
   168   161   160    1
   169   153   150    1
   170   178   176   ar
   171   150   151    1
   172   179   177   ar
   173   152   151    2
   174   176   177   ar
   175   176   175    1
   176   175   172    1
   177   171   172    1
   178   172   173    1
   179   173   174    2
