@<TRIPOS>MOLECULE
tmp/4elcA00.pdb
 98 94 0 0 0
SMALL
GASTEIGER

@<TRIPOS>ATOM
      1  N          2.3210   -1.0490   33.6310 N.3   171  PHE171     -0.1241
      2  CA         3.6230   -1.6680   33.3500 C.3   171  PHE171      0.1605
      3  C          4.4830   -1.5630   34.5720 C.2   171  PHE171      0.2264
      4  O          5.4610   -0.8690   34.5950 O.2   171  PHE171     -0.2867
      5  CB         4.2890   -0.9970   32.1570 C.3   171  PHE171      0.0534
      6  CG         3.5930   -1.2270   30.8450 C.ar  171  PHE171     -0.0203
      7  CD1        2.5980   -2.2150   30.7000 C.ar  171  PHE171     -0.0042
      8  CD2        3.9440   -0.4520   29.7270 C.ar  171  PHE171     -0.0042
      9  CE1        1.9460   -2.4510   29.4000 C.ar  171  PHE171     -0.0003
     10  CE2        3.3140   -0.6350   28.4370 C.ar  171  PHE171     -0.0003
     11  CZ         2.2850   -1.6190   28.2620 C.ar  171  PHE171     -0.0000
     12  N         -0.7120    4.0830   23.6690 N.3   201  PHE201     -0.1241
     13  CA        -1.5420    5.1180   24.3320 C.3   201  PHE201      0.1605
     14  C         -1.6780    6.2540   23.3750 C.2   201  PHE201      0.2264
     15  O         -0.7720    6.5230   22.6390 O.2   201  PHE201     -0.2867
     16  CB        -0.8520    5.6320   25.5990 C.3   201  PHE201      0.0534
     17  CG        -0.4900    4.5380   26.5610 C.ar  201  PHE201     -0.0203
     18  CD1        0.6900    3.7690   26.3800 C.ar  201  PHE201     -0.0042
     19  CD2       -1.3520    4.2300   27.6320 C.ar  201  PHE201     -0.0042
     20  CE1        0.9940    2.7270   27.2310 C.ar  201  PHE201     -0.0003
     21  CE2       -1.0200    3.1940   28.5240 C.ar  201  PHE201     -0.0003
     22  CZ         0.1460    2.4460   28.3120 C.ar  201  PHE201     -0.0000
     23  N          7.9220    3.7520   25.0570 N.3   227  THR227     -0.1218
     24  CA         7.3730    3.2370   26.3150 C.3   227  THR227      0.1862
     25  C          8.2940    2.1570   26.8400 C.2   227  THR227      0.2287
     26  O          8.5570    2.1260   28.0470 O.2   227  THR227     -0.2866
     27  CB         5.9090    2.6060   26.0810 C.3   227  THR227      0.1770
     28  OG1        5.0960    3.6220   25.4730 O.3   227  THR227     -0.2211
     29  CG2        5.2470    2.1380   27.3940 C.3   227  THR227      0.0375
     30  N         11.3280    3.9160   28.3550 N.3   230  HIS230     -0.1226
     31  CA        10.9610    4.4600   29.6270 C.3   230  HIS230      0.1752
     32  C         11.0610    3.4140   30.7390 C.2   230  HIS230      0.2595
     33  O         11.6860    3.6740   31.7230 O.2   230  HIS230     -0.2718
     34  CB         9.5430    4.9800   29.5220 C.3   230  HIS230      0.0759
     35  CG         9.0540    5.6210   30.8040 C.ar  230  HIS230      0.0818
     36  ND1        8.8340    6.9890   30.9460 N.ar  230  HIS230     -0.2268
     37  CD2        8.6560    5.0430   31.9630 C.ar  230  HIS230      0.1154
     38  CE1        8.3830    7.2190   32.1640 C.ar  230  HIS230      0.1986
     39  NE2        8.2650    6.0570   32.8050 N.ar  230  HIS230     -0.2212
     40  N         10.5100    2.2120   30.5330 N.am  231  GLU231     -0.1979
     41  CA        10.6080    1.1590   31.5660 C.3   231  GLU231      0.1602
     42  C         12.0970    0.7380   31.7320 C.2   231  GLU231      0.2287
     43  O         12.5020    0.4130   32.8570 O.2   231  GLU231     -0.2864
     44  CB         9.8300   -0.0760   31.1530 C.3   231  GLU231      0.0415
     45  CG         8.3520    0.2240   30.8690 C.3   231  GLU231      0.1163
     46  CD         7.6160    0.9790   31.9650 C.2   231  GLU231      0.3649
     47  OE1        8.1180    1.0980   33.0610 O.co2 231  GLU231     -0.2457
     48  OE2        6.4810    1.4150   31.7410 O.co2 231  GLU231     -0.2457
     49  N         13.9470    3.0950   34.0060 N.3   234  HIS234     -0.1241
     50  CA        13.6190    2.7980   35.4150 C.3   234  HIS234      0.1621
     51  C         14.4260    1.6150   35.8520 C.2   234  HIS234      0.2264
     52  O         15.0300    1.6040   36.9250 O.2   234  HIS234     -0.2867
     53  CB        12.1460    2.3830   35.5770 C.3   234  HIS234      0.0745
     54  CG        11.1960    3.5360   35.6440 C.ar  234  HIS234      0.0817
     55  ND1       11.3970    4.6190   36.4770 N.ar  234  HIS234     -0.2268
     56  CD2       10.0130    3.7360   35.0260 C.ar  234  HIS234      0.1154
     57  CE1       10.4030    5.4770   36.3100 C.ar  234  HIS234      0.1986
     58  NE2        9.5280    4.9480   35.4680 N.ar  234  HIS234     -0.2212
     59  N          9.6560    9.3510   38.6120 N.3   269  GLU269     -0.1245
     60  CA         9.0580    9.5890   37.2670 C.3   269  GLU269      0.1567
     61  C          9.5230   10.8560   36.5310 C.2   269  GLU269      0.2260
     62  O          9.8140   10.7810   35.3380 O.2   269  GLU269     -0.2867
     63  CB         7.5280    9.5260   37.3180 C.3   269  GLU269      0.0388
     64  CG         7.1050    8.2230   37.8450 C.3   269  GLU269      0.1160
     65  CD         7.3130    7.0930   36.8440 C.2   269  GLU269      0.3649
     66  OE1        7.6500    7.3220   35.6600 O.co2 269  GLU269     -0.2457
     67  OE2        7.1210    5.9730   37.2810 O.co2 269  GLU269     -0.2457
     68  N          4.4010   12.6730   24.0130 N.3   370  ARG370     -0.1245
     69  CA         4.0310   13.6350   25.0350 C.3   370  ARG370      0.1563
     70  C          5.2250   14.5030   25.3930 C.2   370  ARG370      0.2260
     71  O          6.3790   14.0430   25.3600 O.2   370  ARG370     -0.2867
     72  CB         3.4930   12.9030   26.2520 C.3   370  ARG370      0.0307
     73  CG         4.5670   12.0570   26.9990 C.3   370  ARG370      0.0489
     74  CD         3.9460   11.2800   28.0850 C.3   370  ARG370      0.2205
     75  NE         4.9270   10.3520   28.7300 N.pl3 370  ARG370     -0.0865
     76  CZ         4.6070    9.3990   29.6130 C.cat 370  ARG370      0.5346
     77  NH1        3.3340    9.2340   30.0110 N.pl3 370  ARG370      0.1354
     78  NH2        5.5740    8.6190   30.1330 N.pl3 370  ARG370      0.1354
     79  N          5.6190   14.4690   31.3460 N.3   373  TYR373     -0.1241
     80  CA         4.8640   13.4540   32.0630 C.3   373  TYR373      0.1605
     81  C          3.5580   14.0040   32.7310 C.2   373  TYR373      0.2264
     82  O          2.6620   13.2550   33.1140 O.2   373  TYR373     -0.2867
     83  CB         5.7650   12.9350   33.2160 C.3   373  TYR373      0.0534
     84  CG         5.3920   11.6000   33.8020 C.ar  373  TYR373     -0.0201
     85  CD1        5.7000   10.3880   33.1420 C.ar  373  TYR373     -0.0009
     86  CD2        4.6760   11.5550   35.0070 C.ar  373  TYR373     -0.0009
     87  CE1        5.3550    9.1400   33.7300 C.ar  373  TYR373      0.0417
     88  CE2        4.3050   10.3360   35.6030 C.ar  373  TYR373      0.0417
     89  CZ         4.6980    9.1250   34.9800 C.ar  373  TYR373      0.1957
     90  OH         4.2560    7.9810   35.6130 O.3   373  TYR373     -0.2866
     91  N         -3.6060   10.8900   30.2060 N.3   377  ASP377     -0.1239
     92  CA        -3.8240    9.9520   29.0840 C.3   377  ASP377      0.1674
     93  C         -5.1920   10.1270   28.3790 C.2   377  ASP377      0.2266
     94  O         -6.1820   10.5210   29.0220 O.2   377  ASP377     -0.2867
     95  CB        -3.6540    8.4920   29.5550 C.3   377  ASP377      0.1410
     96  CG        -2.2390    8.1990   30.0180 C.2   377  ASP377      0.3668
     97  OD1       -1.3210    8.4450   29.1910 O.co2 377  ASP377     -0.2456
     98  OD2       -2.0760    7.7660   31.2120 O.co2 377  ASP377     -0.2456
@<TRIPOS>BOND
     1    15    14    2
     2    14    13    1
     3    12    13    1
     4    68    69    1
     5    13    16    1
     6    69    70    1
     7    69    72    1
     8    23    24    1
     9    71    70    2
    10    28    27    1
    11    16    17    1
    12    27    24    1
    13    27    29    1
    14    72    73    1
    15    24    25    1
    16    18    17   ar
    17    18    20   ar
    18    17    19   ar
    19    25    26    2
    20    73    74    1
    21    20    22   ar
    22    19    21   ar
    23    74    75    1
    24    11    10   ar
    25    11     9   ar
    26    22    21   ar
    27    30    31    1
    28    93    94    2
    29    93    92    1
    30    10     8   ar
    31    75    76    2
    32    92    95    1
    33    92    91    1
    34    97    96   ar
    35     9     7   ar
    36    34    31    1
    37    34    35    1
    38    95    96    1
    39    76    77    1
    40    76    78    1
    41    31    32    1
    42     8     6   ar
    43    96    98   ar
    44    40    32   am
    45    40    41    1
    46     7     6   ar
    47    32    33    2
    48    35    36   ar
    49    35    37   ar
    50     6     5    1
    51    45    44    1
    52    45    46    1
    53    36    38   ar
    54    44    41    1
    55    79    80    1
    56    41    42    1
    57    42    43    2
    58    48    46   ar
    59    37    39   ar
    60    46    47   ar
    61    80    81    1
    62    80    83    1
    63     5     2    1
    64    38    39   ar
    65    81    82    2
    66    85    87   ar
    67    85    84   ar
    68    83    84    1
    69     2     1    1
    70     2     3    1
    71    87    89   ar
    72    84    86   ar
    73    49    50    1
    74     3     4    2
    75    89    88   ar
    76    89    90    1
    77    86    88   ar
    78    56    58   ar
    79    56    54   ar
    80    62    61    2
    81    50    53    1
    82    50    51    1
    83    58    57   ar
    84    53    54    1
    85    54    55   ar
    86    66    65   ar
    87    51    52    2
    88    57    55   ar
    89    61    60    1
    90    65    67   ar
    91    65    64    1
    92    60    63    1
    93    60    59    1
    94    63    64    1
