@<TRIPOS>MOLECULE
tmp/4elhH00.pdb
 189 181 0 0 0
SMALL
GASTEIGER

@<TRIPOS>ATOM
      1  N         16.6520   29.4450   32.0090 N.3     6  MET6       -0.1230
      2  CA        16.7180   29.9660   33.3630 C.3     6  MET6        0.1702
      3  C         15.9710   28.9700   34.2180 C.2     6  MET6        0.2592
      4  O         14.7760   28.7610   34.0210 O.2     6  MET6       -0.2718
      5  CB        16.0580   31.3280   33.4580 C.3     6  MET6        0.0401
      6  CG        15.9220   31.8720   34.8760 C.3     6  MET6        0.0596
      7  SD        17.5070   32.1390   35.6980 S.3     6  MET6       -0.1393
      8  CE        18.0450   33.6780   34.9810 C.3     6  MET6        0.0692
      9  N         16.6830   28.3540   35.1580 N.am    7  VAL7       -0.1966
     10  CA        16.1000   27.3230   36.0070 C.3     7  VAL7        0.1727
     11  C         16.6390   27.3660   37.4430 C.2     7  VAL7        0.2616
     12  O         17.7870   27.7600   37.6920 O.2     7  VAL7       -0.2715
     13  CB        16.3560   25.9330   35.4100 C.3     7  VAL7        0.0290
     14  CG1       17.8390   25.6530   35.3590 C.3     7  VAL7        0.0023
     15  CG2       15.6370   24.8640   36.2100 C.3     7  VAL7        0.0023
     16  N         15.7970   26.9530   38.3850 N.am    8  ALA8       -0.1977
     17  CA        16.2410   26.7100   39.7420 C.3     8  ALA8        0.1597
     18  C         15.7880   25.3050   40.1520 C.2     8  ALA8        0.2287
     19  O         14.6040   24.9670   40.0550 O.2     8  ALA8       -0.2864
     20  CB        15.6860   27.7920   40.6920 C.3     8  ALA8        0.0319
     21  N         11.8470   21.0850   40.1860 N.3    15  ILE15      -0.1231
     22  CA        11.6740   22.4900   39.8400 C.3    15  ILE15       0.1692
     23  C         10.2980   22.9940   40.2490 C.2    15  ILE15       0.2592
     24  O          9.9940   24.1730   40.1080 O.2    15  ILE15      -0.2718
     25  CB        11.9120   22.7360   38.3390 C.3    15  ILE15       0.0266
     26  CG1       10.9670   21.8480   37.5060 C.3    15  ILE15       0.0019
     27  CG2       13.3810   22.4610   38.0100 C.3    15  ILE15       0.0020
     28  CD1       11.0160   22.0830   35.9870 C.3    15  ILE15       0.0001
     29  N          9.4740   22.0990   40.7770 N.am   16  GLY16      -0.1957
     30  CA         8.1460   22.4730   41.2220 C.3    16  GLY16       0.1869
     31  C          7.4630   21.4000   42.0570 C.2    16  GLY16       0.2309
     32  O          7.8030   20.2180   41.9730 O.2    16  GLY16      -0.2863
     33  N          2.7490   23.0700   41.2610 N.3    19  ASN19      -0.1225
     34  CA         2.8710   24.3140   40.4990 C.3    19  ASN19       0.1785
     35  C          3.5030   25.4720   41.2670 C.2    19  ASN19       0.2597
     36  O          3.4650   26.6180   40.8190 O.2    19  ASN19      -0.2718
     37  CB         1.5180   24.7280   39.9200 C.3    19  ASN19       0.1169
     38  CG         1.0150   23.7490   38.8890 C.2    19  ASN19       0.2627
     39  OD1        1.6970   23.4620   37.9000 O.2    19  ASN19      -0.2716
     40  ND2       -0.1710   23.2050   39.1250 N.am   19  ASN19      -0.0877
     41  N          4.0890   25.1710   42.4210 N.am   20  ASN20      -0.1960
     42  CA         4.8230   26.1810   43.1700 C.3    20  ASN20       0.1819
     43  C          6.2400   25.7440   43.5150 C.2    20  ASN20       0.2621
     44  O          6.6350   24.6030   43.2670 O.2    20  ASN20      -0.2715
     45  CB         4.0550   26.6000   44.4230 C.3    20  ASN20       0.1195
     46  CG         2.8310   27.4240   44.0920 C.2    20  ASN20       0.2630
     47  OD1        2.9360   28.6020   43.7380 O.2    20  ASN20      -0.2716
     48  ND2        1.6600   26.8060   44.1880 N.am   20  ASN20      -0.0877
     49  N          7.0140   26.6680   44.0600 N.am   21  LEU21      -0.1977
     50  CA         8.3810   26.3640   44.4480 C.3    21  LEU21       0.1596
     51  C          8.3840   25.7780   45.8430 C.2    21  LEU21       0.2287
     52  O          7.8110   26.3680   46.7580 O.2    21  LEU21      -0.2864
     53  CB         9.2230   27.6350   44.4250 C.3    21  LEU21       0.0297
     54  CG         9.5090   28.1690   43.0270 C.3    21  LEU21       0.0022
     55  CD1       10.3210   29.4440   43.1360 C.3    21  LEU21       0.0001
     56  CD2       10.2560   27.1220   42.2280 C.3    21  LEU21       0.0001
     57  N         17.2570   34.5620   45.3500 N.3    28  GLU28      -0.1231
     58  CA        17.3110   33.8210   44.0910 C.3    28  GLU28       0.1699
     59  C         16.4560   34.5270   43.0430 C.2    28  GLU28       0.2592
     60  O         16.8640   34.6960   41.8960 O.2    28  GLU28      -0.2718
     61  CB        16.7860   32.3920   44.2930 C.3    28  GLU28       0.0402
     62  CG        17.3480   31.3660   43.3120 C.3    28  GLU28       0.1161
     63  CD        16.7180   31.4260   41.9040 C.2    28  GLU28       0.3649
     64  OE1       15.4770   31.5550   41.7770 O.co2  28  GLU28      -0.2457
     65  OE2       17.4730   31.3080   40.9150 O.co2  28  GLU28      -0.2457
     66  N         15.2580   34.9310   43.4540 N.am   29  LEU29      -0.1966
     67  CA        14.3250   35.6020   42.5620 C.3    29  LEU29       0.1728
     68  C         14.8360   36.9780   42.1690 C.2    29  LEU29       0.2616
     69  O         14.5920   37.4270   41.0510 O.2    29  LEU29      -0.2715
     70  CB        12.9320   35.6950   43.1980 C.3    29  LEU29       0.0311
     71  CG        12.1930   34.3560   43.3610 C.3    29  LEU29       0.0022
     72  CD1       10.8080   34.5760   43.9340 C.3    29  LEU29       0.0001
     73  CD2       12.0970   33.6280   42.0280 C.3    29  LEU29       0.0001
     74  N         15.5510   37.6480   43.0720 N.am   30  GLN30      -0.1977
     75  CA        16.1900   38.9110   42.6990 C.3    30  GLN30       0.1601
     76  C         17.2560   38.6650   41.6400 C.2    30  GLN30       0.2287
     77  O         17.4510   39.4970   40.7630 O.2    30  GLN30      -0.2864
     78  CB        16.7990   39.6510   43.8970 C.3    30  GLN30       0.0394
     79  CG        15.7810   40.3020   44.8160 C.3    30  GLN30       0.0908
     80  CD        14.8480   41.2550   44.0810 C.2    30  GLN30       0.2608
     81  OE1       13.6210   41.1440   44.1910 O.2    30  GLN30      -0.2717
     82  NE2       15.4240   42.1990   43.3280 N.am   30  GLN30      -0.0878
     83  N         17.0720   36.2920   39.3900 N.3    32  VAL32      -0.1231
     84  CA        16.2870   36.1200   38.1610 C.3    32  VAL32       0.1692
     85  C         15.8670   37.4730   37.5700 C.2    32  VAL32       0.2591
     86  O         16.0270   37.7100   36.3690 O.2    32  VAL32      -0.2718
     87  CB        15.0240   35.2750   38.3900 C.3    32  VAL32       0.0266
     88  CG1       14.0890   35.3860   37.1760 C.3    32  VAL32       0.0020
     89  CG2       15.4010   33.8230   38.6400 C.3    32  VAL32       0.0020
     90  N         15.3340   38.3560   38.4160 N.am   33  LYS33      -0.1980
     91  CA        14.8560   39.6680   37.9640 C.3    33  LYS33       0.1596
     92  C         15.9680   40.4600   37.3000 C.2    33  LYS33       0.2287
     93  O         15.7910   41.0500   36.2070 O.2    33  LYS33      -0.2864
     94  CB        14.2760   40.4690   39.1300 C.3    33  LYS33       0.0298
     95  CG        14.1930   41.9690   38.8760 C.3    33  LYS33       0.0038
     96  CD        13.4590   42.6650   40.0010 C.3    33  LYS33       0.0206
     97  CE        13.5150   44.1690   39.8260 C.3    33  LYS33       0.1093
     98  NZ        12.1950   44.7600   40.1200 N.3    33  LYS33      -0.1314
     99  N          2.9920   27.7360   34.6210 N.3    47  ASN47      -0.1240
    100  CA         4.0250   28.5560   35.2400 C.3    47  ASN47       0.1653
    101  C          3.5690   30.0070   35.4130 C.2    47  ASN47       0.2266
    102  O          3.7430   30.6030   36.4770 O.2    47  ASN47      -0.2867
    103  CB         5.2810   28.5130   34.3680 C.3    47  ASN47       0.1155
    104  CG         6.5450   28.2860   35.1620 C.2    47  ASN47       0.2627
    105  OD1        6.7530   27.2170   35.7310 O.2    47  ASN47      -0.2716
    106  ND2        7.4150   29.2850   35.1780 N.am   47  ASN47      -0.0877
    107  N          0.8570   30.4160   38.0320 N.3    50  ALA50      -0.1231
    108  CA         1.3750   30.2240   39.3810 C.3    50  ALA50       0.1694
    109  C          2.0030   31.5060   39.9360 C.2    50  ALA50       0.2591
    110  O          1.7910   31.8530   41.1010 O.2    50  ALA50      -0.2718
    111  CB         2.3690   29.0730   39.4120 C.3    50  ALA50       0.0304
    112  N          2.7740   32.2040   39.1050 N.am   51  ILE51      -0.1980
    113  CA         3.3290   33.5040   39.4860 C.3    51  ILE51       0.1595
    114  C          2.2060   34.5260   39.6520 C.2    51  ILE51       0.2287
    115  O          2.2510   35.3740   40.5390 O.2    51  ILE51      -0.2864
    116  CB         4.3620   34.0140   38.4620 C.3    51  ILE51       0.0276
    117  CG1        5.4850   32.9860   38.2930 C.3    51  ILE51       0.0022
    118  CG2        4.9340   35.3550   38.9080 C.3    51  ILE51       0.0022
    119  CD1        6.4960   33.3570   37.2410 C.3    51  ILE51       0.0001
    120  N          1.0110   37.0660   37.8470 N.3    53  ARG53      -0.1231
    121  CA         1.0240   38.3630   37.1720 C.3    53  ARG53       0.1679
    122  C          2.3160   38.5670   36.3910 C.2    53  ARG53       0.2434
    123  O          3.3320   37.9460   36.6910 O.2    53  ARG53      -0.2733
    124  CB         0.8320   39.4980   38.1830 C.3    53  ARG53       0.0321
    125  CG         1.9910   39.6640   39.1490 C.3    53  ARG53       0.0489
    126  CD         1.6570   40.6570   40.2520 C.3    53  ARG53       0.2205
    127  NE         2.8250   40.9830   41.0680 N.pl3  53  ARG53      -0.0865
    128  CZ         3.6350   42.0130   40.8330 C.cat  53  ARG53       0.5346
    129  NH1        3.4040   42.8220   39.8040 N.pl3  53  ARG53       0.1354
    130  NH2        4.6760   42.2350   41.6270 N.pl3  53  ARG53       0.1354
    131  N          2.2840   39.4470   35.3850 N.am   54  PRO54      -0.2718
    132  CA         3.4940   39.6700   34.5890 C.3    54  PRO54       0.1535
    133  C          4.6450   40.1640   35.4540 C.2    54  PRO54       0.2598
    134  O          4.4170   40.9120   36.4070 O.2    54  PRO54      -0.2715
    135  CB         3.0700   40.7740   33.6130 C.3    54  PRO54       0.0310
    136  CG         1.5780   40.6900   33.5540 C.3    54  PRO54       0.0237
    137  CD         1.1520   40.2710   34.9220 C.3    54  PRO54       0.0939
    138  N          5.8610   39.7300   35.1390 N.am   55  LEU55      -0.1964
    139  CA         7.0460   40.3380   35.7220 C.3    55  LEU55       0.1713
    140  C          7.3180   41.5870   34.9050 C.2    55  LEU55       0.2458
    141  O          7.5970   41.5000   33.7160 O.2    55  LEU55      -0.2730
    142  CB         8.2440   39.3820   35.6760 C.3    55  LEU55       0.0310
    143  CG         9.5230   39.8590   36.3850 C.3    55  LEU55       0.0022
    144  CD1        9.2520   40.2520   37.8460 C.3    55  LEU55       0.0001
    145  CD2       10.6350   38.8150   36.2880 C.3    55  LEU55       0.0001
    146  N          7.2070   42.7630   35.5380 N.am   56  PRO56      -0.2727
    147  CA         7.2710   44.0440   34.8300 C.3    56  PRO56       0.1402
    148  C          8.6760   44.3130   34.3150 C.2    56  PRO56       0.2269
    149  O          9.6370   43.8390   34.9210 O.2    56  PRO56      -0.2865
    150  CB         6.9140   45.0520   35.9210 C.3    56  PRO56       0.0296
    151  CG         7.4160   44.4130   37.1740 C.3    56  PRO56       0.0237
    152  CD         7.1310   42.9460   36.9990 C.3    56  PRO56       0.0939
    153  N         11.6480   30.1090   30.7370 N.3    96  PHE96      -0.1241
    154  CA        11.4400   30.1780   32.1820 C.3    96  PHE96       0.1605
    155  C         10.7650   28.9270   32.7250 C.2    96  PHE96       0.2264
    156  O         10.6070   28.7620   33.9270 O.2    96  PHE96      -0.2867
    157  CB        10.6210   31.4180   32.5420 C.3    96  PHE96       0.0534
    158  CG        10.8280   31.8890   33.9530 C.ar   96  PHE96      -0.0203
    159  CD1       12.1070   32.0350   34.4620 C.ar   96  PHE96      -0.0042
    160  CD2        9.7500   32.2080   34.7580 C.ar   96  PHE96      -0.0042
    161  CE1       12.3090   32.4760   35.7520 C.ar   96  PHE96      -0.0003
    162  CE2        9.9440   32.6480   36.0460 C.ar   96  PHE96      -0.0003
    163  CZ        11.2270   32.7820   36.5460 C.ar   96  PHE96      -0.0000
    164  N         10.9090   23.6140   28.6360 N.3   102  TYR102     -0.1241
    165  CA        12.3190   23.2780   28.4450 C.3   102  TYR102      0.1605
    166  C         12.4460   22.1950   27.3730 C.2   102  TYR102      0.2264
    167  O         13.2720   22.3100   26.4750 O.2   102  TYR102     -0.2867
    168  CB        12.9780   22.7840   29.7440 C.3   102  TYR102      0.0534
    169  CG        13.0190   23.8010   30.8520 C.ar  102  TYR102     -0.0201
    170  CD1       13.7010   24.9990   30.6960 C.ar  102  TYR102     -0.0009
    171  CD2       12.3820   23.5600   32.0580 C.ar  102  TYR102     -0.0009
    172  CE1       13.7420   25.9340   31.7190 C.ar  102  TYR102      0.0417
    173  CE2       12.4110   24.4890   33.0840 C.ar  102  TYR102      0.0417
    174  CZ        13.0920   25.6680   32.9050 C.ar  102  TYR102      0.1957
    175  OH        13.1170   26.5850   33.9140 O.3   102  TYR102     -0.2866
    176  N         20.3730   27.5180   38.8590 N.3   115  THR115     -0.1218
    177  CA        20.6210   27.6470   40.2830 C.3   115  THR115      0.1862
    178  C         20.4770   26.2490   40.8840 C.2   115  THR115      0.2287
    179  O         19.4450   25.6080   40.6870 O.2   115  THR115     -0.2866
    180  CB        19.6010   28.5880   40.9410 C.3   115  THR115      0.1770
    181  OG1       19.5960   29.8490   40.2600 O.3   115  THR115     -0.2211
    182  CG2       19.9410   28.7980   42.4260 C.3   115  THR115      0.0375
    183  N          7.5430   17.6960   39.5640 N.3   125  THR125     -0.1218
    184  CA         7.9740   18.0600   38.2220 C.3   125  THR125      0.1862
    185  C          9.4850   18.3150   38.2320 C.2   125  THR125      0.2287
    186  O         10.0390   18.7570   39.2410 O.2   125  THR125     -0.2866
    187  CB         7.2070   19.2800   37.6910 C.3   125  THR125      0.1770
    188  OG1        7.5980   19.5270   36.3380 O.3   125  THR125     -0.2211
    189  CG2        7.5060   20.5280   38.5340 C.3   125  THR125      0.0375
@<TRIPOS>BOND
     1   167   166    2
     2   166   165    1
     3   165   164    1
     4   165   168    1
     5   168   169    1
     6   170   169   ar
     7   170   172   ar
     8   153   154    1
     9   169   171   ar
    10   172   174   ar
    11     1     2    1
    12   171   173   ar
    13   154   157    1
    14   154   155    1
    15   157   158    1
    16   155   156    2
    17   174   173   ar
    18   174   175    1
    19     2     5    1
    20     2     3    1
    21     5     6    1
    22   136   135    1
    23   136   137    1
    24   135   132    1
    25   141   140    2
    26   158   159   ar
    27   158   160   ar
    28     4     3    2
    29     3     9   am
    30   148   147    1
    31   148   149    2
    32   103   104    1
    33   103   100    1
    34   159   161   ar
    35   132   131    1
    36   132   133    1
    37    99   100    1
    38   160   162   ar
    39   147   146    1
    40   147   150    1
    41     6     7    1
    42   140   146   am
    43   140   139    1
    44   137   131    1
    45     8     7    1
    46   138   133   am
    47   138   139    1
    48     9    10    1
    49   104   106   am
    50   104   105    2
    51   100   101    1
    52    14    13    1
    53   131   122   am
    54    13    10    1
    55    13    15    1
    56   101   102    2
    57   133   134    2
    58   146   152    1
    59   142   139    1
    60   142   143    1
    61   161   163   ar
    62   150   151    1
    63    28    26    1
    64    10    11    1
    65   162   163   ar
    66    93    92    2
    67   145   143    1
    68   188   187    1
    69    86    85    2
    70   143   144    1
    71   122   123    2
    72   122   121    1
    73   152   151    1
    74   121   120    1
    75   121   124    1
    76    88    87    1
    77   119   117    1
    78    92    91    1
    79    11    12    2
    80    11    16   am
    81    26    25    1
    82    85    84    1
    83    85    90   am
    84   187   184    1
    85   187   189    1
    86    39    38    2
    87    91    90    1
    88    91    94    1
    89    27    25    1
    90   107   108    1
    91    84    87    1
    92    84    83    1
    93   124   125    1
    94   184   185    1
    95   184   183    1
    96   185   186    2
    97   117   116    1
    98    25    22    1
    99    16    17    1
   100    87    89    1
   101   116   118    1
   102   116   113    1
   103   176   177    1
   104    95    94    1
   105    95    96    1
   106    38    40   am
   107    38    37    1
   108   112   113    1
   109   112   109   am
   110   125   126    1
   111   108   111    1
   112   108   109    1
   113   113   114    1
   114   114   115    2
   115    17    18    1
   116    17    20    1
   117   129   128    1
   118    97    96    1
   119    97    98    1
   120    22    21    1
   121    22    23    1
   122    37    34    1
   123   109   110    2
   124    19    18    2
   125    24    23    2
   126    23    29   am
   127   126   127    1
   128   181   180    1
   129   177   178    1
   130   177   180    1
   131    34    33    1
   132    34    35    1
   133   179   178    2
   134    77    76    2
   135    29    30    1
   136    36    35    2
   137   128   127    2
   138   128   130    1
   139    65    63   ar
   140   180   182    1
   141    69    68    2
   142    30    31    1
   143    35    41   am
   144    76    75    1
   145    64    63   ar
   146    60    59    2
   147    63    62    1
   148    32    31    2
   149    73    71    1
   150    68    67    1
   151    68    74   am
   152    56    54    1
   153    41    42    1
   154    67    70    1
   155    67    66    1
   156    75    74    1
   157    75    78    1
   158    54    55    1
   159    54    53    1
   160    59    66   am
   161    59    58    1
   162    42    43    1
   163    42    45    1
   164    70    71    1
   165    44    43    2
   166    62    61    1
   167    82    80   am
   168    71    72    1
   169    43    49   am
   170    47    46    2
   171    78    79    1
   172    49    50    1
   173    80    81    2
   174    80    79    1
   175    58    61    1
   176    58    57    1
   177    46    48   am
   178    46    45    1
   179    53    50    1
   180    50    51    1
   181    51    52    2
