@<TRIPOS>MOLECULE
tmp/4elmA03.pdb
 221 210 0 0 0
SMALL
GASTEIGER

@<TRIPOS>ATOM
      1  N         43.8150  -33.4290  -18.3110 N.3    66  VAL66      -0.1231
      2  CA        42.6380  -33.2250  -19.1510 C.3    66  VAL66       0.1692
      3  C         41.5640  -32.4440  -18.3880 C.2    66  VAL66       0.2592
      4  O         40.7440  -31.7580  -18.9930 O.2    66  VAL66      -0.2718
      5  CB        42.0890  -34.5780  -19.6770 C.3    66  VAL66       0.0266
      6  CG1       40.7020  -34.4290  -20.2740 C.3    66  VAL66       0.0020
      7  CG2       43.0340  -35.1600  -20.7060 C.3    66  VAL66       0.0020
      8  N         41.5880  -32.5410  -17.0600 N.am   67  TYR67      -0.1976
      9  CA        40.6670  -31.7870  -16.2130 C.3    67  TYR67       0.1639
     10  C         41.0940  -30.3300  -16.0300 C.2    67  TYR67       0.2290
     11  O         40.2780  -29.4210  -16.1930 O.2    67  TYR67      -0.2864
     12  CB        40.5010  -32.4670  -14.8480 C.3    67  TYR67       0.0560
     13  CG        39.9790  -31.5490  -13.7580 C.ar   67  TYR67      -0.0198
     14  CD1       38.6250  -31.2260  -13.6810 C.ar   67  TYR67      -0.0009
     15  CD2       40.8440  -31.0030  -12.8030 C.ar   67  TYR67      -0.0009
     16  CE1       38.1420  -30.3820  -12.6830 C.ar   67  TYR67       0.0417
     17  CE2       40.3760  -30.1580  -11.8040 C.ar   67  TYR67       0.0417
     18  CZ        39.0210  -29.8500  -11.7470 C.ar   67  TYR67       0.1957
     19  OH        38.5360  -29.0150  -10.7570 O.3    67  TYR67      -0.2866
     20  N         40.4800  -28.2630  -19.0250 N.3    70  SER70      -0.1202
     21  CA        39.0290  -28.1930  -19.2210 C.3    70  SER70       0.2020
     22  C         38.3350  -27.3240  -18.1910 C.2    70  SER70       0.2618
     23  O         37.3750  -26.6310  -18.5170 O.2    70  SER70      -0.2717
     24  CB        38.4000  -29.5850  -19.1910 C.3    70  SER70       0.2103
     25  OG        37.9990  -29.9840  -20.4840 O.3    70  SER70      -0.2182
     26  N         38.8130  -27.3780  -16.9510 N.am   71  PHE71      -0.1975
     27  CA        38.2460  -26.5820  -15.8700 C.3    71  PHE71       0.1639
     28  C         38.4210  -25.0810  -16.1160 C.2    71  PHE71       0.2290
     29  O         37.5580  -24.2810  -15.7510 O.2    71  PHE71      -0.2864
     30  CB        38.8560  -26.9800  -14.5220 C.3    71  PHE71       0.0560
     31  CG        38.4010  -26.1200  -13.3800 C.ar   71  PHE71      -0.0200
     32  CD1       39.2360  -25.1370  -12.8600 C.ar   71  PHE71      -0.0042
     33  CD2       37.1280  -26.2730  -12.8420 C.ar   71  PHE71      -0.0042
     34  CE1       38.8120  -24.3310  -11.8180 C.ar   71  PHE71      -0.0003
     35  CE2       36.6980  -25.4740  -11.8010 C.ar   71  PHE71      -0.0003
     36  CZ        37.5400  -24.5020  -11.2860 C.ar   71  PHE71      -0.0000
     37  N         39.0110  -23.4580  -19.3220 N.3    73  ARG73      -0.1231
     38  CA        38.2320  -23.0520  -20.5010 C.3    73  ARG73       0.1694
     39  C         36.7390  -22.9610  -20.1990 C.2    73  ARG73       0.2592
     40  O         36.0650  -22.0600  -20.6890 O.2    73  ARG73      -0.2718
     41  CB        38.4770  -23.9950  -21.6850 C.3    73  ARG73       0.0321
     42  CG        39.8720  -23.8340  -22.3200 C.3    73  ARG73       0.0489
     43  CD        40.0340  -24.7410  -23.5280 C.3    73  ARG73       0.2205
     44  NE        39.9010  -26.1520  -23.1600 N.pl3  73  ARG73      -0.0865
     45  CZ        38.9370  -26.9740  -23.5710 C.cat  73  ARG73       0.5346
     46  NH1       38.0160  -26.5670  -24.4400 N.pl3  73  ARG73       0.1354
     47  NH2       38.9250  -28.2260  -23.1480 N.pl3  73  ARG73       0.1354
     48  N         36.2420  -23.8920  -19.3830 N.am   74  ASP74      -0.1960
     49  CA        34.8340  -23.9360  -18.9770 C.3    74  ASP74       0.1840
     50  C         34.4330  -22.7530  -18.1090 C.2    74  ASP74       0.2621
     51  O         33.4340  -22.0910  -18.3940 O.2    74  ASP74      -0.2715
     52  CB        34.5170  -25.2390  -18.2320 C.3    74  ASP74       0.1450
     53  CG        33.9320  -26.3130  -19.1380 C.2    74  ASP74       0.3671
     54  OD1       34.5280  -26.6090  -20.2020 O.co2  74  ASP74      -0.2456
     55  OD2       32.8750  -26.8760  -18.7710 O.co2  74  ASP74      -0.2456
     56  N         35.2020  -22.5000  -17.0500 N.am   75  ILE75      -0.1977
     57  CA        34.9230  -21.3900  -16.1420 C.3    75  ILE75       0.1596
     58  C         34.9650  -20.0580  -16.8810 C.2    75  ILE75       0.2287
     59  O         34.1230  -19.1910  -16.6470 O.2    75  ILE75      -0.2864
     60  CB        35.8800  -21.3650  -14.9240 C.3    75  ILE75       0.0276
     61  CG1       35.5510  -22.4990  -13.9490 C.3    75  ILE75       0.0022
     62  CG2       35.8070  -20.0290  -14.1980 C.3    75  ILE75       0.0022
     63  CD1       34.1320  -22.4750  -13.3990 C.3    75  ILE75       0.0001
     64  N         31.8950  -19.7330  -18.7640 N.3    78  LEU78      -0.1231
     65  CA        30.7780  -19.4610  -17.8640 C.3    78  LEU78       0.1693
     66  C         30.6590  -17.9750  -17.5230 C.2    78  LEU78       0.2591
     67  O         29.5800  -17.5010  -17.1730 O.2    78  LEU78      -0.2718
     68  CB        30.9170  -20.3090  -16.5920 C.3    78  LEU78       0.0284
     69  CG        29.7850  -20.4390  -15.5680 C.3    78  LEU78       0.0019
     70  CD1       28.4070  -20.5300  -16.2160 C.3    78  LEU78       0.0001
     71  CD2       30.0390  -21.6540  -14.6890 C.3    78  LEU78       0.0001
     72  N         31.7680  -17.2490  -17.6410 N.am   79  VAL79      -0.1980
     73  CA        31.7950  -15.8130  -17.3660 C.3    79  VAL79       0.1595
     74  C         31.4770  -15.0070  -18.6260 C.2    79  VAL79       0.2287
     75  O         30.7900  -13.9860  -18.5540 O.2    79  VAL79      -0.2864
     76  CB        33.1520  -15.3700  -16.7690 C.3    79  VAL79       0.0276
     77  CG1       33.1240  -13.8920  -16.3910 C.3    79  VAL79       0.0022
     78  CG2       33.4990  -16.2200  -15.5540 C.3    79  VAL79       0.0022
     79  N         28.1370  -11.6490  -12.9850 N.3    86  GLU86      -0.1196
     80  CA        29.5280  -11.9730  -12.6840 C.3    86  GLU86       0.1783
     81  C         30.4860  -11.1530  -13.5530 C.2    86  GLU86       0.2306
     82  O         30.1720  -10.8070  -14.7000 O.2    86  GLU86      -0.2863
     83  CB        29.7900  -13.4760  -12.8520 C.2    86  GLU86       0.0071
     84  CG        30.8810  -14.1920  -12.0930 C.2    86  GLU86       0.0834
     85  CD        30.9830  -15.6820  -12.2590 C.2    86  GLU86       0.3877
     86  OE1       30.2240  -16.1410  -13.1480 O.co2  86  GLU86      -0.2406
     87  OE2       31.7300  -16.4000  -11.6010 O.co2  86  GLU86      -0.2406
     88  N         37.9560  -13.1640  -10.4320 N.3    90  ILE90      -0.1245
     89  CA        37.2150  -14.2960   -9.8830 C.3    90  ILE90       0.1561
     90  C         38.1520  -15.2690   -9.1760 C.2    90  ILE90       0.2260
     91  O         39.2250  -15.5960   -9.6910 O.2    90  ILE90      -0.2867
     92  CB        36.3870  -15.0160  -10.9840 C.3    90  ILE90       0.0252
     93  CG1       35.1760  -14.1650  -11.3650 C.3    90  ILE90       0.0019
     94  CG2       35.9190  -16.3960  -10.5230 C.3    90  ILE90       0.0019
     95  CD1       34.4600  -14.6230  -12.6070 C.3    90  ILE90       0.0001
     96  N         38.1960  -19.1350   -7.3740 N.3    92  ILE92      -0.1245
     97  CA        37.5400  -20.4160   -7.1460 C.3    92  ILE92       0.1561
     98  C         38.4450  -21.3310   -6.3350 C.2    92  ILE92       0.2260
     99  O         39.6220  -21.5130   -6.6510 O.2    92  ILE92      -0.2867
    100  CB        37.1030  -21.1040   -8.4610 C.3    92  ILE92       0.0252
    101  CG1       36.0540  -20.2550   -9.1770 C.3    92  ILE92       0.0019
    102  CG2       36.5130  -22.4810   -8.1810 C.3    92  ILE92       0.0019
    103  CD1       35.5910  -20.8170  -10.5040 C.3    92  ILE92       0.0001
    104  N         38.4480  -25.2930   -4.3920 N.3    94  LEU94      -0.1245
    105  CA        37.8190  -26.6010   -4.4670 C.3    94  LEU94       0.1561
    106  C         38.5100  -27.5470   -3.4940 C.2    94  LEU94       0.2260
    107  O         39.7370  -27.6680   -3.4970 O.2    94  LEU94      -0.2867
    108  CB        37.9000  -27.1280   -5.9020 C.3    94  LEU94       0.0270
    109  CG        36.8760  -28.1480   -6.4020 C.3    94  LEU94       0.0019
    110  CD1       36.5280  -27.8670   -7.8530 C.3    94  LEU94       0.0001
    111  CD2       37.3910  -29.5700   -6.2410 C.3    94  LEU94       0.0001
    112  N         32.8570  -26.9030   -3.4560 N.3   110  VAL110     -0.1245
    113  CA        33.3030  -25.7850   -4.2830 C.3   110  VAL110      0.1561
    114  C         32.9410  -24.4640   -3.6140 C.2   110  VAL110      0.2260
    115  O         31.8420  -24.3060   -3.0810 O.2   110  VAL110     -0.2867
    116  CB        32.7070  -25.8550   -5.7070 C.3   110  VAL110      0.0252
    117  CG1       33.0810  -24.6210   -6.5110 C.3   110  VAL110      0.0019
    118  CG2       33.1900  -27.1100   -6.4210 C.3   110  VAL110      0.0019
    119  N         33.1960  -20.1280   -4.1740 N.3   112  PHE112     -0.1241
    120  CA        33.3330  -19.0950   -5.1930 C.3   112  PHE112      0.1605
    121  C         33.4080  -17.7210   -4.5550 C.2   112  PHE112      0.2264
    122  O         32.4350  -17.2420   -3.9680 O.2   112  PHE112     -0.2867
    123  CB        32.1680  -19.1830   -6.1840 C.3   112  PHE112      0.0534
    124  CG        31.9610  -17.9470   -7.0070 C.ar  112  PHE112     -0.0203
    125  CD1       32.8660  -17.5940   -7.9970 C.ar  112  PHE112     -0.0042
    126  CD2       30.8420  -17.1550   -6.8080 C.ar  112  PHE112     -0.0042
    127  CE1       32.6660  -16.4600   -8.7650 C.ar  112  PHE112     -0.0003
    128  CE2       30.6320  -16.0250   -7.5680 C.ar  112  PHE112     -0.0003
    129  CZ        31.5460  -15.6740   -8.5500 C.ar  112  PHE112     -0.0000
    130  N         29.5790  -22.5190   -2.2570 N.3   117  VAL117     -0.1231
    131  CA        28.3610  -22.5170   -3.0820 C.3   117  VAL117      0.1692
    132  C         27.9210  -23.8820   -3.6280 C.2   117  VAL117      0.2591
    133  O         26.7250  -24.1340   -3.7580 O.2   117  VAL117     -0.2718
    134  CB        28.4170  -21.4790   -4.2440 C.3   117  VAL117      0.0266
    135  CG1       28.4950  -20.0720   -3.7010 C.3   117  VAL117      0.0020
    136  CG2       29.5750  -21.7540   -5.1760 C.3   117  VAL117      0.0020
    137  N         28.8720  -24.7530   -3.9510 N.am  118  VAL118     -0.1980
    138  CA        28.5420  -26.0130   -4.6180 C.3   118  VAL118      0.1595
    139  C         29.2360  -27.2140   -3.9890 C.2   118  VAL118      0.2287
    140  O         30.4030  -27.1460   -3.6070 O.2   118  VAL118     -0.2864
    141  CB        28.8570  -25.9580   -6.1410 C.3   118  VAL118      0.0276
    142  CG1       28.5970  -27.3000   -6.8120 C.3   118  VAL118      0.0022
    143  CG2       28.0200  -24.9010   -6.8120 C.3   118  VAL118      0.0022
    144  N         25.8850  -32.7880   -8.8620 N.3   125  TRP125     -0.1241
    145  CA        26.2430  -31.5060   -8.2640 C.3   125  TRP125      0.1605
    146  C         25.0160  -30.8380   -7.7350 C.2   125  TRP125      0.2264
    147  O         23.9450  -30.9150   -8.3380 O.2   125  TRP125     -0.2867
    148  CB        26.8600  -30.5820   -9.3000 C.3   125  TRP125      0.0550
    149  CG        28.0700  -31.1310  -10.0010 C.ar  125  TRP125      0.0003
    150  CD1       28.1040  -31.8690  -11.1770 C.ar  125  TRP125      0.0946
    151  CD2       29.4730  -30.9800   -9.6020 C.ar  125  TRP125      0.0152
    152  NE1       29.3920  -32.1810  -11.5190 N.ar  125  TRP125     -0.2442
    153  CE2       30.2630  -31.6800  -10.6170 C.ar  125  TRP125      0.0810
    154  CE3       30.1290  -30.3640   -8.5440 C.ar  125  TRP125      0.0012
    155  CZ2       31.6480  -31.7440  -10.5550 C.ar  125  TRP125      0.0191
    156  CZ3       31.5280  -30.4340   -8.4940 C.ar  125  TRP125      0.0001
    157  CH2       32.2670  -31.1070   -9.4760 C.ar  125  TRP125      0.0015
    158  N         21.6640  -17.7480   -9.7420 N.3   134  TRP134     -0.1227
    159  CA        22.0930  -17.9120  -11.1310 C.3   134  TRP134      0.1737
    160  C         22.9120  -19.1500  -11.4040 C.2   134  TRP134      0.2595
    161  O         23.1520  -19.4780  -12.5660 O.2   134  TRP134     -0.2718
    162  CB        22.7950  -16.6610  -11.6580 C.3   134  TRP134      0.0564
    163  CG        23.9120  -16.1430  -10.7910 C.ar  134  TRP134      0.0003
    164  CD1       23.8620  -15.0810   -9.8960 C.ar  134  TRP134      0.0946
    165  CD2       25.2990  -16.6350  -10.7230 C.ar  134  TRP134      0.0152
    166  NE1       25.0800  -14.8910   -9.2930 N.ar  134  TRP134     -0.2442
    167  CE2       25.9850  -15.7870   -9.7400 C.ar  134  TRP134      0.0810
    168  CE3       26.0110  -17.6540  -11.3470 C.ar  134  TRP134      0.0012
    169  CZ2       27.3220  -15.9710   -9.4130 C.ar  134  TRP134      0.0191
    170  CZ3       27.3590  -17.8300  -11.0100 C.ar  134  TRP134      0.0001
    171  CH2       27.9960  -17.0070  -10.0670 C.ar  134  TRP134      0.0015
    172  N         23.3340  -19.8520  -10.3510 N.am  135  LEU135     -0.1980
    173  CA        24.1080  -21.0890  -10.5030 C.3   135  LEU135      0.1596
    174  C         23.2770  -22.2850  -10.9510 C.2   135  LEU135      0.2287
    175  O         23.8310  -23.2920  -11.3970 O.2   135  LEU135     -0.2864
    176  CB        24.8520  -21.4490   -9.2150 C.3   135  LEU135      0.0297
    177  CG        26.2760  -20.9100   -9.0980 C.3   135  LEU135      0.0022
    178  CD1       26.3220  -19.8340   -8.0530 C.3   135  LEU135      0.0001
    179  CD2       27.2400  -22.0120   -8.7300 C.3   135  LEU135      0.0001
    180  N         24.4790  -25.5220  -13.1310 N.3   139  ILE139     -0.1245
    181  CA        24.5750  -26.8290  -12.4570 C.3   139  ILE139      0.1561
    182  C         23.7450  -27.9030  -13.1820 C.2   139  ILE139      0.2260
    183  O         24.1960  -29.0510  -13.3110 O.2   139  ILE139     -0.2867
    184  CB        24.2210  -26.7500  -10.9290 C.3   139  ILE139      0.0252
    185  CG1       25.2450  -25.8960  -10.1610 C.3   139  ILE139      0.0019
    186  CG2       24.1090  -28.1470  -10.2940 C.3   139  ILE139      0.0019
    187  CD1       26.6500  -26.4950  -10.0470 C.3   139  ILE139      0.0001
    188  N         25.7060  -29.0500  -16.1150 N.3   142  LEU142     -0.1245
    189  CA        26.8250  -29.8670  -15.6430 C.3   142  LEU142      0.1561
    190  C         26.3900  -31.2930  -15.2970 C.2   142  LEU142      0.2260
    191  O         27.1830  -32.2340  -15.4140 O.2   142  LEU142     -0.2867
    192  CB        27.4950  -29.1970  -14.4350 C.3   142  LEU142      0.0270
    193  CG        28.8710  -29.6620  -13.9370 C.3   142  LEU142      0.0019
    194  CD1       29.9390  -29.4760  -14.9950 C.3   142  LEU142      0.0001
    195  CD2       29.2530  -28.9080  -12.6790 C.3   142  LEU142      0.0001
    196  N         25.7000  -33.8610  -18.2010 N.3   145  ASP145     -0.1239
    197  CA        26.9470  -34.4610  -18.6430 C.3   145  ASP145      0.1674
    198  C         27.2010  -35.6840  -17.7770 C.2   145  ASP145      0.2266
    199  O         27.5010  -35.5550  -16.5880 O.2   145  ASP145     -0.2867
    200  CB        28.0920  -33.4560  -18.4920 C.3   145  ASP145      0.1410
    201  CG        29.4610  -34.0560  -18.7960 C.2   145  ASP145      0.3668
    202  OD1       29.6730  -35.2770  -18.6130 O.co2 145  ASP145     -0.2456
    203  OD2       30.3490  -33.2820  -19.2070 O.co2 145  ASP145     -0.2456
    204  N         29.5430  -38.2550  -18.4070 N.3   147  GLY147     -0.1210
    205  CA        30.9680  -38.5980  -18.3430 C.3   147  GLY147      0.1956
    206  C         31.7250  -37.9570  -17.1950 C.2   147  GLY147      0.2612
    207  O         32.5280  -38.6100  -16.5250 O.2   147  GLY147     -0.2717
    208  N         31.4620  -36.6720  -16.9760 N.am  148  THR148     -0.1952
    209  CA        32.0530  -35.9260  -15.8670 C.3   148  THR148      0.1897
    210  C         31.4800  -36.4230  -14.5430 C.2   148  THR148      0.2313
    211  O         32.2380  -36.8130  -13.6480 O.2   148  THR148     -0.2863
    212  CB        31.8050  -34.4170  -16.0160 C.3   148  THR148      0.1794
    213  OG1       31.9490  -34.0560  -17.3920 O.3   148  THR148     -0.2208
    214  CG2       32.8010  -33.6180  -15.1890 C.3   148  THR148      0.0378
    215  N         33.8760  -38.0870  -11.6180 N.3   152  VAL152     -0.1245
    216  CA        33.8570  -37.5710  -10.2520 C.3   152  VAL152      0.1561
    217  C         33.3920  -38.6580   -9.2890 C.2   152  VAL152      0.2260
    218  O         33.9980  -38.8580   -8.2390 O.2   152  VAL152     -0.2867
    219  CB        32.9960  -36.2840  -10.1280 C.3   152  VAL152      0.0252
    220  CG1       32.6200  -36.0020   -8.6750 C.3   152  VAL152      0.0019
    221  CG2       33.7360  -35.0850  -10.7310 C.3   152  VAL152      0.0019
@<TRIPOS>BOND
     1    46    45    1
     2    45    44    2
     3    45    47    1
     4    43    44    1
     5    43    42    1
     6    42    41    1
     7    41    38    1
     8     7     5    1
     9    40    39    2
    10    38    39    1
    11    38    37    1
    12    25    24    1
    13     6     5    1
    14    54    53   ar
    15    39    48   am
    16     5     2    1
    17    48    49    1
    18    21    24    1
    19    21    20    1
    20    21    22    1
    21   203   201   ar
    22     2     3    1
    23     2     1    1
    24    53    55   ar
    25    53    52    1
    26     4     3    2
    27    49    52    1
    28    49    50    1
    29   201   202   ar
    30   201   200    1
    31    64    65    1
    32   197   200    1
    33   197   196    1
    34   197   198    1
    35    74    75    2
    36    74    73    1
    37    23    22    2
    38   204   205    1
    39    51    50    2
    40     3     8   am
    41   205   206    1
    42    22    26   am
    43    50    56   am
    44    65    66    1
    45    65    68    1
    46   198   199    2
    47    72    66   am
    48    72    73    1
    49    66    67    2
    50   213   212    1
    51    73    76    1
    52   206   208   am
    53   206   207    2
    54     8     9    1
    55    56    57    1
    56   208   209    1
    57    26    27    1
    58    58    59    2
    59    58    57    1
    60    76    77    1
    61    76    78    1
    62    68    69    1
    63    70    69    1
    64     9    10    1
    65     9    12    1
    66    11    10    2
    67    57    60    1
    68    28    27    1
    69    28    29    2
    70   188   189    1
    71   212   209    1
    72   212   214    1
    73    27    30    1
    74   209   210    1
    75   189   190    1
    76   189   192    1
    77    69    71    1
    78   191   190    2
    79   194   193    1
    80    60    62    1
    81    60    61    1
    82    12    13    1
    83    82    81    2
    84   210   211    2
    85    30    31    1
    86   192   193    1
    87    61    63    1
    88   193   195    1
    89    13    14   ar
    90    13    15   ar
    91    14    16   ar
    92    81    80    1
    93    31    32   ar
    94    31    33   ar
    95   183   182    2
    96   182   181    1
    97    86    85   ar
    98   180   181    1
    99    79    80    1
   100    32    34   ar
   101    83    80    1
   102    83    84    2
   103    33    35   ar
   104    15    17   ar
   105    16    18   ar
   106    95    93    1
   107   161   160    2
   108   181   184    1
   109    85    84    1
   110    85    87   ar
   111    34    36   ar
   112    17    18   ar
   113    35    36   ar
   114    18    19    1
   115   162   159    1
   116   162   163    1
   117   215   216    1
   118   152   150   ar
   119   152   153   ar
   120   160   159    1
   121   160   172   am
   122   175   174    2
   123    93    92    1
   124   168   170   ar
   125   168   165   ar
   126   150   149   ar
   127   159   158    1
   128   170   171   ar
   129    92    94    1
   130    92    89    1
   131   174   173    1
   132   184   186    1
   133   184   185    1
   134   163   165   ar
   135   163   164   ar
   136   221   219    1
   137   165   167   ar
   138   153   155   ar
   139   153   151   ar
   140   155   157   ar
   141   103   101    1
   142   173   172    1
   143   173   176    1
   144    88    89    1
   145   216   219    1
   146   216   217    1
   147   185   187    1
   148   219   220    1
   149   171   169   ar
   150   149   151   ar
   151   149   148    1
   152   164   166   ar
   153    89    90    1
   154   167   169   ar
   155   167   166   ar
   156    91    90    2
   157   151   154   ar
   158   157   156   ar
   159   148   145    1
   160   217   218    2
   161   176   177    1
   162   101   100    1
   163   177   179    1
   164   177   178    1
   165   144   145    1
   166   127   129   ar
   167   127   125   ar
   168   129   128   ar
   169   154   156   ar
   170   100   102    1
   171   100    97    1
   172   147   146    2
   173   145   146    1
   174   125   124   ar
   175   110   109    1
   176   128   126   ar
   177    96    97    1
   178    97    98    1
   179   124   126   ar
   180   124   123    1
   181   143   141    1
   182   142   141    1
   183    99    98    2
   184   117   116    1
   185   118   116    1
   186   109   111    1
   187   109   108    1
   188   123   120    1
   189   141   138    1
   190   108   105    1
   191   116   113    1
   192   120   121    1
   193   120   119    1
   194   136   134    1
   195   138   139    1
   196   138   137    1
   197   121   122    2
   198   105   104    1
   199   105   106    1
   200   113   114    1
   201   113   112    1
   202   134   135    1
   203   134   131    1
   204   139   140    2
   205   137   132   am
   206   133   132    2
   207   132   131    1
   208   114   115    2
   209   107   106    2
   210   131   130    1
