@<TRIPOS>MOLECULE
tmp/4eltA00.pdb
 209 201 0 0 0
SMALL
GASTEIGER

@<TRIPOS>ATOM
      1  N         24.0590  -30.1160  -11.1520 N.3   280  ARG280     -0.1245
      2  CA        24.8120  -28.9180  -11.5220 C.3   280  ARG280      0.1563
      3  C         26.2870  -29.2480  -11.7650 C.2   280  ARG280      0.2260
      4  O         26.8120  -30.2480  -11.2410 O.2   280  ARG280     -0.2867
      5  CB        24.7120  -27.8470  -10.4350 C.3   280  ARG280      0.0307
      6  CG        23.4430  -27.0000  -10.4880 C.3   280  ARG280      0.0489
      7  CD        23.5890  -25.8380   -9.5400 C.3   280  ARG280      0.2205
      8  NE        22.5140  -24.8630   -9.6750 N.pl3 280  ARG280     -0.0865
      9  CZ        22.4890  -23.7120   -9.0150 C.cat 280  ARG280      0.5346
     10  NH1       23.4840  -23.4240   -8.1910 N.pl3 280  ARG280      0.1354
     11  NH2       21.4790  -22.8540   -9.1740 N.pl3 280  ARG280      0.1354
     12  N         30.0310   -9.6600   -8.0810 N.3   293  VAL293     -0.1231
     13  CA        29.2170   -8.8960   -9.0120 C.3   293  VAL293      0.1692
     14  C         28.2330   -7.9690   -8.2930 C.2   293  VAL293      0.2591
     15  O         27.7090   -7.0300   -8.8920 O.2   293  VAL293     -0.2718
     16  CB        28.4470   -9.8490   -9.9620 C.3   293  VAL293      0.0266
     17  CG1       27.3050  -10.5470   -9.2220 C.3   293  VAL293      0.0020
     18  CG2       27.9320   -9.1000  -11.2170 C.3   293  VAL293      0.0020
     19  N         27.9850   -8.2180   -7.0070 N.am  294  ARG294     -0.1980
     20  CA        26.8600   -7.5600   -6.3320 C.3   294  ARG294      0.1597
     21  C         27.1390   -6.1920   -5.7110 C.2   294  ARG294      0.2287
     22  O         26.2720   -5.3140   -5.7510 O.2   294  ARG294     -0.2864
     23  CB        26.2230   -8.4960   -5.3050 C.3   294  ARG294      0.0334
     24  CG        25.8320   -9.8320   -5.9240 C.3   294  ARG294      0.0492
     25  CD        24.8020  -10.5840   -5.1040 C.3   294  ARG294      0.2205
     26  NE        24.5520  -11.8980   -5.6840 N.pl3 294  ARG294     -0.0865
     27  CZ        23.9410  -12.8910   -5.0500 C.cat 294  ARG294      0.5346
     28  NH1       23.5100  -12.7200   -3.8020 N.pl3 294  ARG294      0.1354
     29  NH2       23.7570  -14.0550   -5.6660 N.pl3 294  ARG294      0.1354
     30  N         21.8210  -15.2950  -20.0380 N.3   317  ASP317     -0.1225
     31  CA        21.3560  -15.7030  -18.7170 C.3   317  ASP317      0.1805
     32  C         19.8540  -16.0130  -18.7840 C.2   317  ASP317      0.2598
     33  O         19.0430  -15.1470  -19.1480 O.2   317  ASP317     -0.2718
     34  CB        21.6430  -14.5570  -17.7270 C.3   317  ASP317      0.1424
     35  CG        21.5000  -14.9650  -16.2570 C.2   317  ASP317      0.3668
     36  OD1       20.4490  -15.5040  -15.8560 O.co2 317  ASP317     -0.2456
     37  OD2       22.4490  -14.7210  -15.4880 O.co2 317  ASP317     -0.2456
     38  N         19.4780  -17.2420  -18.4390 N.am  318  TYR318     -0.1962
     39  CA        18.0590  -17.6140  -18.4230 C.3   318  TYR318      0.1771
     40  C         17.2650  -16.7360  -17.4640 C.2   318  TYR318      0.2620
     41  O         17.7130  -16.4390  -16.3630 O.2   318  TYR318     -0.2715
     42  CB        17.8740  -19.0810  -18.0430 C.3   318  TYR318      0.0574
     43  CG        18.1090  -20.0670  -19.1680 C.ar  318  TYR318     -0.0198
     44  CD1       17.1620  -20.2470  -20.1750 C.ar  318  TYR318     -0.0009
     45  CD2       19.2600  -20.8450  -19.2070 C.ar  318  TYR318     -0.0009
     46  CE1       17.3610  -21.1680  -21.2030 C.ar  318  TYR318      0.0417
     47  CE2       19.4680  -21.7650  -20.2230 C.ar  318  TYR318      0.0417
     48  CZ        18.5170  -21.9180  -21.2200 C.ar  318  TYR318      0.1957
     49  OH        18.7360  -22.8270  -22.2210 O.3   318  TYR318     -0.2866
     50  N         16.0900  -16.3130  -17.8950 N.am  319  SER319     -0.1936
     51  CA        15.2240  -15.4810  -17.0720 C.3   319  SER319      0.2055
     52  C         14.4280  -16.3340  -16.0810 C.2   319  SER319      0.2643
     53  O         13.7700  -17.2970  -16.4940 O.2   319  SER319     -0.2714
     54  CB        14.2570  -14.6900  -17.9630 C.3   319  SER319      0.2130
     55  OG        13.2780  -14.0110  -17.1950 O.3   319  SER319     -0.2179
     56  N         14.5020  -15.9720  -14.7930 N.am  320  GLN320     -0.1963
     57  CA        13.6970  -16.5800  -13.7240 C.3   320  GLN320      0.1733
     58  C         13.6650  -18.0890  -13.8400 C.2   320  GLN320      0.2616
     59  O         12.6040  -18.6940  -13.7370 O.2   320  GLN320     -0.2715
     60  CB        12.2540  -16.0510  -13.7690 C.3   320  GLN320      0.0408
     61  CG        12.1340  -14.5340  -13.9090 C.3   320  GLN320      0.0908
     62  CD        10.6830  -14.0570  -13.9960 C.2   320  GLN320      0.2608
     63  OE1        9.8970  -14.2080  -13.0450 O.2   320  GLN320     -0.2717
     64  NE2       10.3190  -13.4800  -15.1440 N.am  320  GLN320     -0.0878
     65  N         14.8230  -18.6970  -14.0720 N.am  321  ILE321     -0.1963
     66  CA        14.8390  -20.0380  -14.6610 C.3   321  ILE321      0.1727
     67  C         14.1890  -21.1290  -13.8100 C.2   321  ILE321      0.2616
     68  O         13.3890  -21.9150  -14.3160 O.2   321  ILE321     -0.2715
     69  CB        16.2680  -20.4590  -15.0990 C.3   321  ILE321      0.0290
     70  CG1       16.2550  -21.8810  -15.6590 C.3   321  ILE321      0.0022
     71  CG2       17.2600  -20.2970  -13.9490 C.3   321  ILE321      0.0023
     72  CD1       15.5800  -22.0090  -17.0140 C.3   321  ILE321      0.0001
     73  N         14.5130  -21.1890  -12.5250 N.am  322  GLU322     -0.1977
     74  CA        13.9380  -22.2550  -11.7040 C.3   322  GLU322      0.1602
     75  C         12.4410  -22.0750  -11.4450 C.2   322  GLU322      0.2287
     76  O         11.7360  -23.0520  -11.1850 O.2   322  GLU322     -0.2864
     77  CB        14.7600  -22.5090  -10.4370 C.3   322  GLU322      0.0415
     78  CG        16.0890  -23.2300  -10.7660 C.3   322  GLU322      0.1163
     79  CD        16.9870  -23.4730   -9.5570 C.2   322  GLU322      0.3649
     80  OE1       16.4660  -23.6180   -8.4300 O.co2 322  GLU322     -0.2457
     81  OE2       18.2220  -23.5280   -9.7530 O.co2 322  GLU322     -0.2457
     82  N         10.2060  -11.7940   -9.7550 N.3   346  HIS346     -0.1241
     83  CA        11.2100  -11.0190   -9.0280 C.3   346  HIS346      0.1621
     84  C         10.8240   -9.5470   -8.9360 C.2   346  HIS346      0.2264
     85  O         10.9340   -8.9280   -7.8750 O.2   346  HIS346     -0.2867
     86  CB        12.5780  -11.1440   -9.6990 C.3   346  HIS346      0.0745
     87  CG        13.0980  -12.5440   -9.7520 C.ar  346  HIS346      0.0817
     88  ND1       12.7470  -13.5000   -8.8220 N.ar  346  HIS346     -0.2268
     89  CD2       13.9360  -13.1550  -10.6250 C.ar  346  HIS346      0.1154
     90  CE1       13.3540  -14.6380   -9.1150 C.ar  346  HIS346      0.1986
     91  NE2       14.0820  -14.4560  -10.2050 N.ar  346  HIS346     -0.2212
     92  N         18.3530   -2.9820   -8.9430 N.3   364  LEU364     -0.1245
     93  CA        18.8080   -3.3380   -7.6050 C.3   364  LEU364      0.1561
     94  C         17.6670   -3.9230   -6.7760 C.2   364  LEU364      0.2260
     95  O         17.8580   -4.9000   -6.0420 O.2   364  LEU364     -0.2867
     96  CB        19.4220   -2.1310   -6.8910 C.3   364  LEU364      0.0270
     97  CG        19.8080   -2.3810   -5.4280 C.3   364  LEU364      0.0019
     98  CD1       20.9570   -3.3900   -5.3090 C.3   364  LEU364      0.0001
     99  CD2       20.1350   -1.0800   -4.6980 C.3   364  LEU364      0.0001
    100  N         14.8300   -5.3860   -7.8990 N.3   366  ARG366     -0.1231
    101  CA        14.5080   -6.6910   -8.4490 C.3   366  ARG366      0.1694
    102  C         15.4620   -7.7740   -7.9270 C.2   366  ARG366      0.2592
    103  O         15.0480   -8.8890   -7.6060 O.2   366  ARG366     -0.2718
    104  CB        14.5690   -6.6370   -9.9800 C.3   366  ARG366      0.0321
    105  CG        14.2100   -7.9380  -10.6590 C.3   366  ARG366      0.0489
    106  CD        14.2050   -7.8160  -12.1840 C.3   366  ARG366      0.2205
    107  NE        13.8730   -9.1040  -12.7870 N.pl3 366  ARG366     -0.0865
    108  CZ        14.7190  -10.1230  -12.8750 C.cat 366  ARG366      0.5346
    109  NH1       15.9580  -10.0080  -12.4140 N.pl3 366  ARG366      0.1354
    110  NH2       14.3270  -11.2590  -13.4270 N.pl3 366  ARG366      0.1354
    111  N         16.7410   -7.4340   -7.8370 N.am  367  ARG367     -0.1966
    112  CA        17.7680   -8.4110   -7.4820 C.3   367  ARG367      0.1729
    113  C         17.7660   -8.7720   -6.0030 C.2   367  ARG367      0.2616
    114  O         18.0350   -9.9100   -5.6390 O.2   367  ARG367     -0.2715
    115  CB        19.1430   -7.9180   -7.9300 C.3   367  ARG367      0.0348
    116  CG        19.2650   -7.8880   -9.4390 C.3   367  ARG367      0.0492
    117  CD        20.3710   -6.9720   -9.9290 C.3   367  ARG367      0.2205
    118  NE        20.2260   -6.7200  -11.3600 N.pl3 367  ARG367     -0.0865
    119  CZ        21.0220   -5.9280  -12.0690 C.cat 367  ARG367      0.5346
    120  NH1       22.0360   -5.3030  -11.4810 N.pl3 367  ARG367      0.1354
    121  NH2       20.8040   -5.7590  -13.3690 N.pl3 367  ARG367      0.1354
    122  N         17.4590   -7.8040   -5.1520 N.am  368  ALA368     -0.1977
    123  CA        17.3050   -8.0840   -3.7330 C.3   368  ALA368      0.1597
    124  C         16.1170   -9.0220   -3.5190 C.2   368  ALA368      0.2287
    125  O         16.1040   -9.8180   -2.5800 O.2   368  ALA368     -0.2864
    126  CB        17.1140   -6.7920   -2.9510 C.3   368  ALA368      0.0319
    127  N         15.1260  -11.4980   -5.5290 N.3   370  LYS370     -0.1231
    128  CA        15.3530  -12.8580   -6.0340 C.3   370  LYS370      0.1693
    129  C         15.7380  -13.7800   -4.9070 C.2   370  LYS370      0.2592
    130  O         15.2650  -14.9080   -4.8150 O.2   370  LYS370     -0.2718
    131  CB        16.4650  -12.8830   -7.0820 C.3   370  LYS370      0.0285
    132  CG        16.1530  -12.0880   -8.3170 C.3   370  LYS370      0.0035
    133  CD        17.4150  -11.7540   -9.1040 C.3   370  LYS370      0.0206
    134  CE        18.0540  -12.9830   -9.7050 C.3   370  LYS370      0.1093
    135  NZ        19.1720  -12.5850  -10.6040 N.3   370  LYS370     -0.1314
    136  N         16.6170  -13.2910   -4.0500 N.am  371  THR371     -0.1953
    137  CA        17.0400  -14.0440   -2.8820 C.3   371  THR371      0.1897
    138  C         15.8470  -14.3200   -1.9730 C.2   371  THR371      0.2313
    139  O         15.7600  -15.3760   -1.3580 O.2   371  THR371     -0.2863
    140  CB        18.0960  -13.2640   -2.1110 C.3   371  THR371      0.1794
    141  OG1       19.0690  -12.7580   -3.0400 O.3   371  THR371     -0.2208
    142  CG2       18.7670  -14.1550   -1.0720 C.3   371  THR371      0.0378
    143  N         13.4220  -17.2230   -3.8470 N.3   374  PHE374     -0.1241
    144  CA        13.8770  -18.6130   -3.7390 C.3   374  PHE374      0.1605
    145  C         13.9980  -19.0650   -2.2930 C.2   374  PHE374      0.2264
    146  O         13.7740  -20.2360   -1.9850 O.2   374  PHE374     -0.2867
    147  CB        15.1820  -18.8330   -4.5170 C.3   374  PHE374      0.0534
    148  CG        15.0230  -18.5940   -5.9900 C.ar  374  PHE374     -0.0203
    149  CD1       14.1000  -19.3400   -6.7200 C.ar  374  PHE374     -0.0042
    150  CD2       15.7320  -17.5970   -6.6340 C.ar  374  PHE374     -0.0042
    151  CE1       13.9030  -19.1170   -8.0720 C.ar  374  PHE374     -0.0003
    152  CE2       15.5360  -17.3580   -7.9860 C.ar  374  PHE374     -0.0003
    153  CZ        14.6200  -18.1190   -8.7050 C.ar  374  PHE374     -0.0000
    154  N         11.9890  -22.4250   -1.2730 N.3   378  TYR378     -0.1241
    155  CA        12.7020  -23.5930   -0.7590 C.3   378  TYR378      0.1605
    156  C         12.6630  -23.7470    0.7710 C.2   378  TYR378      0.2264
    157  O         13.3680  -24.5900    1.3320 O.2   378  TYR378     -0.2867
    158  CB        14.1300  -23.6300   -1.3170 C.3   378  TYR378      0.0534
    159  CG        14.1350  -23.7860   -2.8190 C.ar  378  TYR378     -0.0201
    160  CD1       13.3040  -24.7060   -3.4310 C.ar  378  TYR378     -0.0009
    161  CD2       14.9460  -22.9900   -3.6250 C.ar  378  TYR378     -0.0009
    162  CE1       13.2870  -24.8550   -4.8180 C.ar  378  TYR378      0.0417
    163  CE2       14.9390  -23.1250   -4.9920 C.ar  378  TYR378      0.0417
    164  CZ        14.1010  -24.0610   -5.5900 C.ar  378  TYR378      0.1957
    165  OH        14.0880  -24.1990   -6.9610 O.3   378  TYR378     -0.2866
    166  N         13.8520  -29.6470   -3.6960 N.3   457  ASN457     -0.1240
    167  CA        14.6490  -28.6790   -4.4460 C.3   457  ASN457      0.1653
    168  C         15.3110  -29.3410   -5.6460 C.2   457  ASN457      0.2266
    169  O         15.4560  -28.7310   -6.7020 O.2   457  ASN457     -0.2867
    170  CB        15.7050  -28.0160   -3.5650 C.3   457  ASN457      0.1155
    171  CG        16.7430  -27.2420   -4.3710 C.2   457  ASN457      0.2627
    172  OD1       17.7540  -27.8060   -4.7930 O.2   457  ASN457     -0.2716
    173  ND2       16.4970  -25.9480   -4.5890 N.am  457  ASN457     -0.0877
    174  N         16.1290  -27.5040   -9.3050 N.3   461  GLN461     -0.1245
    175  CA        17.4930  -27.0820   -9.6060 C.3   461  GLN461      0.1566
    176  C         18.1190  -28.0220  -10.6270 C.2   461  GLN461      0.2260
    177  O         18.8680  -27.5870  -11.5000 O.2   461  GLN461     -0.2867
    178  CB        18.3530  -27.0420   -8.3240 C.3   461  GLN461      0.0367
    179  CG        19.7950  -26.5590   -8.5140 C.3   461  GLN461      0.0905
    180  CD        20.6260  -26.6890   -7.2250 C.2   461  GLN461      0.2608
    181  OE1       21.6110  -27.4320   -7.1790 O.2   461  GLN461     -0.2717
    182  NE2       20.2170  -25.9730   -6.1720 N.am  461  GLN461     -0.0878
    183  N         25.9160  -21.8130  -14.0360 N.3   491  HIS491     -0.1226
    184  CA        24.6240  -22.3980  -13.6770 C.3   491  HIS491      0.1752
    185  C         23.4710  -22.1880  -14.6590 C.2   491  HIS491      0.2596
    186  O         23.0180  -23.1510  -15.2550 O.2   491  HIS491     -0.2718
    187  CB        24.2660  -22.0420  -12.2460 C.3   491  HIS491      0.0759
    188  CG        25.3680  -22.3640  -11.3050 C.ar  491  HIS491      0.0818
    189  ND1       25.9140  -23.6260  -11.2290 N.ar  491  HIS491     -0.2268
    190  CD2       26.0930  -21.5830  -10.4720 C.ar  491  HIS491      0.1154
    191  CE1       26.9070  -23.6180  -10.3580 C.ar  491  HIS491      0.1986
    192  NE2       27.0320  -22.3910   -9.8810 N.ar  491  HIS491     -0.2212
    193  N         23.0030  -20.9580  -14.8370 N.am  492  ASP492     -0.1974
    194  CA        21.9850  -20.6890  -15.8510 C.3   492  ASP492      0.1709
    195  C         22.4970  -19.6330  -16.8320 C.2   492  ASP492      0.2293
    196  O         21.7300  -19.0390  -17.6080 O.2   492  ASP492     -0.2864
    197  CB        20.6420  -20.2590  -15.2240 C.3   492  ASP492      0.1436
    198  CG        20.6330  -18.7940  -14.7770 C.2   492  ASP492      0.3671
    199  OD1       21.6990  -18.2690  -14.3730 O.co2 492  ASP492     -0.2456
    200  OD2       19.5520  -18.1640  -14.8220 O.co2 492  ASP492     -0.2456
    201  N         18.1130  -13.4950  -21.3680 N.3   527  GLU527     -0.1245
    202  CA        18.6410  -12.1370  -21.4830 C.3   527  GLU527      0.1567
    203  C         20.0680  -12.2170  -22.0060 C.2   527  GLU527      0.2260
    204  O         20.8640  -13.0260  -21.5380 O.2   527  GLU527     -0.2867
    205  CB        18.6140  -11.4190  -20.1320 C.3   527  GLU527      0.0388
    206  CG        17.2210  -10.9800  -19.7070 C.3   527  GLU527      0.1160
    207  CD        16.5700  -10.0440  -20.7210 C.2   527  GLU527      0.3649
    208  OE1       17.0700   -8.9100  -20.8890 O.co2 527  GLU527     -0.2457
    209  OE2       15.5650  -10.4430  -21.3540 O.co2 527  GLU527     -0.2457
@<TRIPOS>BOND
     1    49    48    1
     2   203   204    2
     3   203   202    1
     4   202   201    1
     5   202   205    1
     6   209   207   ar
     7    48    46   ar
     8    48    47   ar
     9    46    44   ar
    10   208   207   ar
    11   207   206    1
    12    47    45   ar
    13    44    43   ar
    14   205   206    1
    15    30    31    1
    16    45    43   ar
    17    43    42    1
    18    33    32    2
    19    32    31    1
    20    32    38   am
    21    31    34    1
    22    38    39    1
    23    39    42    1
    24    39    40    1
    25    54    55    1
    26    54    51    1
    27    50    40   am
    28    50    51    1
    29    34    35    1
    30   196   195    2
    31    40    41    2
    32    51    52    1
    33    72    70    1
    34   195   194    1
    35    53    52    2
    36    35    36   ar
    37    35    37   ar
    38    52    56   am
    39   194   197    1
    40   194   193    1
    41    70    69    1
    42   186   185    2
    43   197   198    1
    44    64    62   am
    45    69    66    1
    46    69    71    1
    47   193   185   am
    48   200   198   ar
    49    56    57    1
    50   198   199   ar
    51    66    65    1
    52    66    67    1
    53   185   184    1
    54    68    67    2
    55    65    58   am
    56   183   184    1
    57    62    61    1
    58    62    63    2
    59    61    60    1
    60    58    59    2
    61    58    57    1
    62    67    73   am
    63    60    57    1
    64   184   187    1
    65   110   108    1
    66   121   119    1
    67   108   107    2
    68   108   109    1
    69   107   106    1
    70    73    74    1
    71   187   188    1
    72   106   105    1
    73   119   120    1
    74   119   118    2
    75     3     2    1
    76     3     4    2
    77    74    75    1
    78    74    77    1
    79     2     1    1
    80     2     5    1
    81   177   176    2
    82    75    76    2
    83   118   117    1
    84   188   189   ar
    85   188   190   ar
    86   189   191   ar
    87    18    16    1
    88    78    77    1
    89    78    79    1
    90   105   104    1
    91   176   175    1
    92    89    91   ar
    93    89    87   ar
    94   135   134    1
    95     6     5    1
    96     6     7    1
    97   190   192   ar
    98   191   192   ar
    99    91    90   ar
   100   104   101    1
   101    16    17    1
   102    16    13    1
   103   117   116    1
   104    82    83    1
   105    81    79   ar
   106    87    86    1
   107    87    88   ar
   108   134   133    1
   109    86    83    1
   110     8     7    1
   111     8     9    2
   112   175   174    1
   113   175   178    1
   114    79    80   ar
   115   116   115    1
   116    11     9    1
   117    90    88   ar
   118   133   132    1
   119    83    84    1
   120     9    10    1
   121    13    14    1
   122    13    12    1
   123    92    93    1
   124    84    85    2
   125    15    14    2
   126   153   151   ar
   127   153   152   ar
   128   179   178    1
   129   179   180    1
   130   101   102    1
   131   101   100    1
   132   132   131    1
   133    14    19   am
   134   151   149   ar
   135   152   150   ar
   136   115   112    1
   137   102   111   am
   138   102   103    2
   139   111   112    1
   140    93    96    1
   141    93    94    1
   142   112   113    1
   143   180   181    2
   144   180   182   am
   145   131   128    1
   146    19    20    1
   147   165   164    1
   148    96    97    1
   149    94    95    2
   150   149   148   ar
   151   169   168    2
   152   150   148   ar
   153    20    21    1
   154    20    23    1
   155   128   127    1
   156   128   129    1
   157   113   114    2
   158   113   122   am
   159   148   147    1
   160    24    23    1
   161    24    25    1
   162    22    21    2
   163    26    25    1
   164    26    27    2
   165    29    27    1
   166   168   167    1
   167   164   163   ar
   168   164   162   ar
   169    97    98    1
   170    97    99    1
   171   122   123    1
   172    27    28    1
   173   163   161   ar
   174   129   130    2
   175   129   136   am
   176   162   160   ar
   177   172   171    2
   178   173   171   am
   179   147   144    1
   180   167   166    1
   181   167   170    1
   182   171   170    1
   183   136   137    1
   184   143   144    1
   185   144   145    1
   186   123   124    1
   187   123   126    1
   188   161   159   ar
   189   124   125    2
   190   160   159   ar
   191   141   140    1
   192   137   140    1
   193   137   138    1
   194   159   158    1
   195   145   146    2
   196   140   142    1
   197   138   139    2
   198   158   155    1
   199   154   155    1
   200   155   156    1
   201   156   157    2
