@<TRIPOS>MOLECULE
tmp/4em0A01.pdb
 158 151 0 0 0
SMALL
GASTEIGER

@<TRIPOS>ATOM
      1  N         46.0120   -4.1080   12.8360 N.3     6  PHE6       -0.1241
      2  CA        45.1510   -3.6480   11.7520 C.3     6  PHE6        0.1605
      3  C         44.7530   -2.1790   11.9670 C.2     6  PHE6        0.2264
      4  O         43.8140   -1.6750   11.3480 O.2     6  PHE6       -0.2867
      5  CB        43.9130   -4.5550   11.6700 C.3     6  PHE6        0.0534
      6  CG        43.3350   -4.6770   10.2800 C.ar    6  PHE6       -0.0203
      7  CD1       44.1750   -4.7960    9.1680 C.ar    6  PHE6       -0.0042
      8  CD2       41.9540   -4.6590   10.0800 C.ar    6  PHE6       -0.0042
      9  CE1       43.6460   -4.8890    7.8800 C.ar    6  PHE6       -0.0003
     10  CE2       41.4170   -4.7500    8.8000 C.ar    6  PHE6       -0.0003
     11  CZ        42.2670   -4.8640    7.6990 C.ar    6  PHE6       -0.0000
     12  N         32.8860   -0.3290   14.2240 N.3    21  TYR21      -0.1241
     13  CA        33.9290   -1.0920   13.5420 C.3    21  TYR21       0.1605
     14  C         35.1790   -1.5240   14.3120 C.2    21  TYR21       0.2264
     15  O         35.6880   -2.6290   14.1170 O.2    21  TYR21      -0.2867
     16  CB        34.3680   -0.3410   12.2970 C.3    21  TYR21       0.0534
     17  CG        35.2190   -1.1760   11.3790 C.ar   21  TYR21      -0.0201
     18  CD1       34.6310   -2.0280   10.4620 C.ar   21  TYR21      -0.0009
     19  CD2       36.6080   -1.1090   11.4160 C.ar   21  TYR21      -0.0009
     20  CE1       35.3860   -2.7880    9.6040 C.ar   21  TYR21       0.0417
     21  CE2       37.3790   -1.8730   10.5490 C.ar   21  TYR21       0.0417
     22  CZ        36.7510   -2.7060    9.6490 C.ar   21  TYR21       0.1957
     23  OH        37.4780   -3.4680    8.7760 O.3    21  TYR21      -0.2866
     24  N         34.2890   -3.8490   17.3680 N.3    24  TYR24      -0.1227
     25  CA        34.0260   -5.0870   16.6720 C.3    24  TYR24       0.1736
     26  C         35.2670   -5.9220   16.4140 C.2    24  TYR24       0.2595
     27  O         35.2700   -7.1310   16.6440 O.2    24  TYR24      -0.2718
     28  CB        33.3980   -4.7980   15.3340 C.3    24  TYR24       0.0548
     29  CG        32.9130   -6.0580   14.7510 C.ar   24  TYR24      -0.0200
     30  CD1       31.8150   -6.6950   15.3030 C.ar   24  TYR24      -0.0009
     31  CD2       33.5620   -6.6520   13.6850 C.ar   24  TYR24      -0.0009
     32  CE1       31.3680   -7.8790   14.8120 C.ar   24  TYR24       0.0417
     33  CE2       33.1150   -7.8540   13.1750 C.ar   24  TYR24       0.0417
     34  CZ        32.0070   -8.4520   13.7460 C.ar   24  TYR24       0.1957
     35  OH        31.4610   -9.5820   13.2080 O.3    24  TYR24      -0.2866
     36  N         36.3030   -5.2770   15.8920 N.am   25  LEU25      -0.1980
     37  CA        37.5470   -5.9590   15.6090 C.3    25  LEU25       0.1596
     38  C         38.2140   -6.3770   16.8940 C.2    25  LEU25       0.2287
     39  O         38.8800   -7.3990   16.9470 O.2    25  LEU25      -0.2864
     40  CB        38.4900   -5.0500   14.8480 C.3    25  LEU25       0.0297
     41  CG        37.9700   -4.5360   13.5190 C.3    25  LEU25       0.0022
     42  CD1       39.1260   -3.8100   12.8390 C.3    25  LEU25       0.0001
     43  CD2       37.4100   -5.6770   12.6540 C.3    25  LEU25       0.0001
     44  N         36.1840   -9.5940   17.9600 N.3    28  THR28      -0.1218
     45  CA        36.3810  -10.7750   17.1400 C.3    28  THR28       0.1862
     46  C         37.8410  -11.0850   16.9530 C.2    28  THR28       0.2287
     47  O         38.1840  -12.0540   16.2990 O.2    28  THR28      -0.2866
     48  CB        35.7050  -10.6200   15.7580 C.3    28  THR28       0.1770
     49  OG1       36.1430   -9.4090   15.1340 O.3    28  THR28      -0.2211
     50  CG2       34.1980  -10.5780   15.9100 C.3    28  THR28       0.0375
     51  N         40.6920  -14.7710   15.8050 N.3    32  LEU32      -0.1245
     52  CA        41.8350  -14.8170   14.8880 C.3    32  LEU32       0.1561
     53  C         43.1240  -15.1770   15.6000 C.2    32  LEU32       0.2260
     54  O         43.8270  -16.0870   15.1900 O.2    32  LEU32      -0.2867
     55  CB        42.0460  -13.4650   14.1920 C.3    32  LEU32       0.0270
     56  CG        40.9710  -12.8360   13.3140 C.3    32  LEU32       0.0019
     57  CD1       41.6360  -12.1870   12.1410 C.3    32  LEU32       0.0001
     58  CD2       40.0040  -13.8810   12.8350 C.3    32  LEU32       0.0001
     59  N         44.3670   -9.7610   11.0340 N.3    39  TYR39      -0.1241
     60  CA        43.2100   -9.2790   10.3000 C.3    39  TYR39       0.1605
     61  C         43.4480   -9.0830    8.8310 C.2    39  TYR39       0.2264
     62  O         42.7180   -9.6320    8.0140 O.2    39  TYR39      -0.2867
     63  CB        42.6800   -7.9910   10.9310 C.3    39  TYR39       0.0534
     64  CG        41.6420   -8.2640   11.9970 C.ar   39  TYR39      -0.0201
     65  CD1       40.3900   -8.7970   11.6580 C.ar   39  TYR39      -0.0009
     66  CD2       41.9210   -8.0460   13.3530 C.ar   39  TYR39      -0.0009
     67  CE1       39.4430   -9.1130   12.6390 C.ar   39  TYR39       0.0417
     68  CE2       40.9750   -8.3570   14.3510 C.ar   39  TYR39       0.0417
     69  CZ        39.7390   -8.8920   13.9790 C.ar   39  TYR39       0.1957
     70  OH        38.8100   -9.2040   14.9480 O.3    39  TYR39      -0.2866
     71  N         43.9370  -12.3520    7.3450 N.3    42  TRP42      -0.1227
     72  CA        42.6680  -13.0170    7.3600 C.3    42  TRP42       0.1737
     73  C         41.6970  -12.4960    6.3210 C.2    42  TRP42       0.2595
     74  O         40.9840  -13.2860    5.6910 O.2    42  TRP42      -0.2718
     75  CB        42.0530  -12.9170    8.7410 C.3    42  TRP42       0.0564
     76  CG        40.6370  -13.2520    8.7210 C.ar   42  TRP42       0.0003
     77  CD1       39.6140  -12.4000    8.9260 C.ar   42  TRP42       0.0946
     78  CD2       40.0530  -14.5340    8.4290 C.ar   42  TRP42       0.0152
     79  NE1       38.4260  -13.0530    8.7830 N.ar   42  TRP42      -0.2442
     80  CE2       38.6590  -14.3680    8.4780 C.ar   42  TRP42       0.0810
     81  CE3       40.5750  -15.8040    8.1370 C.ar   42  TRP42       0.0012
     82  CZ2       37.7560  -15.4300    8.2430 C.ar   42  TRP42       0.0191
     83  CZ3       39.6860  -16.8580    7.9060 C.ar   42  TRP42       0.0001
     84  CH2       38.2850  -16.6580    7.9600 C.ar   42  TRP42       0.0015
     85  N         41.6530  -11.1820    6.1380 N.am   43  LEU43      -0.1980
     86  CA        40.7370  -10.6090    5.1550 C.3    43  LEU43       0.1596
     87  C         41.1040  -11.0850    3.7760 C.2    43  LEU43       0.2287
     88  O         40.2230  -11.3460    2.9580 O.2    43  LEU43      -0.2864
     89  CB        40.7700   -9.0850    5.2020 C.3    43  LEU43       0.0297
     90  CG        39.7980   -8.4310    6.1780 C.3    43  LEU43       0.0022
     91  CD1       40.4040   -7.1430    6.5840 C.3    43  LEU43       0.0001
     92  CD2       38.4280   -8.1920    5.5480 C.3    43  LEU43       0.0001
     93  N         40.2760  -14.8200    3.3890 N.3    46  ARG46      -0.1245
     94  CA        38.8640  -14.9790    3.0850 C.3    46  ARG46       0.1563
     95  C         38.5350  -14.5880    1.6520 C.2    46  ARG46       0.2260
     96  O         37.6500  -15.1590    1.0330 O.2    46  ARG46      -0.2867
     97  CB        38.0170  -14.1550    4.0500 C.3    46  ARG46       0.0307
     98  CG        36.5460  -14.4880    3.9540 C.3    46  ARG46       0.0489
     99  CD        35.7140  -13.4920    4.7080 C.3    46  ARG46       0.2205
    100  NE        35.9200  -12.1440    4.2020 N.pl3  46  ARG46      -0.0865
    101  CZ        35.3410  -11.0710    4.7210 C.cat  46  ARG46       0.5346
    102  NH1       34.5260  -11.2160    5.7590 N.pl3  46  ARG46       0.1354
    103  NH2       35.5800   -9.8630    4.2090 N.pl3  46  ARG46       0.1354
    104  N         36.6720  -16.9270   -1.1340 N.3    50  LYS50      -0.1245
    105  CA        35.4080  -16.6210   -1.7880 C.3    50  LYS50       0.1561
    106  C         35.5310  -16.4720   -3.2970 C.2    50  LYS50       0.2260
    107  O         34.5250  -16.5080   -4.0040 O.2    50  LYS50      -0.2867
    108  CB        34.7820  -15.3380   -1.2200 C.3    50  LYS50       0.0271
    109  CG        34.3620  -15.4110    0.2500 C.3    50  LYS50       0.0035
    110  CD        33.3610  -14.3000    0.5910 C.3    50  LYS50       0.0206
    111  CE        32.8870  -14.3620    2.0520 C.3    50  LYS50       0.1093
    112  NZ        31.6930  -13.4740    2.3410 N.3    50  LYS50      -0.1314
    113  N         39.6060   -6.1560   -3.0600 N.3    63  ARG63      -0.1231
    114  CA        39.8230   -5.7590   -1.6710 C.3    63  ARG63       0.1694
    115  C         39.9990   -4.2540   -1.5100 C.2    63  ARG63       0.2592
    116  O         39.7580   -3.7030   -0.4200 O.2    63  ARG63      -0.2718
    117  CB        41.0700   -6.4600   -1.1330 C.3    63  ARG63       0.0321
    118  CG        40.8540   -7.8620   -0.6030 C.3    63  ARG63       0.0489
    119  CD        40.1480   -7.7800    0.7210 C.3    63  ARG63       0.2205
    120  NE        38.7130   -7.5990    0.5590 N.pl3  63  ARG63      -0.0865
    121  CZ        37.9240   -7.0670    1.4850 C.cat  63  ARG63       0.5346
    122  NH1       38.4430   -6.6480    2.6350 N.pl3  63  ARG63       0.1354
    123  NH2       36.6150   -6.9890    1.2660 N.pl3  63  ARG63       0.1354
    124  N         40.4310   -3.6130   -2.5990 N.am   64  ALA64      -0.1966
    125  CA        40.6810   -2.1730   -2.6540 C.3    64  ALA64       0.1728
    126  C         41.8660   -1.8230   -1.7540 C.2    64  ALA64       0.2616
    127  O         41.7120   -1.2270   -0.6810 O.2    64  ALA64      -0.2715
    128  CB        39.4440   -1.4020   -2.2330 C.3    64  ALA64       0.0334
    129  N         43.0530   -2.2210   -2.1980 N.am   65  ILE65      -0.1977
    130  CA        44.2830   -1.9700   -1.4630 C.3    65  ILE65       0.1596
    131  C         45.4130   -1.7130   -2.4440 C.2    65  ILE65       0.2287
    132  O         45.1890   -1.6150   -3.6570 O.2    65  ILE65      -0.2864
    133  CB        44.6720   -3.1710   -0.5730 C.3    65  ILE65       0.0276
    134  CG1       44.4350   -4.4800   -1.3340 C.3    65  ILE65       0.0022
    135  CG2       43.8950   -3.1360    0.7210 C.3    65  ILE65       0.0022
    136  CD1       44.8130   -5.7200   -0.5490 C.3    65  ILE65       0.0001
    137  N         35.4080  -18.8230   10.3000 N.3   111  CYS111     -0.1235
    138  CA        34.0560  -18.5040    9.8780 C.3   111  CYS111      0.1677
    139  C         33.0620  -18.9440   10.9280 C.2   111  CYS111      0.2270
    140  O         32.2780  -18.1530   11.4190 O.2   111  CYS111     -0.2867
    141  CB        33.7270  -19.1980    8.5740 C.3   111  CYS111      0.0956
    142  SG        34.5820  -18.5290    7.1650 S.3   111  CYS111     -0.0801
    143  N         33.0350  -16.6880   14.1100 N.3   114  VAL114     -0.1245
    144  CA        32.4810  -15.3680   13.9020 C.3   114  VAL114      0.1561
    145  C         30.9700  -15.4780   13.8600 C.2   114  VAL114      0.2260
    146  O         30.2660  -14.7830   14.5840 O.2   114  VAL114     -0.2867
    147  CB        33.0240  -14.7640   12.6120 C.3   114  VAL114      0.0252
    148  CG1       31.9350  -13.9920   11.8980 C.3   114  VAL114      0.0019
    149  CG2       34.2280  -13.8730   12.9390 C.3   114  VAL114      0.0019
    150  N         28.7190  -13.5110   16.3250 N.3   118  GLN118     -0.1245
    151  CA        27.6810  -12.6300   15.8100 C.3   118  GLN118      0.1566
    152  C         26.2490  -13.0290   16.1870 C.2   118  GLN118      0.2260
    153  O         25.4380  -12.1720   16.5330 O.2   118  GLN118     -0.2867
    154  CB        27.7700  -12.5370   14.2860 C.3   118  GLN118      0.0367
    155  CG        29.1300  -12.1440   13.7400 C.3   118  GLN118      0.0905
    156  CD        29.1440  -12.0770   12.2290 C.2   118  GLN118      0.2608
    157  OE1       28.5540  -12.9190   11.5570 O.2   118  GLN118     -0.2717
    158  NE2       29.8230  -11.0770   11.6870 N.am  118  GLN118     -0.0878
@<TRIPOS>BOND
     1   107   106    2
     2   132   131    2
     3   106   105    1
     4   113   114    1
     5   125   124    1
     6   125   128    1
     7   125   126    1
     8   124   115   am
     9   131   130    1
    10   129   126   am
    11   129   130    1
    12   105   108    1
    13   105   104    1
    14   126   127    2
    15   114   115    1
    16   114   117    1
    17   115   116    2
    18   130   133    1
    19   134   133    1
    20   134   136    1
    21   108   109    1
    22   117   118    1
    23   118   119    1
    24   133   135    1
    25   109   110    1
    26   120   119    1
    27   120   121    2
    28   110   111    1
    29    96    95    2
    30   123   121    1
    31   121   122    1
    32    95    94    1
    33   111   112    1
    34    88    87    2
    35    94    93    1
    36    94    97    1
    37    87    86    1
    38    98    97    1
    39    98    99    1
    40   100    99    1
    41   100   101    2
    42   103   101    1
    43   101   102    1
    44    86    89    1
    45    86    85    1
    46    89    90    1
    47    92    90    1
    48    74    73    2
    49    85    73   am
    50    90    91    1
    51    73    72    1
    52   142   141    1
    53    71    72    1
    54    72    75    1
    55    11     9   ar
    56    11    10   ar
    57     9     7   ar
    58    83    84   ar
    59    83    81   ar
    60    84    82   ar
    61    62    61    2
    62    81    78   ar
    63    82    80   ar
    64    78    80   ar
    65    78    76   ar
    66    80    79   ar
    67   141   138    1
    68    76    75    1
    69    76    77   ar
    70    23    22    1
    71    79    77   ar
    72    10     8   ar
    73    61    60    1
    74     7     6   ar
    75    20    22   ar
    76    20    18   ar
    77    22    21   ar
    78   138   137    1
    79   138   139    1
    80     8     6   ar
    81     6     5    1
    82    60    63    1
    83    60    59    1
    84    18    17   ar
    85    21    19   ar
    86   139   140    2
    87    63    64    1
    88     4     3    2
    89    17    19   ar
    90    17    16    1
    91   157   156    2
    92    65    64   ar
    93    65    67   ar
    94     5     2    1
    95   158   156   am
    96     2     3    1
    97     2     1    1
    98   148   147    1
    99    64    66   ar
   100    57    56    1
   101   156   155    1
   102    16    13    1
   103   147   149    1
   104   147   144    1
   105    67    69   ar
   106    43    41    1
   107    58    56    1
   108    42    41    1
   109    33    31   ar
   110    33    34   ar
   111    35    34    1
   112    56    55    1
   113    66    68   ar
   114    41    40    1
   115    13    12    1
   116    13    14    1
   117    31    29   ar
   118   155   154    1
   119    34    32   ar
   120   145   144    1
   121   145   146    2
   122   144   143    1
   123    69    68   ar
   124    69    70    1
   125    15    14    2
   126    55    52    1
   127   154   151    1
   128    29    30   ar
   129    29    28    1
   130    32    30   ar
   131    40    37    1
   132    52    53    1
   133    52    51    1
   134    49    48    1
   135    54    53    2
   136    28    25    1
   137    37    36    1
   138    37    38    1
   139    48    50    1
   140    48    45    1
   141   151   152    1
   142   151   150    1
   143    36    26   am
   144   152   153    2
   145    47    46    2
   146    26    27    2
   147    26    25    1
   148    25    24    1
   149    38    39    2
   150    46    45    1
   151    45    44    1
