@<TRIPOS>MOLECULE
tmp/4em2A00.pdb
 106 104 0 0 0
SMALL
GASTEIGER

@<TRIPOS>ATOM
      1  N         19.5200   42.1030   -2.6190 N.3     6  PHE6       -0.1241
      2  CA        19.5300   41.0620   -1.5950 C.3     6  PHE6        0.1605
      3  C         20.7060   40.0950   -1.7390 C.2     6  PHE6        0.2264
      4  O         21.1020   39.4420   -0.7960 O.2     6  PHE6       -0.2867
      5  CB        18.2170   40.3190   -1.6390 C.3     6  PHE6        0.0534
      6  CG        17.7080   39.9100   -0.2660 C.ar    6  PHE6       -0.0203
      7  CD1       18.0170   40.6830    0.8600 C.ar    6  PHE6       -0.0042
      8  CD2       16.8910   38.7830   -0.0960 C.ar    6  PHE6       -0.0042
      9  CE1       17.5130   40.3260    2.0990 C.ar    6  PHE6       -0.0003
     10  CE2       16.4020   38.4650    1.1700 C.ar    6  PHE6       -0.0003
     11  CZ        16.7110   39.2230    2.2200 C.ar    6  PHE6       -0.0000
     12  N         16.2100   28.9900   -3.8930 N.3    21  TYR21      -0.1241
     13  CA        16.0510   30.3210   -3.2560 C.3    21  TYR21       0.1605
     14  C         16.2100   31.5180   -4.1960 C.2    21  TYR21       0.2264
     15  O         15.2930   32.3220   -4.3130 O.2    21  TYR21      -0.2867
     16  CB        17.0270   30.4280   -2.0690 C.3    21  TYR21       0.0534
     17  CG        16.8690   31.6420   -1.1940 C.ar   21  TYR21      -0.0201
     18  CD1       15.9370   31.6460   -0.1230 C.ar   21  TYR21      -0.0009
     19  CD2       17.6910   32.7370   -1.3720 C.ar   21  TYR21      -0.0009
     20  CE1       15.8590   32.7160    0.7720 C.ar   21  TYR21       0.0417
     21  CE2       17.6280   33.8210   -0.5220 C.ar   21  TYR21       0.0417
     22  CZ        16.7210   33.7980    0.5590 C.ar   21  TYR21       0.1957
     23  OH        16.7220   34.8080    1.4670 O.3    21  TYR21      -0.2866
     24  N         13.7290   31.7910   -6.9790 N.3    24  TYR24      -0.1227
     25  CA        12.4870   32.1460   -6.3330 C.3    24  TYR24       0.1736
     26  C         12.4020   33.6520   -6.0670 C.2    24  TYR24       0.2595
     27  O         11.3960   34.2700   -6.3440 O.2    24  TYR24      -0.2718
     28  CB        12.3100   31.3880   -5.0200 C.3    24  TYR24       0.0548
     29  CG        11.0380   31.8080   -4.3120 C.ar   24  TYR24      -0.0200
     30  CD1        9.7830   31.5220   -4.8640 C.ar   24  TYR24      -0.0009
     31  CD2       11.0880   32.5480   -3.1120 C.ar   24  TYR24      -0.0009
     32  CE1        8.6020   31.9750   -4.2360 C.ar   24  TYR24       0.0417
     33  CE2        9.9030   32.9970   -2.4630 C.ar   24  TYR24       0.0417
     34  CZ         8.6640   32.6970   -3.0510 C.ar   24  TYR24       0.1957
     35  OH         7.4770   33.0980   -2.4260 O.3    24  TYR24      -0.2866
     36  N         13.4700   34.2290   -5.5520 N.am   25  LEU25      -0.1980
     37  CA        13.4580   35.6370   -5.2740 C.3    25  LEU25       0.1596
     38  C         13.4330   36.4810   -6.5130 C.2    25  LEU25       0.2287
     39  O         12.8190   37.5630   -6.5220 O.2    25  LEU25      -0.2864
     40  CB        14.6260   35.9860   -4.3600 C.3    25  LEU25       0.0297
     41  CG        14.3130   35.1810   -3.0230 C.3    25  LEU25       0.0022
     42  CD1       14.9990   35.7800   -1.8940 C.3    25  LEU25       0.0001
     43  CD2       12.7550   35.1980   -2.6270 C.3    25  LEU25       0.0001
     44  N          9.8670   36.6400   -7.5490 N.3    28  THR28      -0.1218
     45  CA         8.9490   37.4360   -6.7340 C.3    28  THR28       0.1862
     46  C          9.3200   38.9110   -6.6410 C.2    28  THR28       0.2287
     47  O          8.5490   39.7400   -6.1570 O.2    28  THR28      -0.2866
     48  CB         8.8390   36.8670   -5.3230 C.3    28  THR28       0.1770
     49  OG1       10.1520   36.7250   -4.7510 O.3    28  THR28      -0.2211
     50  CG2        8.1620   35.5310   -5.3520 C.3    28  THR28       0.0375
     51  N         13.8150   43.7010   -0.6420 N.3    39  TYR39      -0.1241
     52  CA        13.6220   42.4830    0.1230 C.3    39  TYR39       0.1605
     53  C         13.9370   42.5920    1.6100 C.2    39  TYR39       0.2264
     54  O         13.1790   42.0760    2.3830 O.2    39  TYR39      -0.2867
     55  CB        14.4140   41.3190   -0.4600 C.3    39  TYR39       0.0534
     56  CG        13.6590   40.5270   -1.5060 C.ar   39  TYR39      -0.0201
     57  CD1       12.6030   39.6640   -1.1710 C.ar   39  TYR39      -0.0009
     58  CD2       13.9970   40.6680   -2.8430 C.ar   39  TYR39      -0.0009
     59  CE1       11.9070   38.9590   -2.1940 C.ar   39  TYR39       0.0417
     60  CE2       13.3330   40.0160   -3.8420 C.ar   39  TYR39       0.0417
     61  CZ        12.3040   39.1690   -3.5370 C.ar   39  TYR39       0.1957
     62  OH        11.6970   38.5670   -4.6260 O.3    39  TYR39      -0.2866
     63  N         11.1460   44.3530    3.1840 N.3    42  TRP42      -0.1227
     64  CA         9.9540   43.5650    3.2630 C.3    42  TRP42       0.1737
     65  C          9.9950   42.5510    4.4030 C.2    42  TRP42       0.2595
     66  O          9.0250   42.3720    5.1460 O.2    42  TRP42      -0.2718
     67  CB         9.7300   42.8580    1.9230 C.3    42  TRP42       0.0564
     68  CG         8.6730   41.7620    2.0710 C.ar   42  TRP42       0.0003
     69  CD1        8.9020   40.4230    2.0450 C.ar   42  TRP42       0.0946
     70  CD2        7.2720   41.9340    2.3180 C.ar   42  TRP42       0.0152
     71  NE1        7.7330   39.7430    2.2600 N.ar   42  TRP42      -0.2442
     72  CE2        6.7070   40.6400    2.4180 C.ar   42  TRP42       0.0810
     73  CE3        6.4290   43.0470    2.4470 C.ar   42  TRP42       0.0012
     74  CZ2        5.3020   40.4200    2.6410 C.ar   42  TRP42       0.0191
     75  CZ3        5.0170   42.8240    2.6670 C.ar   42  TRP42       0.0001
     76  CH2        4.4940   41.5270    2.7590 C.ar   42  TRP42       0.0015
     77  N         11.1320   41.8970    4.5970 N.am   43  LEU43      -0.1980
     78  CA        11.1930   40.8940    5.6490 C.3    43  LEU43       0.1596
     79  C         10.9560   41.4760    7.0210 C.2    43  LEU43       0.2287
     80  O         10.2270   40.8750    7.8810 O.2    43  LEU43      -0.2864
     81  CB        12.5680   40.1550    5.5780 C.3    43  LEU43       0.0297
     82  CG        12.6970   39.3040    4.2960 C.3    43  LEU43       0.0022
     83  CD1       14.1690   38.6570    4.2600 C.3    43  LEU43       0.0001
     84  CD2       11.6750   38.1540    4.3230 C.3    43  LEU43       0.0001
     85  N          7.2710   42.5350    7.3240 N.3    46  ARG46      -0.1245
     86  CA         6.4310   41.3870    7.5320 C.3    46  ARG46       0.1563
     87  C          6.5700   40.9410    8.9690 C.2    46  ARG46       0.2260
     88  O          5.5770   40.5980    9.6340 O.2    46  ARG46      -0.2867
     89  CB         6.8500   40.2420    6.5700 C.3    46  ARG46       0.0307
     90  CG         5.9460   38.9500    6.6400 C.3    46  ARG46       0.0489
     91  CD         6.4170   37.8710    5.5950 C.3    46  ARG46       0.2205
     92  NE         7.7830   37.4030    5.9010 N.pl3  46  ARG46      -0.0865
     93  CZ         8.3660   36.3240    5.3340 C.cat  46  ARG46       0.5346
     94  NH1        7.7010   35.6130    4.4170 N.pl3  46  ARG46       0.1354
     95  NH2        9.5970   35.9170    5.7290 N.pl3  46  ARG46       0.1354
     96  N         14.8800   37.5480   13.2890 N.3    63  ARG63      -0.1245
     97  CA        15.3940   37.5860   11.9240 C.3    63  ARG63       0.1563
     98  C         16.8270   37.0720   11.8390 C.2    63  ARG63       0.2260
     99  O         17.3320   36.7030   10.7560 O.2    63  ARG63      -0.2867
    100  CB        15.3410   39.0160   11.3930 C.3    63  ARG63       0.0307
    101  CG        13.9220   39.5730   11.1890 C.3    63  ARG63       0.0489
    102  CD        13.3600   39.1560    9.8340 C.3    63  ARG63       0.2205
    103  NE        12.7670   37.8360    9.8450 N.pl3  63  ARG63      -0.0865
    104  CZ        12.9540   36.9010    8.9200 C.cat  63  ARG63       0.5346
    105  NH1       13.7510   37.1090    7.8750 N.pl3  63  ARG63       0.1354
    106  NH2       12.2800   35.7600    9.0420 N.pl3  63  ARG63       0.1354
@<TRIPOS>BOND
     1    44    45    1
     2    24    25    1
     3    45    46    1
     4    45    48    1
     5    46    47    2
     6    39    38    2
     7    38    37    1
     8    27    26    2
     9    25    26    1
    10    25    28    1
    11    26    36   am
    12    36    37    1
    13    50    48    1
    14    48    49    1
    15    37    40    1
    16    28    29    1
    17    30    29   ar
    18    30    32   ar
    19    62    61    1
    20    40    41    1
    21    15    14    2
    22    29    31   ar
    23    32    34   ar
    24    14    13    1
    25    12    13    1
    26    60    61   ar
    27    60    58   ar
    28    61    59   ar
    29    13    16    1
    30    31    33   ar
    31    34    33   ar
    32    34    35    1
    33    41    43    1
    34    41    42    1
    35    58    56   ar
    36     1     2    1
    37    59    57   ar
    38    16    17    1
    39     3     2    1
    40     3     4    2
    41     5     2    1
    42     5     6    1
    43    56    57   ar
    44    56    55    1
    45    19    17   ar
    46    19    21   ar
    47    17    18   ar
    48    51    52    1
    49    21    22   ar
    50    55    52    1
    51     6     8   ar
    52     6     7   ar
    53    18    20   ar
    54     8    10   ar
    55    52    53    1
    56    22    20   ar
    57    22    23    1
    58     7     9   ar
    59    10    11   ar
    60    53    54    2
    61    67    68    1
    62    67    64    1
    63    69    68   ar
    64    69    71   ar
    65    68    70   ar
    66     9    11   ar
    67    71    72   ar
    68    70    72   ar
    69    70    73   ar
    70    72    74   ar
    71    73    75   ar
    72    74    76   ar
    73    75    76   ar
    74    63    64    1
    75    64    65    1
    76    83    82    1
    77    82    84    1
    78    82    81    1
    79    65    77   am
    80    65    66    2
    81    94    93    1
    82    77    78    1
    83    93    95    1
    84    93    92    2
    85    81    78    1
    86    91    92    1
    87    91    90    1
    88    78    79    1
    89    89    90    1
    90    89    86    1
    91    79    80    2
    92    85    86    1
    93    86    87    1
    94   105   104    1
    95   104   106    1
    96   104   103    2
    97    87    88    2
    98   102   103    1
    99   102   101    1
   100    99    98    2
   101   101   100    1
   102   100    97    1
   103    98    97    1
   104    97    96    1
