@<TRIPOS>MOLECULE
tmp/4em2A01.pdb
 109 104 0 0 0
SMALL
GASTEIGER

@<TRIPOS>ATOM
      1  N         13.7290   31.7910   -6.9790 N.3    24  TYR24      -0.1227
      2  CA        12.4870   32.1460   -6.3330 C.3    24  TYR24       0.1736
      3  C         12.4020   33.6520   -6.0670 C.2    24  TYR24       0.2595
      4  O         11.3960   34.2700   -6.3440 O.2    24  TYR24      -0.2718
      5  CB        12.3100   31.3880   -5.0200 C.3    24  TYR24       0.0548
      6  CG        11.0380   31.8080   -4.3120 C.ar   24  TYR24      -0.0200
      7  CD1        9.7830   31.5220   -4.8640 C.ar   24  TYR24      -0.0009
      8  CD2       11.0880   32.5480   -3.1120 C.ar   24  TYR24      -0.0009
      9  CE1        8.6020   31.9750   -4.2360 C.ar   24  TYR24       0.0417
     10  CE2        9.9030   32.9970   -2.4630 C.ar   24  TYR24       0.0417
     11  CZ         8.6640   32.6970   -3.0510 C.ar   24  TYR24       0.1957
     12  OH         7.4770   33.0980   -2.4260 O.3    24  TYR24      -0.2866
     13  N         13.4700   34.2290   -5.5520 N.am   25  LEU25      -0.1980
     14  CA        13.4580   35.6370   -5.2740 C.3    25  LEU25       0.1596
     15  C         13.4330   36.4810   -6.5130 C.2    25  LEU25       0.2287
     16  O         12.8190   37.5630   -6.5220 O.2    25  LEU25      -0.2864
     17  CB        14.6260   35.9860   -4.3600 C.3    25  LEU25       0.0297
     18  CG        14.3130   35.1810   -3.0230 C.3    25  LEU25       0.0022
     19  CD1       14.9990   35.7800   -1.8940 C.3    25  LEU25       0.0001
     20  CD2       12.7550   35.1980   -2.6270 C.3    25  LEU25       0.0001
     21  N          9.8670   36.6400   -7.5490 N.3    28  THR28      -0.1218
     22  CA         8.9490   37.4360   -6.7340 C.3    28  THR28       0.1862
     23  C          9.3200   38.9110   -6.6410 C.2    28  THR28       0.2287
     24  O          8.5490   39.7400   -6.1570 O.2    28  THR28      -0.2866
     25  CB         8.8390   36.8670   -5.3230 C.3    28  THR28       0.1770
     26  OG1       10.1520   36.7250   -4.7510 O.3    28  THR28      -0.2211
     27  CG2        8.1620   35.5310   -5.3520 C.3    28  THR28       0.0375
     28  N          7.6200   43.1380   -5.0430 N.3    32  LEU32      -0.1245
     29  CA         8.1430   44.1440   -4.1210 C.3    32  LEU32       0.1561
     30  C          8.4890   45.4630   -4.8570 C.2    32  LEU32       0.2260
     31  O          8.1710   46.5430   -4.3550 O.2    32  LEU32      -0.2867
     32  CB         9.4240   43.6440   -3.3860 C.3    32  LEU32       0.0270
     33  CG         9.2900   42.3410   -2.5730 C.3    32  LEU32       0.0019
     34  CD1       10.4660   42.1920   -1.5910 C.3    32  LEU32       0.0001
     35  CD2        7.9830   42.3290   -1.8280 C.3    32  LEU32       0.0001
     36  N         13.8150   43.7010   -0.6420 N.3    39  TYR39      -0.1241
     37  CA        13.6220   42.4830    0.1230 C.3    39  TYR39       0.1605
     38  C         13.9370   42.5920    1.6100 C.2    39  TYR39       0.2264
     39  O         13.1790   42.0760    2.3830 O.2    39  TYR39      -0.2867
     40  CB        14.4140   41.3190   -0.4600 C.3    39  TYR39       0.0534
     41  CG        13.6590   40.5270   -1.5060 C.ar   39  TYR39      -0.0201
     42  CD1       12.6030   39.6640   -1.1710 C.ar   39  TYR39      -0.0009
     43  CD2       13.9970   40.6680   -2.8430 C.ar   39  TYR39      -0.0009
     44  CE1       11.9070   38.9590   -2.1940 C.ar   39  TYR39       0.0417
     45  CE2       13.3330   40.0160   -3.8420 C.ar   39  TYR39       0.0417
     46  CZ        12.3040   39.1690   -3.5370 C.ar   39  TYR39       0.1957
     47  OH        11.6970   38.5670   -4.6260 O.3    39  TYR39      -0.2866
     48  N         11.1460   44.3530    3.1840 N.3    42  TRP42      -0.1227
     49  CA         9.9540   43.5650    3.2630 C.3    42  TRP42       0.1737
     50  C          9.9950   42.5510    4.4030 C.2    42  TRP42       0.2595
     51  O          9.0250   42.3720    5.1460 O.2    42  TRP42      -0.2718
     52  CB         9.7300   42.8580    1.9230 C.3    42  TRP42       0.0564
     53  CG         8.6730   41.7620    2.0710 C.ar   42  TRP42       0.0003
     54  CD1        8.9020   40.4230    2.0450 C.ar   42  TRP42       0.0946
     55  CD2        7.2720   41.9340    2.3180 C.ar   42  TRP42       0.0152
     56  NE1        7.7330   39.7430    2.2600 N.ar   42  TRP42      -0.2442
     57  CE2        6.7070   40.6400    2.4180 C.ar   42  TRP42       0.0810
     58  CE3        6.4290   43.0470    2.4470 C.ar   42  TRP42       0.0012
     59  CZ2        5.3020   40.4200    2.6410 C.ar   42  TRP42       0.0191
     60  CZ3        5.0170   42.8240    2.6670 C.ar   42  TRP42       0.0001
     61  CH2        4.4940   41.5270    2.7590 C.ar   42  TRP42       0.0015
     62  N         11.1320   41.8970    4.5970 N.am   43  LEU43      -0.1980
     63  CA        11.1930   40.8940    5.6490 C.3    43  LEU43       0.1596
     64  C         10.9560   41.4760    7.0210 C.2    43  LEU43       0.2287
     65  O         10.2270   40.8750    7.8810 O.2    43  LEU43      -0.2864
     66  CB        12.5680   40.1550    5.5780 C.3    43  LEU43       0.0297
     67  CG        12.6970   39.3040    4.2960 C.3    43  LEU43       0.0022
     68  CD1       14.1690   38.6570    4.2600 C.3    43  LEU43       0.0001
     69  CD2       11.6750   38.1540    4.3230 C.3    43  LEU43       0.0001
     70  N          7.2710   42.5350    7.3240 N.3    46  ARG46      -0.1245
     71  CA         6.4310   41.3870    7.5320 C.3    46  ARG46       0.1563
     72  C          6.5700   40.9410    8.9690 C.2    46  ARG46       0.2260
     73  O          5.5770   40.5980    9.6340 O.2    46  ARG46      -0.2867
     74  CB         6.8500   40.2420    6.5700 C.3    46  ARG46       0.0307
     75  CG         5.9460   38.9500    6.6400 C.3    46  ARG46       0.0489
     76  CD         6.4170   37.8710    5.5950 C.3    46  ARG46       0.2205
     77  NE         7.7830   37.4030    5.9010 N.pl3  46  ARG46      -0.0865
     78  CZ         8.3660   36.3240    5.3340 C.cat  46  ARG46       0.5346
     79  NH1        7.7010   35.6130    4.4170 N.pl3  46  ARG46       0.1354
     80  NH2        9.5970   35.9170    5.7290 N.pl3  46  ARG46       0.1354
     81  N          1.2090   42.9180   -1.0910 N.3   110  VAL110     -0.1231
     82  CA         2.3220   42.0160   -1.4000 C.3   110  VAL110      0.1692
     83  C          1.9590   40.5990   -1.0180 C.2   110  VAL110      0.2592
     84  O          2.1320   39.6820   -1.7830 O.2   110  VAL110     -0.2718
     85  CB         3.6060   42.4370   -0.6080 C.3   110  VAL110      0.0266
     86  CG1        4.6600   41.2660   -0.6000 C.3   110  VAL110      0.0020
     87  CG2        4.2120   43.7280   -1.2530 C.3   110  VAL110      0.0020
     88  N          1.4180   40.4360    0.1780 N.am  111  CYS111     -0.1970
     89  CA         1.1090   39.1380    0.6760 C.3   111  CYS111      0.1712
     90  C          0.1680   38.3490   -0.2500 C.2   111  CYS111      0.2296
     91  O          0.4060   37.1750   -0.5730 O.2   111  CYS111     -0.2864
     92  CB         0.5930   39.3210    2.1030 C.3   111  CYS111      0.0983
     93  SG        -0.0540   37.8440    2.8200 S.3   111  CYS111     -0.0798
     94  N          2.0090   37.4370   -3.5770 N.3   114  VAL114     -0.1245
     95  CA         2.9240   36.3280   -3.3460 C.3   114  VAL114      0.1561
     96  C          2.1240   35.0270   -3.2530 C.2   114  VAL114      0.2260
     97  O          2.4880   34.0210   -3.8610 O.2   114  VAL114     -0.2867
     98  CB         3.7060   36.5610   -2.0240 C.3   114  VAL114      0.0252
     99  CG1        4.4210   35.2180   -1.5520 C.3   114  VAL114      0.0019
    100  CG2        4.7680   37.7040   -2.2760 C.3   114  VAL114      0.0019
    101  N          2.5740   31.9130   -5.8010 N.3   118  GLN118     -0.1245
    102  CA         2.9430   30.5820   -5.3260 C.3   118  GLN118      0.1566
    103  C          1.9330   29.5510   -5.8660 C.2   118  GLN118      0.2260
    104  O          2.3200   28.4730   -6.3670 O.2   118  GLN118     -0.2867
    105  CB         2.9590   30.5580   -3.7980 C.3   118  GLN118      0.0367
    106  CG         4.0990   31.4050   -3.1730 C.3   118  GLN118      0.0905
    107  CD         3.9840   31.4900   -1.6470 C.2   118  GLN118      0.2608
    108  OE1        2.9400   31.1940   -1.0780 O.2   118  GLN118     -0.2717
    109  NE2        5.0490   31.9100   -0.9970 N.am  118  GLN118     -0.0878
@<TRIPOS>BOND
     1    21    22    1
     2     1     2    1
     3    22    23    1
     4    22    25    1
     5    23    24    2
     6    16    15    2
     7    15    14    1
     8   104   103    2
     9     4     3    2
    10     2     3    1
    11     2     5    1
    12     3    13   am
    13   103   102    1
    14   101   102    1
    15    13    14    1
    16    27    25    1
    17   102   105    1
    18    25    26    1
    19    14    17    1
    20    28    29    1
    21     5     6    1
    22     7     6   ar
    23     7     9   ar
    24    30    31    2
    25    30    29    1
    26    47    46    1
    27    17    18    1
    28     6     8   ar
    29     9    11   ar
    30    29    32    1
    31    97    96    2
    32    45    46   ar
    33    45    43   ar
    34   105   106    1
    35    94    95    1
    36    46    44   ar
    37    32    33    1
    38    95    96    1
    39    95    98    1
    40   106   107    1
    41     8    10   ar
    42    11    10   ar
    43    11    12    1
    44    18    20    1
    45    18    19    1
    46    43    41   ar
    47    33    35    1
    48    33    34    1
    49   100    98    1
    50    44    42   ar
    51    98    99    1
    52    84    83    2
    53   107   108    2
    54   107   109   am
    55    41    42   ar
    56    41    40    1
    57    82    81    1
    58    82    83    1
    59    82    85    1
    60    87    85    1
    61    83    88   am
    62    36    37    1
    63    85    86    1
    64    91    90    2
    65    40    37    1
    66    90    89    1
    67    37    38    1
    68    88    89    1
    69    89    92    1
    70    38    39    2
    71    52    53    1
    72    52    49    1
    73    54    53   ar
    74    54    56   ar
    75    53    55   ar
    76    92    93    1
    77    56    57   ar
    78    55    57   ar
    79    55    58   ar
    80    57    59   ar
    81    58    60   ar
    82    59    61   ar
    83    60    61   ar
    84    48    49    1
    85    49    50    1
    86    68    67    1
    87    67    69    1
    88    67    66    1
    89    50    62   am
    90    50    51    2
    91    79    78    1
    92    62    63    1
    93    78    80    1
    94    78    77    2
    95    66    63    1
    96    76    77    1
    97    76    75    1
    98    63    64    1
    99    74    75    1
   100    74    71    1
   101    64    65    2
   102    70    71    1
   103    71    72    1
   104    72    73    2
