@<TRIPOS>MOLECULE
tmp/4em3A01.pdb
 149 142 0 0 0
SMALL
GASTEIGER

@<TRIPOS>ATOM
      1  N         16.1080    4.7690   32.9710 N.3     9  VAL9       -0.1231
      2  CA        16.0600    5.5470   34.2070 C.3     9  VAL9        0.1692
      3  C         15.0690    4.9400   35.2070 C.2     9  VAL9        0.2591
      4  O         15.2590    3.7970   35.6360 O.2     9  VAL9       -0.2718
      5  CB        15.8550    7.0590   33.9150 C.3     9  VAL9        0.0266
      6  CG1       16.1520    7.9000   35.1450 C.3     9  VAL9        0.0020
      7  CG2       16.7920    7.4940   32.7740 C.3     9  VAL9        0.0020
      8  N         14.0230    5.6670   35.5830 N.am   10  ALA10      -0.1980
      9  CA        13.2720    5.2790   36.7830 C.3    10  ALA10       0.1597
     10  C         12.5660    3.9430   36.6320 C.2    10  ALA10       0.2287
     11  O         12.6600    3.0770   37.5030 O.2    10  ALA10      -0.2864
     12  CB        12.2830    6.3650   37.1840 C.3    10  ALA10       0.0319
     13  N         15.7210    1.0930   34.1180 N.3    13  ALA13      -0.1231
     14  CA        16.9080    0.6020   34.8060 C.3    13  ALA13       0.1694
     15  C         16.4920   -0.1880   36.0340 C.2    13  ALA13       0.2592
     16  O         17.0880   -1.2230   36.3620 O.2    13  ALA13      -0.2718
     17  CB        17.8050    1.7640   35.2000 C.3    13  ALA13       0.0304
     18  N         15.4720    0.3220   36.7230 N.am   14  THR14      -0.1953
     19  CA        14.9410   -0.3420   37.8990 C.3    14  THR14       0.1897
     20  C         14.3520   -1.7010   37.5230 C.2    14  THR14       0.2313
     21  O         14.6050   -2.7030   38.1860 O.2    14  THR14      -0.2863
     22  CB        13.8640    0.5230   38.5850 C.3    14  THR14       0.1794
     23  OG1       14.3980    1.8290   38.8390 O.3    14  THR14      -0.2208
     24  CG2       13.4130   -0.1010   39.9060 C.3    14  THR14       0.0378
     25  N         17.1430   -4.2200   36.6620 N.3    17  SER17      -0.1202
     26  CA        17.7890   -4.6510   37.8950 C.3    17  SER17       0.2020
     27  C         16.9380   -5.6610   38.6550 C.2    17  SER17       0.2618
     28  O         17.4460   -6.6700   39.1400 O.2    17  SER17      -0.2717
     29  CB        18.0670   -3.4510   38.7950 C.3    17  SER17       0.2103
     30  OG        18.8350   -3.8420   39.9170 O.3    17  SER17      -0.2182
     31  N         15.6440   -5.3830   38.7520 N.am   18  GLN18      -0.1979
     32  CA        14.7380   -6.2630   39.4930 C.3    18  GLN18       0.1601
     33  C         14.5970   -7.6240   38.8170 C.2    18  GLN18       0.2287
     34  O         14.4970   -8.6520   39.4940 O.2    18  GLN18      -0.2864
     35  CB        13.3680   -5.6070   39.6750 C.3    18  GLN18       0.0394
     36  CG        13.3890   -4.3640   40.5580 C.3    18  GLN18       0.0908
     37  CD        13.8070   -4.6680   41.9700 C.2    18  GLN18       0.2608
     38  OE1       13.2930   -5.6020   42.5940 O.2    18  GLN18      -0.2717
     39  NE2       14.7560   -3.8840   42.4900 N.am   18  GLN18      -0.0878
     40  N         17.7890   -9.7110   39.5920 N.3    21  ARG21      -0.1245
     41  CA        17.7130  -10.2650   40.9450 C.3    21  ARG21       0.1563
     42  C         17.1140  -11.6650   40.9210 C.2    21  ARG21       0.2260
     43  O         17.5210  -12.5360   41.6870 O.2    21  ARG21      -0.2867
     44  CB        16.8460   -9.3890   41.8470 C.3    21  ARG21       0.0307
     45  CG        17.4270   -8.0380   42.2040 C.3    21  ARG21       0.0489
     46  CD        16.5830   -7.3970   43.3040 C.3    21  ARG21       0.2205
     47  NE        16.7140   -8.1200   44.5680 N.pl3  21  ARG21      -0.0865
     48  CZ        17.6190   -7.8270   45.4980 C.cat  21  ARG21       0.5346
     49  NH1       18.4550   -6.8170   45.3110 N.pl3  21  ARG21       0.1354
     50  NH2       17.6860   -8.5330   46.6190 N.pl3  21  ARG21       0.1354
     51  N         20.2550    6.1530   34.4670 N.3    38  SER38      -0.1202
     52  CA        20.1460    6.2120   35.9120 C.3    38  SER38       0.2020
     53  C         20.5380    7.5560   36.5030 C.2    38  SER38       0.2619
     54  O         21.1860    7.6020   37.5490 O.2    38  SER38      -0.2717
     55  CB        21.0220    5.1280   36.5460 C.3    38  SER38       0.2103
     56  OG        20.4980    3.8390   36.2830 O.3    38  SER38      -0.2182
     57  N         20.1870    8.6510   35.8480 N.am   39  PHE39      -0.1961
     58  CA        20.3910    9.9330   36.4980 C.3    39  PHE39       0.1771
     59  C         19.2710   10.1090   37.5230 C.2    39  PHE39       0.2619
     60  O         18.2330    9.4420   37.4580 O.2    39  PHE39      -0.2715
     61  CB        20.4300   11.0970   35.5090 C.3    39  PHE39       0.0574
     62  CG        19.1720   11.2570   34.6920 C.ar   39  PHE39      -0.0200
     63  CD1       19.0260   10.5840   33.4850 C.ar   39  PHE39      -0.0042
     64  CD2       18.1540   12.1020   35.1150 C.ar   39  PHE39      -0.0042
     65  CE1       17.8800   10.7360   32.7280 C.ar   39  PHE39      -0.0003
     66  CE2       17.0030   12.2580   34.3630 C.ar   39  PHE39      -0.0003
     67  CZ        16.8650   11.5730   33.1670 C.ar   39  PHE39      -0.0000
     68  N         19.5090   10.9780   38.4880 N.am   40  ALA40      -0.1963
     69  CA        18.5160   11.2240   39.5240 C.3    40  ALA40       0.1728
     70  C         17.6390   12.3880   39.0990 C.2    40  ALA40       0.2616
     71  O         17.9440   13.5260   39.4610 O.2    40  ALA40      -0.2715
     72  CB        19.2130   11.5480   40.8240 C.3    40  ALA40       0.0334
     73  N         16.5900   12.1230   38.3120 N.am   41  ASN41      -0.1958
     74  CA        15.7150   13.2070   37.8370 C.3    41  ASN41       0.1819
     75  C         15.2910   14.1430   38.9630 C.2    41  ASN41       0.2621
     76  O         15.1900   15.3570   38.7690 O.2    41  ASN41      -0.2715
     77  CB        14.4100   12.7060   37.2040 C.3    41  ASN41       0.1195
     78  CG        14.4460   11.2460   36.8140 C.2    41  ASN41       0.2630
     79  OD1       14.9650   10.3960   37.5430 O.2    41  ASN41      -0.2716
     80  ND2       13.8770   10.9450   35.6460 N.am   41  ASN41      -0.0877
     81  N         15.0030   13.5530   40.1120 N.am   42  CYS42      -0.1954
     82  CA        14.4850   14.2770   41.2520 C.3    42  CYS42       0.1843
     83  C         15.4840   15.2070   41.9190 C.2    42  CYS42       0.2625
     84  O         15.1190   16.1380   42.5670 O.2    42  CYS42      -0.2714
     85  CB        13.7610   13.3460   42.2030 C.3    42  CYS42       0.0997
     86  SG        12.6230   12.1940   41.4000 S.3    42  CYS42      -0.0797
     87  N         16.7570   14.9350   41.7100 N.am   43  ALA43      -0.1977
     88  CA        17.8400   15.7040   42.3150 C.3    43  ALA43       0.1597
     89  C         18.1800   16.9310   41.4750 C.2    43  ALA43       0.2287
     90  O         18.8420   17.8600   41.9540 O.2    43  ALA43      -0.2864
     91  CB        19.0710   14.8330   42.4660 C.3    43  ALA43       0.0319
     92  N         23.6870    7.5570   39.2160 N.3    60  ALA60      -0.1231
     93  CA        23.7860    6.3990   40.0950 C.3    60  ALA60       0.1694
     94  C         24.5730    5.2580   39.4680 C.2    60  ALA60       0.2592
     95  O         25.1410    4.4210   40.1730 O.2    60  ALA60      -0.2718
     96  CB        22.3970    5.9300   40.5160 C.3    60  ALA60       0.0304
     97  N         24.6080    5.2280   38.1400 N.am   61  TYR61      -0.1976
     98  CA        25.3000    4.1660   37.4210 C.3    61  TYR61       0.1639
     99  C         25.8300    4.6460   36.0920 C.2    61  TYR61       0.2290
    100  O         25.3560    5.6470   35.5520 O.2    61  TYR61      -0.2864
    101  CB        24.3600    2.9910   37.1680 C.3    61  TYR61       0.0560
    102  CG        24.4350    1.9090   38.2080 C.ar   61  TYR61      -0.0198
    103  CD1       25.5250    1.0460   38.2660 C.ar   61  TYR61      -0.0009
    104  CD2       23.4100    1.7410   39.1340 C.ar   61  TYR61      -0.0009
    105  CE1       25.5960    0.0510   39.2130 C.ar   61  TYR61       0.0417
    106  CE2       23.4690    0.7500   40.0860 C.ar   61  TYR61       0.0417
    107  CZ        24.5620   -0.0940   40.1250 C.ar   61  TYR61       0.1957
    108  OH        24.6120   -1.0830   41.0810 O.3    61  TYR61      -0.2866
    109  N         27.1110   -0.8920   35.4180 N.3    66  PHE66      -0.1241
    110  CA        25.8840   -1.6570   35.3570 C.3    66  PHE66       0.1605
    111  C         26.1730   -3.0410   34.8200 C.2    66  PHE66       0.2264
    112  O         25.5320   -4.0200   35.1980 O.2    66  PHE66      -0.2867
    113  CB        24.8860   -0.9620   34.4430 C.3    66  PHE66       0.0534
    114  CG        23.4780   -1.0770   34.9040 C.ar   66  PHE66      -0.0203
    115  CD1       23.0820   -0.4840   36.0970 C.ar   66  PHE66      -0.0042
    116  CD2       22.5460   -1.7820   34.1650 C.ar   66  PHE66      -0.0042
    117  CE1       21.7780   -0.5820   36.5330 C.ar   66  PHE66      -0.0003
    118  CE2       21.2400   -1.8830   34.5910 C.ar   66  PHE66      -0.0003
    119  CZ        20.8540   -1.2850   35.7790 C.ar   66  PHE66      -0.0000
    120  N         25.8440   -6.0330   37.3560 N.3    70  LYS70      -0.1245
    121  CA        24.5340   -6.6420   37.1000 C.3    70  LYS70       0.1561
    122  C         24.4610   -7.4770   35.8190 C.2    70  LYS70       0.2260
    123  O         23.4750   -8.1760   35.5840 O.2    70  LYS70      -0.2867
    124  CB        23.4330   -5.5700   37.0770 C.3    70  LYS70       0.0271
    125  CG        23.2160   -4.8300   38.4040 C.3    70  LYS70       0.0035
    126  CD        22.0130   -3.8960   38.3070 C.3    70  LYS70       0.0206
    127  CE        21.8190   -3.0730   39.5820 C.3    70  LYS70       0.1093
    128  NZ        21.4920   -3.9290   40.7630 N.3    70  LYS70      -0.1314
    129  N          7.5670    8.9470   40.8570 N.3   294  ALA294     -0.1245
    130  CA         8.6230    7.9390   41.0620 C.3   294  ALA294      0.1562
    131  C          8.1110    6.6250   41.6420 C.2   294  ALA294      0.2260
    132  O          8.4980    5.5390   41.1930 O.2   294  ALA294     -0.2867
    133  CB         9.7190    8.5050   41.9650 C.3   294  ALA294      0.0290
    134  N          8.8040    2.7570   40.1270 N.3   298  HIS298     -0.1241
    135  CA         9.4730    1.7120   40.9060 C.3   298  HIS298      0.1621
    136  C          8.5740    0.5200   41.2350 C.2   298  HIS298      0.2264
    137  O          9.0320   -0.6270   41.2170 O.2   298  HIS298     -0.2867
    138  CB        10.0770    2.3030   42.1840 C.3   298  HIS298      0.0745
    139  CG        11.3340    3.0920   41.9400 C.ar  298  HIS298      0.0817
    140  ND1       12.5560    2.7270   42.4530 N.ar  298  HIS298     -0.2268
    141  CD2       11.5500    4.1990   41.1930 C.ar  298  HIS298      0.1154
    142  CE1       13.4730    3.5880   42.0530 C.ar  298  HIS298      0.1986
    143  NE2       12.8930    4.4840   41.2760 N.ar  298  HIS298     -0.2212
    144  N          8.9320   -3.5620   39.7470 N.3   302  SER302     -0.1217
    145  CA         8.9330   -4.7920   40.5440 C.3   302  SER302      0.1889
    146  C          7.8740   -5.7920   40.0930 C.2   302  SER302      0.2288
    147  O          8.1320   -6.9970   40.0450 O.2   302  SER302     -0.2866
    148  CB         8.7220   -4.4870   42.0330 C.3   302  SER302      0.2089
    149  OG         9.8960   -3.9270   42.5950 O.3   302  SER302     -0.2183
@<TRIPOS>BOND
     1    65    67   ar
     2    65    63   ar
     3     7     5    1
     4     1     2    1
     5    67    66   ar
     6    63    62   ar
     7     5     2    1
     8     5     6    1
     9    13    14    1
    10   116   118   ar
    11   116   114   ar
    12     2     3    1
    13    66    64   ar
    14   113   114    1
    15   113   110    1
    16    51    52    1
    17   118   119   ar
    18    62    64   ar
    19    62    61    1
    20    14    17    1
    21    14    15    1
    22   111   112    2
    23   111   110    1
    24   114   115   ar
    25     3     8   am
    26     3     4    2
    27   110   109    1
    28    61    58    1
    29   100    99    2
    30     8     9    1
    31   123   122    2
    32    80    78   am
    33   119   117   ar
    34   122   121    1
    35    57    58    1
    36    57    53   am
    37    52    53    1
    38    52    55    1
    39    15    16    2
    40    15    18   am
    41    99    98    1
    42   115   117   ar
    43    56    55    1
    44    58    59    1
    45    53    54    2
    46    10     9    1
    47    10    11    2
    48    25    26    1
    49    18    19    1
    50     9    12    1
    51    78    77    1
    52    78    79    2
    53   124   121    1
    54   124   125    1
    55   121   120    1
    56   101    98    1
    57   101   102    1
    58    77    74    1
    59    98    97    1
    60    60    59    2
    61    20    19    1
    62    20    21    2
    63    59    68   am
    64    74    73    1
    65    74    75    1
    66    26    27    1
    67    26    29    1
    68    19    22    1
    69    97    94   am
    70   102   103   ar
    71   102   104   ar
    72   103   105   ar
    73   126   125    1
    74   126   127    1
    75    73    70   am
    76    68    69    1
    77    22    23    1
    78    22    24    1
    79    27    31   am
    80    27    28    2
    81    31    32    1
    82    76    75    2
    83    29    30    1
    84    33    32    1
    85    33    34    2
    86    75    81   am
    87    70    71    2
    88    70    69    1
    89   104   106   ar
    90   105   107   ar
    91    92    93    1
    92    94    93    1
    93    94    95    2
    94    32    35    1
    95    69    72    1
    96   127   128    1
    97    40    41    1
    98    35    36    1
    99   144   145    1
   100   147   146    2
   101   106   107   ar
   102   146   145    1
   103    93    96    1
   104    81    82    1
   105   107   108    1
   106   134   135    1
   107   145   148    1
   108    36    37    1
   109   129   130    1
   110   135   136    1
   111   135   138    1
   112    42    41    1
   113    42    43    2
   114    41    44    1
   115   130   131    1
   116   130   133    1
   117   141   143   ar
   118   141   139   ar
   119   132   131    2
   120   137   136    2
   121    82    83    1
   122    82    85    1
   123   143   142   ar
   124    86    85    1
   125    89    90    2
   126    89    88    1
   127    87    83   am
   128    87    88    1
   129    44    45    1
   130    83    84    2
   131   139   138    1
   132   139   140   ar
   133    37    39   am
   134    37    38    2
   135   148   149    1
   136   142   140   ar
   137    45    46    1
   138    88    91    1
   139    46    47    1
   140    47    48    2
   141    49    48    1
   142    48    50    1
