@<TRIPOS>MOLECULE
tmp/4em4B00.pdb
 105 105 0 0 0
SMALL
GASTEIGER

@<TRIPOS>ATOM
      1  N         16.4040   10.2860   50.9450 N.3   358  ALA358     -0.1231
      2  CA        17.4520   10.3310   49.9320 C.3   358  ALA358      0.1694
      3  C         18.8190   10.6040   50.5470 C.2   358  ALA358      0.2592
      4  O         19.0020   11.5910   51.2690 O.2   358  ALA358     -0.2718
      5  CB        17.1440   11.3920   48.9160 C.3   358  ALA358      0.0304
      6  N         19.7730    9.7320   50.2420 N.am  359  ASN359     -0.1960
      7  CA        21.1520    9.8680   50.6900 C.3   359  ASN359      0.1819
      8  C         21.7140   11.2080   50.2750 C.2   359  ASN359      0.2621
      9  O         22.4310   11.8600   51.0440 O.2   359  ASN359     -0.2715
     10  CB        21.9670    8.7810   50.0260 C.3   359  ASN359      0.1195
     11  CG        21.1080    7.8940   49.1830 C.2   359  ASN359      0.2630
     12  OD1       20.0940    8.3420   48.6500 O.2   359  ASN359     -0.2716
     13  ND2       21.4710    6.6240   49.0820 N.am  359  ASN359     -0.0877
     14  N         21.3850   11.5990   49.0410 N.am  360  TYR360     -0.1974
     15  CA        21.8660   12.8520   48.4720 C.3   360  TYR360      0.1639
     16  C         21.3160   14.0390   49.1880 C.2   360  TYR360      0.2290
     17  O         22.0060   15.0420   49.3950 O.2   360  TYR360     -0.2864
     18  CB        21.5470   13.0090   46.9790 C.3   360  TYR360      0.0560
     19  CG        20.2060   12.5510   46.4080 C.ar  360  TYR360     -0.0198
     20  CD1       19.1270   13.4390   46.2370 C.ar  360  TYR360     -0.0009
     21  CD2       20.0720   11.2550   45.9220 C.ar  360  TYR360     -0.0009
     22  CE1       17.9320   13.0040   45.6510 C.ar  360  TYR360      0.0417
     23  CE2       18.9160   10.8210   45.3410 C.ar  360  TYR360      0.0417
     24  CZ        17.8460   11.6820   45.2060 C.ar  360  TYR360      0.1957
     25  OH        16.7090   11.1830   44.6130 O.3   360  TYR360     -0.2866
     26  N          6.5030    9.3650   47.9850 N.3   418  TYR418     -0.1241
     27  CA         7.9250    9.5550   47.6900 C.3   418  TYR418      0.1605
     28  C          8.3250   10.8660   47.0210 C.2   418  TYR418      0.2264
     29  O          7.8170   11.2420   45.9440 O.2   418  TYR418     -0.2867
     30  CB         8.5160    8.4130   46.8520 C.3   418  TYR418      0.0534
     31  CG         9.9410    8.7280   46.4230 C.ar  418  TYR418     -0.0201
     32  CD1       10.9840    8.6790   47.3470 C.ar  418  TYR418     -0.0009
     33  CD2       10.2420    9.1200   45.1140 C.ar  418  TYR418     -0.0009
     34  CE1       12.2870    8.9820   46.9830 C.ar  418  TYR418      0.0417
     35  CE2       11.5480    9.4330   44.7470 C.ar  418  TYR418      0.0417
     36  CZ        12.5620    9.3570   45.6870 C.ar  418  TYR418      0.1957
     37  OH        13.8570    9.6560   45.3330 O.3   418  TYR418     -0.2866
     38  N         12.5290   12.9850   47.3620 N.3   420  PRO420     -0.2116
     39  CA        13.8170   12.7620   48.0460 C.3   420  PRO420      0.1372
     40  C         13.8870   13.1340   49.5360 C.2   420  PRO420      0.2244
     41  O         14.5850   12.4370   50.2830 O.2   420  PRO420     -0.2868
     42  CB        14.7960   13.6010   47.2180 C.3   420  PRO420      0.0268
     43  CG        14.2130   13.5570   45.8440 C.3   420  PRO420      0.0207
     44  CD        12.7120   13.6520   46.0600 C.3   420  PRO420      0.0892
     45  N         11.4850    9.6980   51.6840 N.3   423  SER423     -0.1202
     46  CA        11.5570    8.2410   51.6270 C.3   423  SER423      0.2020
     47  C         12.3470    7.7580   50.4200 C.2   423  SER423      0.2619
     48  O         13.3240    8.3990   50.0160 O.2   423  SER423     -0.2717
     49  CB        10.1440    7.6320   51.5880 C.3   423  SER423      0.2103
     50  OG         9.3580    8.2430   50.5690 O.3   423  SER423     -0.2182
     51  N         11.9080    6.6230   49.8730 N.am  424  HIS424     -0.1961
     52  CA        12.5190    5.9740   48.7220 C.3   424  HIS424      0.1772
     53  C         11.4240    5.4180   47.8550 C.2   424  HIS424      0.2462
     54  O         10.3230    5.1540   48.3560 O.2   424  HIS424     -0.2730
     55  CB        13.3840    4.8020   49.1620 C.3   424  HIS424      0.0785
     56  CG        14.5500    5.1940   50.0220 C.ar  424  HIS424      0.0821
     57  ND1       15.7950    5.4700   49.4910 N.ar  424  HIS424     -0.2267
     58  CD2       14.6540    5.3330   51.3520 C.ar  424  HIS424      0.1154
     59  CE1       16.6160    5.7640   50.4760 C.ar  424  HIS424      0.1986
     60  NE2       15.9710    5.6950   51.6160 N.ar  424  HIS424     -0.2212
     61  N         11.7380    5.1720   46.5670 N.am  425  PRO425     -0.2716
     62  CA        10.7430    4.5690   45.6760 C.3   425  PRO425      0.1536
     63  C         10.2850    3.2100   46.1760 C.2   425  PRO425      0.2598
     64  O          9.0910    2.9190   46.0850 O.2   425  PRO425     -0.2715
     65  CB        11.5120    4.4110   44.3670 C.3   425  PRO425      0.0310
     66  CG        12.4670    5.5470   44.3930 C.3   425  PRO425      0.0237
     67  CD        12.9370    5.5970   45.8230 C.3   425  PRO425      0.0939
     68  N         11.2080    2.3890   46.6770 N.am  426  LYS426     -0.1978
     69  CA        10.8130    1.2380   47.4820 C.3   426  LYS426      0.1596
     70  C         11.1840    1.5690   48.9200 C.2   426  LYS426      0.2287
     71  O         12.3780    1.6020   49.2690 O.2   426  LYS426     -0.2864
     72  CB        11.5090   -0.0430   47.0200 C.3   426  LYS426      0.0298
     73  CG        10.9660   -0.5720   45.6930 C.3   426  LYS426      0.0038
     74  CD        11.5310   -1.9540   45.3440 C.3   426  LYS426      0.0206
     75  CE        13.0160   -1.8890   44.9860 C.3   426  LYS426      0.1093
     76  NZ        13.2510   -1.3610   43.5970 N.3   426  LYS426     -0.1314
     77  N         10.6700   -2.7920   51.4690 N.3   431  MET431     -0.1245
     78  CA        11.8060   -3.7090   51.4860 C.3   431  MET431      0.1570
     79  C         11.6130   -4.8530   52.4710 C.2   431  MET431      0.2261
     80  O         12.1090   -5.9680   52.2530 O.2   431  MET431     -0.2867
     81  CB        13.1190   -2.9790   51.7760 C.3   431  MET431      0.0387
     82  CG        13.4980   -1.9210   50.7320 C.3   431  MET431      0.0595
     83  SD        13.4050   -2.4480   48.9980 S.3   431  MET431     -0.1393
     84  CE        14.1820   -4.0680   49.0300 C.3   431  MET431      0.0692
     85  N          9.6270   -7.3740   50.4780 N.3   434  TYR434     -0.1227
     86  CA        10.4410   -8.0800   49.4880 C.3   434  TYR434      0.1736
     87  C         11.4060   -9.0660   50.1500 C.2   434  TYR434      0.2595
     88  O         11.5730  -10.1900   49.6670 O.2   434  TYR434     -0.2718
     89  CB        11.2070   -7.1190   48.5840 C.3   434  TYR434      0.0548
     90  CG        10.3140   -6.3170   47.6690 C.ar  434  TYR434     -0.0200
     91  CD1        9.5510   -6.9440   46.6810 C.ar  434  TYR434     -0.0009
     92  CD2       10.2390   -4.9290   47.7900 C.ar  434  TYR434     -0.0009
     93  CE1        8.7360   -6.2100   45.8480 C.ar  434  TYR434      0.0417
     94  CE2        9.4290   -4.1880   46.9640 C.ar  434  TYR434      0.0417
     95  CZ         8.6800   -4.8340   45.9950 C.ar  434  TYR434      0.1957
     96  OH         7.8600   -4.1110   45.1590 O.3   434  TYR434     -0.2866
     97  N         12.0160   -8.6660   51.2670 N.am  435  LYS435     -0.1980
     98  CA        12.9870   -9.5380   51.9340 C.3   435  LYS435      0.1596
     99  C         12.3490  -10.7350   52.6390 C.2   435  LYS435      0.2287
    100  O         13.0370  -11.7040   52.9700 O.2   435  LYS435     -0.2864
    101  CB        13.8440   -8.7620   52.9290 C.3   435  LYS435      0.0298
    102  CG        14.7950   -7.7810   52.2770 C.3   435  LYS435      0.0038
    103  CD        15.7290   -7.1860   53.3100 C.3   435  LYS435      0.0206
    104  CE        16.3960   -8.2840   54.1270 C.3   435  LYS435      0.1093
    105  NZ        17.4370   -7.7220   55.0400 N.3   435  LYS435     -0.1314
@<TRIPOS>BOND
     1    76    75    1
     2    65    66    1
     3    65    62    1
     4    66    67    1
     5    25    24    1
     6    35    33   ar
     7    35    36   ar
     8    75    74    1
     9    33    31   ar
    10    96    95    1
    11    24    23   ar
    12    24    22   ar
    13    37    36    1
    14    23    21   ar
    15    74    73    1
    16    22    20   ar
    17    62    63    1
    18    62    61    1
    19    36    34   ar
    20    73    72    1
    21    67    61    1
    22    43    44    1
    23    43    42    1
    24    93    95   ar
    25    93    91   ar
    26    21    19   ar
    27    29    28    2
    28    95    94   ar
    29    44    38    1
    30    64    63    2
    31    63    68   am
    32    20    19   ar
    33    19    18    1
    34    31    30    1
    35    31    32   ar
    36    61    53   am
    37    68    69    1
    38    91    90   ar
    39    30    27    1
    40    94    92   ar
    41    18    15    1
    42    34    32   ar
    43    72    69    1
    44    28    27    1
    45    42    39    1
    46    38    39    1
    47    69    70    1
    48    90    92   ar
    49    90    89    1
    50    27    26    1
    51    53    54    2
    52    53    52    1
    53    39    40    1
    54    15    14    1
    55    15    16    1
    56    89    86    1
    57    12    11    2
    58    52    55    1
    59    52    51    1
    60     5     2    1
    61    70    71    2
    62    83    84    1
    63    83    82    1
    64    14     8   am
    65    13    11   am
    66    55    56    1
    67    11    10    1
    68    16    17    2
    69    86    87    1
    70    86    85    1
    71    57    56   ar
    72    57    59   ar
    73    40    41    2
    74    88    87    2
    75    51    47   am
    76     2     3    1
    77     2     1    1
    78    48    47    2
    79    56    58   ar
    80    10     7    1
    81    87    97   am
    82     6     3   am
    83     6     7    1
    84     8     7    1
    85     8     9    2
    86    47    46    1
    87    59    60   ar
    88     3     4    2
    89    50    49    1
    90    82    81    1
    91    97    98    1
    92    58    60   ar
    93    77    78    1
    94    78    81    1
    95    78    79    1
    96    49    46    1
    97    46    45    1
    98    98    99    1
    99    98   101    1
   100    80    79    2
   101   102   101    1
   102   102   103    1
   103    99   100    2
   104   103   104    1
   105   104   105    1
