@<TRIPOS>MOLECULE
tmp/4em4B02.pdb
 160 153 0 0 0
SMALL
GASTEIGER

@<TRIPOS>ATOM
      1  N         -7.3010   12.6240   85.9010 N.3     9  VAL9       -0.1231
      2  CA        -6.2320   12.9470   84.9500 C.3     9  VAL9        0.1692
      3  C         -6.4990   12.3370   83.5610 C.2     9  VAL9        0.2591
      4  O         -7.5620   12.6000   82.9820 O.2     9  VAL9       -0.2718
      5  CB        -4.8310   12.6550   85.5420 C.3     9  VAL9        0.0266
      6  CG1       -3.7400   13.2940   84.6920 C.3     9  VAL9        0.0020
      7  CG2       -4.7420   13.2380   86.9660 C.3     9  VAL9        0.0020
      8  N         -5.5850   11.5280   83.0220 N.am   10  ALA10      -0.1980
      9  CA        -5.6920   11.1130   81.6170 C.3    10  ALA10       0.1597
     10  C         -6.9860   10.3910   81.2550 C.2    10  ALA10       0.2287
     11  O         -7.6600   10.7590   80.2780 O.2    10  ALA10      -0.2864
     12  CB        -4.5050   10.2690   81.2080 C.3    10  ALA10       0.0319
     13  N        -10.5270   12.5900   83.8100 N.3    13  ALA13      -0.1231
     14  CA       -11.0160   13.8950   83.3770 C.3    13  ALA13       0.1694
     15  C        -11.5280   13.8270   81.9370 C.2    13  ALA13       0.2592
     16  O        -12.5570   14.4260   81.5880 O.2    13  ALA13      -0.2718
     17  CB        -9.9280   14.9400   83.5030 C.3    13  ALA13       0.0304
     18  N        -10.8000   13.0910   81.1040 N.am   14  THR14      -0.1953
     19  CA       -11.1850   12.9070   79.7140 C.3    14  THR14       0.1897
     20  C        -12.5380   12.2150   79.6060 C.2    14  THR14       0.2313
     21  O        -13.4300   12.6700   78.8760 O.2    14  THR14      -0.2863
     22  CB       -10.1600   12.0580   79.0030 C.3    14  THR14       0.1794
     23  OG1       -8.8740   12.6790   79.1280 O.3    14  THR14      -0.2208
     24  CG2      -10.5050   11.9130   77.5320 C.3    14  THR14       0.0378
     25  N        -15.3270   14.4650   80.6980 N.3    17  SER17      -0.1202
     26  CA       -15.5730   15.4790   79.6980 C.3    17  SER17       0.2020
     27  C        -16.3640   14.9180   78.5020 C.2    17  SER17       0.2618
     28  O        -17.2710   15.5780   77.9660 O.2    17  SER17      -0.2717
     29  CB       -14.2420   16.0550   79.2300 C.3    17  SER17       0.2103
     30  OG       -14.4480   17.0420   78.2410 O.3    17  SER17      -0.2182
     31  N        -16.0020   13.7150   78.0740 N.am   18  GLN18      -0.1979
     32  CA       -16.6630   13.1070   76.9240 C.3    18  GLN18       0.1601
     33  C        -18.1180   12.7760   77.2250 C.2    18  GLN18       0.2287
     34  O        -18.9770   12.8500   76.3430 O.2    18  GLN18      -0.2864
     35  CB       -15.9400   11.8430   76.4860 C.3    18  GLN18       0.0394
     36  CG       -14.5530   12.0980   75.9360 C.3    18  GLN18       0.0908
     37  CD       -14.5950   12.8930   74.6490 C.2    18  GLN18       0.2608
     38  OE1      -15.1520   12.4410   73.6410 O.2    18  GLN18      -0.2717
     39  NE2      -14.0150   14.0910   74.6750 N.am   18  GLN18      -0.0878
     40  N        -20.1080   15.8940   76.9040 N.3    21  ARG21      -0.1245
     41  CA       -20.4280   16.2280   75.5160 C.3    21  ARG21       0.1563
     42  C        -21.7460   15.6030   75.1140 C.2    21  ARG21       0.2260
     43  O        -22.5220   16.1870   74.3570 O.2    21  ARG21      -0.2867
     44  CB       -19.3900   15.6870   74.5550 C.3    21  ARG21       0.0307
     45  CG       -18.1500   16.5030   74.4740 C.3    21  ARG21       0.0489
     46  CD       -17.2710   15.8860   73.4300 C.3    21  ARG21       0.2205
     47  NE       -17.5500   16.3900   72.0890 N.pl3  21  ARG21      -0.0865
     48  CZ       -16.9790   17.4770   71.5770 C.cat  21  ARG21       0.5346
     49  NH1      -16.1200   18.1740   72.3140 N.pl3  21  ARG21       0.1354
     50  NH2      -17.2670   17.8690   70.3380 N.pl3  21  ARG21       0.1354
     51  N         -6.0640   17.0220   85.7180 N.3    38  SER38      -0.1202
     52  CA        -5.7990   17.3930   84.3340 C.3    38  SER38       0.2020
     53  C         -4.3850   17.9010   84.0730 C.2    38  SER38       0.2619
     54  O         -4.1770   18.7450   83.1900 O.2    38  SER38      -0.2717
     55  CB        -6.8060   18.4620   83.8890 C.3    38  SER38       0.2103
     56  OG        -8.1240   17.9480   83.9340 O.3    38  SER38      -0.2182
     57  N         -3.4070   17.4090   84.8240 N.am   39  PHE39      -0.1961
     58  CA        -2.0420   17.7880   84.4980 C.3    39  PHE39       0.1771
     59  C         -1.5510   16.9700   83.3000 C.2    39  PHE39       0.2619
     60  O         -2.0620   15.8800   83.0100 O.2    39  PHE39      -0.2715
     61  CB        -1.1030   17.6900   85.7030 C.3    39  PHE39       0.0574
     62  CG        -0.9430   16.3050   86.2410 C.ar   39  PHE39      -0.0200
     63  CD1       -0.0110   15.4400   85.6850 C.ar   39  PHE39      -0.0042
     64  CD2       -1.7060   15.8760   87.3210 C.ar   39  PHE39      -0.0042
     65  CE1        0.1490   14.1640   86.1790 C.ar   39  PHE39      -0.0003
     66  CE2       -1.5530   14.5950   87.8230 C.ar   39  PHE39      -0.0003
     67  CZ        -0.6220   13.7400   87.2510 C.ar   39  PHE39      -0.0000
     68  N         -0.5780   17.5190   82.5870 N.am   40  ALA40      -0.1963
     69  CA        -0.0340   16.8490   81.4250 C.3    40  ALA40       0.1728
     70  C          1.0640   15.8900   81.8670 C.2    40  ALA40       0.2616
     71  O          2.2270   16.3040   81.9590 O.2    40  ALA40      -0.2715
     72  CB         0.5290   17.8710   80.4610 C.3    40  ALA40       0.0334
     73  N          0.7200   14.6250   82.1350 N.am   41  ASN41      -0.1958
     74  CA         1.7280   13.6900   82.6540 C.3    41  ASN41       0.1819
     75  C          2.9510   13.6230   81.7590 C.2    41  ASN41       0.2621
     76  O          4.0840   13.5660   82.2440 O.2    41  ASN41      -0.2715
     77  CB         1.2130   12.2520   82.8370 C.3    41  ASN41       0.1195
     78  CG        -0.2790   12.1680   83.0780 C.2    41  ASN41       0.2630
     79  OD1       -1.0750   12.7570   82.3400 O.2    41  ASN41      -0.2716
     80  ND2       -0.6720   11.3990   84.1030 N.am   41  ASN41      -0.0877
     81  N          2.7130   13.6350   80.4510 N.am   42  CYS42      -0.1954
     82  CA         3.7770   13.4450   79.4770 C.3    42  CYS42       0.1843
     83  C          4.7190   14.6360   79.3890 C.2    42  CYS42       0.2625
     84  O          5.8480   14.5240   78.8870 O.2    42  CYS42      -0.2714
     85  CB         3.1780   13.1960   78.1000 C.3    42  CYS42       0.0997
     86  SG         2.4060   11.5950   77.9440 S.3    42  CYS42      -0.0797
     87  N          4.2420   15.7780   79.8640 N.am   43  ALA43      -0.1977
     88  CA         5.0020   17.0160   79.7760 C.3    43  ALA43       0.1597
     89  C          5.9870   17.1680   80.9230 C.2    43  ALA43       0.2287
     90  O          6.8890   18.0070   80.8600 O.2    43  ALA43      -0.2864
     91  CB         4.0630   18.2060   79.7740 C.3    43  ALA43       0.0319
     92  N         -4.0370   21.7290   82.4840 N.3    60  ALA60      -0.1231
     93  CA        -5.1280   22.2030   81.6290 C.3    60  ALA60       0.1694
     94  C         -6.2570   22.8910   82.3920 C.2    60  ALA60       0.2592
     95  O         -6.8930   23.8160   81.8790 O.2    60  ALA60      -0.2718
     96  CB        -5.6880   21.0630   80.7920 C.3    60  ALA60       0.0304
     97  N         -6.5280   22.4340   83.6080 N.am   61  TYR61      -0.1976
     98  CA        -7.6600   22.9730   84.3450 C.3    61  TYR61       0.1639
     99  C         -7.4210   22.9670   85.8380 C.2    61  TYR61       0.2290
    100  O         -6.6130   22.1800   86.3490 O.2    61  TYR61      -0.2864
    101  CB        -8.8850   22.1010   84.1290 C.3    61  TYR61       0.0560
    102  CG        -9.5750   22.2320   82.8110 C.ar   61  TYR61      -0.0198
    103  CD1      -10.5410   23.2130   82.6160 C.ar   61  TYR61      -0.0009
    104  CD2       -9.3120   21.3360   81.7780 C.ar   61  TYR61      -0.0009
    105  CE1      -11.2010   23.3260   81.4210 C.ar   61  TYR61       0.0417
    106  CE2       -9.9730   21.4350   80.5700 C.ar   61  TYR61       0.0417
    107  CZ       -10.9170   22.4390   80.4010 C.ar   61  TYR61       0.1957
    108  OH       -11.5910   22.5720   79.2100 O.3    61  TYR61      -0.2866
    109  N        -13.0000   23.7290   85.6280 N.3    66  PHE66      -0.1241
    110  CA       -13.6420   22.5700   85.0350 C.3    66  PHE66       0.1605
    111  C        -15.1290   22.6820   85.2870 C.2    66  PHE66       0.2264
    112  O        -15.9560   22.2960   84.4460 O.2    66  PHE66      -0.2867
    113  CB       -13.1300   21.3030   85.6980 C.3    66  PHE66       0.0534
    114  CG       -13.1610   20.1030   84.8160 C.ar   66  PHE66      -0.0203
    115  CD1      -12.3700   20.0450   83.6730 C.ar   66  PHE66      -0.0042
    116  CD2      -13.9450   19.0110   85.1510 C.ar   66  PHE66      -0.0042
    117  CE1      -12.3760   18.9190   82.8670 C.ar   66  PHE66      -0.0003
    118  CE2      -13.9560   17.8810   84.3570 C.ar   66  PHE66      -0.0003
    119  CZ       -13.1710   17.8320   83.2110 C.ar   66  PHE66      -0.0000
    120  N        -16.7630   25.4870   83.0960 N.3    69  ARG69      -0.1231
    121  CA       -16.9210   25.1650   81.6880 C.3    69  ARG69       0.1694
    122  C        -17.8130   23.9690   81.4580 C.2    69  ARG69       0.2591
    123  O        -18.5840   23.9410   80.4980 O.2    69  ARG69      -0.2718
    124  CB       -15.5800   24.9050   81.0250 C.3    69  ARG69       0.0321
    125  CG       -14.8480   26.1650   80.6780 C.3    69  ARG69       0.0489
    126  CD       -13.9990   25.9530   79.4500 C.3    69  ARG69       0.2205
    127  NE       -14.5970   26.6010   78.2890 N.pl3  69  ARG69      -0.0865
    128  CZ       -14.4750   26.1680   77.0390 C.cat  69  ARG69       0.5346
    129  NH1      -13.7760   25.0710   76.7750 N.pl3  69  ARG69       0.1354
    130  NH2      -15.0550   26.8360   76.0510 N.pl3  69  ARG69       0.1354
    131  N        -17.7070   22.9710   82.3270 N.am   70  LYS70      -0.1980
    132  CA       -18.3130   21.6830   82.0140 C.3    70  LYS70       0.1596
    133  C        -19.3590   21.1970   83.0070 C.2    70  LYS70       0.2287
    134  O        -19.9600   20.1370   82.7980 O.2    70  LYS70      -0.2864
    135  CB       -17.2280   20.6260   81.8570 C.3    70  LYS70       0.0298
    136  CG       -16.2550   20.9250   80.7450 C.3    70  LYS70       0.0038
    137  CD       -15.1700   19.8620   80.7270 C.3    70  LYS70       0.0206
    138  CE       -14.1130   20.1660   79.6760 C.3    70  LYS70       0.1093
    139  NZ       -14.6500   19.9210   78.2940 N.3    70  LYS70      -0.1314
    140  N         -0.9600    6.8310   77.0560 N.3   294  ALA294     -0.1245
    141  CA        -1.9860    7.8530   76.9330 C.3   294  ALA294      0.1562
    142  C         -3.0490    7.5500   75.8940 C.2   294  ALA294      0.2260
    143  O         -4.2160    7.8910   76.0940 O.2   294  ALA294     -0.2867
    144  CB        -1.3550    9.1810   76.6350 C.3   294  ALA294      0.0290
    145  N         -7.1730    7.6580   76.6360 N.3   298  HIS298     -0.1241
    146  CA        -8.1150    8.5100   75.9200 C.3   298  HIS298      0.1621
    147  C         -9.1260    7.7280   75.1050 C.2   298  HIS298      0.2264
    148  O        -10.2900    8.1150   75.0310 O.2   298  HIS298     -0.2867
    149  CB        -7.3760    9.5080   75.0450 C.3   298  HIS298      0.0745
    150  CG        -6.6430   10.5390   75.8280 C.ar  298  HIS298      0.0817
    151  ND1       -6.9220   11.8820   75.7530 N.ar  298  HIS298     -0.2268
    152  CD2       -5.6540   10.4100   76.7610 C.ar  298  HIS298      0.1154
    153  CE1       -6.1260   12.5450   76.5730 C.ar  298  HIS298      0.1986
    154  NE2       -5.3590   11.6740   77.1960 N.ar  298  HIS298     -0.2212
    155  N        -13.2850    7.6200   75.7320 N.3   302  SER302     -0.1217
    156  CA       -14.2960    7.8300   74.6940 C.3   302  SER302      0.1889
    157  C        -15.3010    6.6810   74.5720 C.2   302  SER302      0.2288
    158  O        -16.5070    6.9060   74.4110 O.2   302  SER302     -0.2866
    159  CB       -13.6310    8.0750   73.3400 C.3   302  SER302      0.2089
    160  OG       -12.9420    9.3090   73.3630 O.3   302  SER302     -0.2183
@<TRIPOS>BOND
     1    50    48    1
     2    48    47    2
     3    48    49    1
     4    47    46    1
     5   159   160    1
     6   159   156    1
     7    46    45    1
     8    38    37    2
     9    43    42    2
    10   158   157    2
    11    45    44    1
    12    44    41    1
    13   157   156    1
    14    37    39   am
    15    37    36    1
    16   156   155    1
    17   148   147    2
    18   149   150    1
    19   149   146    1
    20   147   146    1
    21    42    41    1
    22    41    40    1
    23   151   150   ar
    24   151   153   ar
    25   150   152   ar
    26   142   143    2
    27   142   141    1
    28   146   145    1
    29    36    35    1
    30   130   128    1
    31    34    33    2
    32    35    32    1
    33   153   154   ar
    34   144   141    1
    35   152   154   ar
    36   129   128    1
    37    32    33    1
    38    32    31    1
    39   141   140    1
    40   128   127    2
    41    24    22    1
    42    86    85    1
    43    28    27    2
    44    31    27   am
    45    85    82    1
    46    30    29    1
    47   127   126    1
    48   139   138    1
    49    27    26    1
    50    21    20    2
    51    84    83    2
    52    22    23    1
    53    22    19    1
    54   108   107    1
    55    29    26    1
    56    83    82    1
    57    83    87   am
    58   126   125    1
    59    82    81    1
    60    20    19    1
    61   138   137    1
    62    26    25    1
    63    19    18    1
    64    91    88    1
    65    88    87    1
    66    88    89    1
    67    11    10    2
    68   107   106   ar
    69   107   105   ar
    70    81    75   am
    71    72    69    1
    72   123   122    2
    73   106   104   ar
    74   125   124    1
    75   137   136    1
    76   136   135    1
    77    96    93    1
    78    90    89    2
    79   124   121    1
    80    18    15   am
    81    12     9    1
    82    10     9    1
    83   105   103   ar
    84    69    70    1
    85    69    68    1
    86   122   121    1
    87   122   131   am
    88    16    15    2
    89     9     8    1
    90    93    94    1
    91    93    92    1
    92   121   120    1
    93    75    76    2
    94    75    74    1
    95   104   102   ar
    96   135   132    1
    97    70    71    2
    98    70    73   am
    99    95    94    2
   100    15    14    1
   101   132   131    1
   102   132   133    1
   103    73    74    1
   104    79    78    2
   105    94    97   am
   106    68    59   am
   107   103   102   ar
   108    74    77    1
   109   134   133    2
   110   102   101    1
   111    77    78    1
   112   117   119   ar
   113   117   115   ar
   114     4     3    2
   115    60    59    2
   116     8     3   am
   117    78    80   am
   118    54    53    2
   119   119   118   ar
   120    59    58    1
   121    14    17    1
   122    14    13    1
   123     3     2    1
   124    97    98    1
   125   115   114   ar
   126    55    56    1
   127    55    52    1
   128    53    52    1
   129    53    57   am
   130   101    98    1
   131    52    51    1
   132    98    99    1
   133   118   116   ar
   134   112   111    2
   135    58    57    1
   136    58    61    1
   137     6     5    1
   138   114   116   ar
   139   114   113    1
   140     2     5    1
   141     2     1    1
   142   110   111    1
   143   110   109    1
   144   110   113    1
   145     5     7    1
   146    63    65   ar
   147    63    62   ar
   148    61    62    1
   149    99   100    2
   150    65    67   ar
   151    62    64   ar
   152    67    66   ar
   153    64    66   ar
