@<TRIPOS>MOLECULE
tmp/4em7A00.pdb
 99 91 0 0 0
SMALL
GASTEIGER

@<TRIPOS>ATOM
      1  N         22.3500   28.6930   -2.4360 N.3    32  ILE32      -0.1245
      2  CA        21.9570   29.8030   -1.5640 C.3    32  ILE32       0.1561
      3  C         20.6960   30.4850   -2.1040 C.2    32  ILE32       0.2260
      4  O         19.7670   30.7960   -1.3480 O.2    32  ILE32      -0.2867
      5  CB        23.0950   30.8310   -1.3880 C.3    32  ILE32       0.0252
      6  CG1       24.3430   30.1640   -0.7790 C.3    32  ILE32       0.0019
      7  CG2       22.6440   31.9810   -0.4950 C.3    32  ILE32       0.0019
      8  CD1       24.1040   29.4810    0.5500 C.3    32  ILE32       0.0001
      9  N         17.4700   28.2880   -1.4870 N.3    35  ASN35      -0.1225
     10  CA        16.9240   28.4000   -0.1300 C.3    35  ASN35       0.1785
     11  C         15.9940   29.6170    0.0120 C.2    35  ASN35       0.2597
     12  O         14.9450   29.5300    0.6460 O.2    35  ASN35      -0.2718
     13  CB        18.0460   28.5010    0.9100 C.3    35  ASN35       0.1169
     14  CG        18.8380   27.2100    1.0600 C.2    35  ASN35       0.2627
     15  OD1       18.4010   26.1390    0.6440 O.2    35  ASN35      -0.2716
     16  ND2       20.0160   27.3140    1.6610 N.am   35  ASN35      -0.0877
     17  N         16.3910   30.7430   -0.5770 N.am   36  ALA36      -0.1979
     18  CA        15.5600   31.9500   -0.5850 C.3    36  ALA36       0.1597
     19  C         14.3050   31.7370   -1.4370 C.2    36  ALA36       0.2287
     20  O         13.2070   32.1500   -1.0610 O.2    36  ALA36      -0.2864
     21  CB        16.3580   33.1350   -1.1090 C.3    36  ALA36       0.0319
     22  N         11.6960   29.6020    0.4530 N.3    39  GLU39      -0.1245
     23  CA        10.9600   30.4830    1.3700 C.3    39  GLU39       0.1567
     24  C          9.8510   31.2500    0.6560 C.2    39  GLU39       0.2260
     25  O          8.7170   31.2940    1.1350 O.2    39  GLU39      -0.2867
     26  CB        11.8890   31.5140    2.0290 C.3    39  GLU39       0.0388
     27  CG        12.4010   31.1750    3.4140 C.3    39  GLU39       0.1160
     28  CD        11.3030   30.9000    4.4220 C.2    39  GLU39       0.3649
     29  OE1       10.9230   29.7260    4.5490 O.co2  39  GLU39      -0.2457
     30  OE2       10.8500   31.8360    5.1210 O.co2  39  GLU39      -0.2457
     31  N         17.1130   37.8620    1.2910 N.3    62  ASP62      -0.1239
     32  CA        15.6880   37.6130    1.1490 C.3    62  ASP62       0.1674
     33  C         14.9310   38.2590    2.3010 C.2    62  ASP62       0.2266
     34  O         15.5330   38.7260    3.2770 O.2    62  ASP62      -0.2867
     35  CB        15.3870   36.1110    1.0730 C.3    62  ASP62       0.1410
     36  CG        15.6160   35.3810    2.3950 C.2    62  ASP62       0.3668
     37  OD1       15.0320   35.7780    3.4240 O.co2  62  ASP62      -0.2456
     38  OD2       16.3690   34.3890    2.3980 O.co2  62  ASP62      -0.2456
     39  N         11.1460   34.4930    6.5040 N.3    65  ARG65      -0.1231
     40  CA        10.9230   34.5030    7.9530 C.3    65  ARG65       0.1694
     41  C         12.1840   34.7960    8.7740 C.2    65  ARG65       0.2593
     42  O         12.0950   35.2100    9.9360 O.2    65  ARG65      -0.2718
     43  CB        10.3340   33.1640    8.3940 C.3    65  ARG65       0.0321
     44  CG         8.8880   32.9760    7.9710 C.3    65  ARG65       0.0489
     45  CD         8.4180   31.5560    8.2250 C.3    65  ARG65       0.2205
     46  NE         9.0060   30.6110    7.2770 N.pl3  65  ARG65      -0.0865
     47  CZ         8.7310   29.3110    7.2360 C.cat  65  ARG65       0.5346
     48  NH1        7.8740   28.7710    8.1000 N.pl3  65  ARG65       0.1354
     49  NH2        9.3170   28.5400    6.3290 N.pl3  65  ARG65       0.1354
     50  N         13.3500   34.5990    8.1670 N.am   66  GLY66      -0.1942
     51  CA        14.6080   34.6580    8.8950 C.3    66  GLY66       0.2014
     52  C         14.8850   33.2590    9.3990 C.2    66  GLY66       0.2639
     53  O         14.0060   32.6230    9.9870 O.2    66  GLY66      -0.2714
     54  N         16.0940   32.7670    9.1440 N.am   67  MET67      -0.1963
     55  CA        16.5210   31.4650    9.6530 C.3    67  MET67       0.1722
     56  C         16.3960   31.4280   11.1770 C.2    67  MET67       0.2458
     57  O         16.3870   32.4800   11.8200 O.2    67  MET67      -0.2730
     58  CB        17.9680   31.1860    9.2460 C.3    67  MET67       0.0427
     59  CG        18.1730   31.0150    7.7510 C.3    67  MET67       0.0599
     60  SD        19.8610   30.5270    7.3580 S.3    67  MET67      -0.1393
     61  CE        19.8690   28.8480    7.9890 C.3    67  MET67       0.0692
     62  N         16.3060   30.2170   11.7640 N.am   68  PRO68      -0.2727
     63  CA        16.1250   30.1130   13.2160 C.3    68  PRO68       0.1402
     64  C         17.2370   30.8080   14.0020 C.2    68  PRO68       0.2269
     65  O         18.4160   30.6250   13.6980 O.2    68  PRO68      -0.2865
     66  CB        16.1590   28.5990   13.4780 C.3    68  PRO68       0.0296
     67  CG        15.8590   27.9630   12.1640 C.3    68  PRO68       0.0237
     68  CD        16.4140   28.8900   11.1260 C.3    68  PRO68       0.0939
     69  N         23.5150   24.6030    2.4990 N.3    91  SER91      -0.1217
     70  CA        24.1750   25.6600    3.2730 C.3    91  SER91       0.1889
     71  C         25.5590   25.2570    3.7870 C.2    91  SER91       0.2288
     72  O         26.5270   26.0060    3.6510 O.2    91  SER91      -0.2866
     73  CB        23.2960   26.0670    4.4610 C.3    91  SER91       0.2089
     74  OG        22.0710   26.6240    4.0100 O.3    91  SER91      -0.2183
     75  N         14.8110   39.4150   12.5750 N.3   107  ARG107     -0.1245
     76  CA        13.4530   39.0890   13.0070 C.3   107  ARG107      0.1563
     77  C         13.1940   39.5040   14.4470 C.2   107  ARG107      0.2260
     78  O         14.1270   39.6240   15.2530 O.2   107  ARG107     -0.2867
     79  CB        13.1450   37.5990   12.8390 C.3   107  ARG107      0.0307
     80  CG        14.2110   36.6600   13.3750 C.3   107  ARG107      0.0489
     81  CD        13.8560   35.2240   13.0360 C.3   107  ARG107      0.2205
     82  NE        12.6530   34.7850   13.7430 N.pl3 107  ARG107     -0.0865
     83  CZ        12.0060   33.6460   13.5070 C.cat 107  ARG107      0.5346
     84  NH1       12.4360   32.8020   12.5700 N.pl3 107  ARG107      0.1354
     85  NH2       10.9180   33.3470   14.2160 N.pl3 107  ARG107      0.1354
     86  N         16.8080   36.9120    5.7180 N.3   139  THR139     -0.1218
     87  CA        18.1320   36.3160    5.8470 C.3   139  THR139      0.1862
     88  C         19.0230   36.8640    4.7340 C.2   139  THR139      0.2287
     89  O         18.5830   36.9900    3.5820 O.2   139  THR139     -0.2866
     90  CB        18.0710   34.7750    5.7400 C.3   139  THR139      0.1770
     91  OG1       17.2690   34.2510    6.8050 O.3   139  THR139     -0.2211
     92  CG2       19.4640   34.1510    5.8160 C.3   139  THR139      0.0375
     93  N         22.9330   36.0730    3.2140 N.3   141  VAL141     -0.1245
     94  CA        24.0950   35.1990    3.2350 C.3   141  VAL141      0.1561
     95  C         25.1030   35.7600    2.2460 C.2   141  VAL141      0.2260
     96  O         24.7520   36.0450    1.1010 O.2   141  VAL141     -0.2867
     97  CB        23.7260   33.7440    2.8630 C.3   141  VAL141      0.0252
     98  CG1       24.9660   32.8550    2.8170 C.3   141  VAL141      0.0019
     99  CG2       22.7110   33.1810    3.8520 C.3   141  VAL141      0.0019
@<TRIPOS>BOND
     1     1     2    1
     2     3     2    1
     3     3     4    2
     4     2     5    1
     5     9    10    1
     6    19    20    2
     7    19    18    1
     8     5     6    1
     9     5     7    1
    10    21    18    1
    11     6     8    1
    12    18    17    1
    13    17    11   am
    14    10    11    1
    15    10    13    1
    16    11    12    2
    17    22    23    1
    18    15    14    2
    19    24    25    2
    20    24    23    1
    21    13    14    1
    22    14    16   am
    23    35    32    1
    24    35    36    1
    25    96    95    2
    26    32    31    1
    27    32    33    1
    28    23    26    1
    29    26    27    1
    30    95    94    1
    31    33    34    2
    32    36    38   ar
    33    36    37   ar
    34    69    70    1
    35    98    97    1
    36    97    94    1
    37    97    99    1
    38    93    94    1
    39    70    71    1
    40    70    73    1
    41    27    28    1
    42    89    88    2
    43    72    71    2
    44    74    73    1
    45    28    29   ar
    46    28    30   ar
    47    88    87    1
    48    86    87    1
    49    90    92    1
    50    90    87    1
    51    90    91    1
    52    49    47    1
    53    39    40    1
    54    47    46    2
    55    47    48    1
    56    46    45    1
    57    60    59    1
    58    60    61    1
    59    59    58    1
    60    40    43    1
    61    40    41    1
    62    44    45    1
    63    44    43    1
    64    50    41   am
    65    50    51    1
    66    41    42    2
    67    51    52    1
    68    54    52   am
    69    54    55    1
    70    58    55    1
    71    52    53    2
    72    55    56    1
    73    68    62    1
    74    68    67    1
    75    56    62   am
    76    56    57    2
    77    62    63    1
    78    67    66    1
    79    84    83    1
    80    75    76    1
    81    79    76    1
    82    79    80    1
    83    76    77    1
    84    81    80    1
    85    81    82    1
    86    63    66    1
    87    63    64    1
    88    83    82    2
    89    83    85    1
    90    65    64    2
    91    77    78    2
