@<TRIPOS>MOLECULE
tmp/4em9B01.pdb
 186 176 0 0 0
SMALL
GASTEIGER

@<TRIPOS>ATOM
      1  N         36.8730  -21.0800   53.6960 N.3    38  ILE38      -0.1245
      2  CA        37.7910  -19.9520   53.6400 C.3    38  ILE38       0.1561
      3  C         36.9770  -18.6680   53.7070 C.2    38  ILE38       0.2260
      4  O         36.2860  -18.3070   52.7540 O.2    38  ILE38      -0.2867
      5  CB        38.6400  -19.9660   52.3560 C.3    38  ILE38       0.0252
      6  CG1       39.4530  -21.2600   52.2710 C.3    38  ILE38       0.0019
      7  CG2       39.5550  -18.7520   52.3120 C.3    38  ILE38       0.0019
      8  CD1       40.2660  -21.3940   50.9990 C.3    38  ILE38       0.0001
      9  N         42.5110  -18.8680   54.8620 N.3    44  LEU44      -0.1245
     10  CA        43.0760  -19.1550   53.5460 C.3    44  LEU44       0.1561
     11  C         44.4080  -19.8850   53.6720 C.2    44  LEU44       0.2260
     12  O         44.6200  -20.9230   53.0440 O.2    44  LEU44      -0.2867
     13  CB        43.2700  -17.8670   52.7440 C.3    44  LEU44       0.0270
     14  CG        44.0320  -18.0300   51.4260 C.3    44  LEU44       0.0019
     15  CD1       43.2450  -18.8850   50.4410 C.3    44  LEU44       0.0001
     16  CD2       44.3580  -16.6770   50.8170 C.3    44  LEU44       0.0001
     17  N         45.2780  -23.9200   52.6310 N.3    48  GLU48      -0.1245
     18  CA        46.3130  -24.4480   51.7530 C.3    48  GLU48       0.1567
     19  C         47.1680  -25.4820   52.4750 C.2    48  GLU48       0.2260
     20  O         48.3040  -25.7450   52.0820 O.2    48  GLU48      -0.2867
     21  CB        47.1900  -23.3110   51.2300 C.3    48  GLU48       0.0388
     22  CG        46.4020  -22.1660   50.6170 C.3    48  GLU48       0.1160
     23  CD        47.2850  -21.0160   50.1780 C.2    48  GLU48       0.3649
     24  OE1       46.8830  -20.2840   49.2490 O.co2  48  GLU48      -0.2457
     25  OE2       48.3790  -20.8450   50.7550 O.co2  48  GLU48      -0.2457
     26  N         46.0140  -27.9940   47.2430 N.3    50  PHE50      -0.1241
     27  CA        45.8340  -27.3810   45.9310 C.3    50  PHE50       0.1605
     28  C         46.9630  -27.7610   44.9780 C.2    50  PHE50       0.2264
     29  O         48.1000  -27.9780   45.3970 O.2    50  PHE50      -0.2867
     30  CB        45.7310  -25.8600   46.0590 C.3    50  PHE50       0.0534
     31  CG        44.6000  -25.4040   46.9340 C.ar   50  PHE50      -0.0203
     32  CD1       44.7600  -25.3150   48.3060 C.ar   50  PHE50      -0.0042
     33  CD2       43.3730  -25.0710   46.3850 C.ar   50  PHE50      -0.0042
     34  CE1       43.7190  -24.8970   49.1140 C.ar   50  PHE50      -0.0003
     35  CE2       42.3290  -24.6520   47.1880 C.ar   50  PHE50      -0.0003
     36  CZ        42.5030  -24.5660   48.5540 C.ar   50  PHE50      -0.0000
     37  N         47.8000  -25.9100   42.2060 N.3    52  HIS52      -0.1241
     38  CA        48.3490  -24.7330   41.5380 C.3    52  HIS52       0.1621
     39  C         49.4350  -24.0430   42.3660 C.2    52  HIS52       0.2264
     40  O         49.7510  -22.8740   42.1380 O.2    52  HIS52      -0.2867
     41  CB        47.2320  -23.7450   41.1890 C.3    52  HIS52       0.0745
     42  CG        46.5620  -23.1440   42.3830 C.ar   52  HIS52       0.0817
     43  ND1       45.5900  -23.8060   43.1060 N.ar   52  HIS52      -0.2268
     44  CD2       46.7190  -21.9410   42.9830 C.ar   52  HIS52       0.1154
     45  CE1       45.1830  -23.0380   44.0980 C.ar   52  HIS52       0.1986
     46  NE2       45.8520  -21.8990   44.0470 N.ar   52  HIS52      -0.2212
     47  N         47.2100  -15.1410   43.7780 N.3    58  ARG58      -0.1231
     48  CA        47.2090  -16.5930   43.9440 C.3    58  ARG58       0.1694
     49  C         45.8160  -17.1840   43.7480 C.2    58  ARG58       0.2591
     50  O         45.6570  -18.2140   43.0920 O.2    58  ARG58      -0.2718
     51  CB        47.7730  -16.9810   45.3160 C.3    58  ARG58       0.0321
     52  CG        49.2840  -17.1680   45.3230 C.3    58  ARG58       0.0489
     53  CD        49.9110  -16.8090   46.6650 C.3    58  ARG58       0.2205
     54  NE        49.4780  -17.6800   47.7530 N.pl3  58  ARG58      -0.0865
     55  CZ        48.6890  -17.2940   48.7510 C.cat  58  ARG58       0.5346
     56  NH1       48.2440  -16.0470   48.8020 N.pl3  58  ARG58       0.1354
     57  NH2       48.3490  -18.1510   49.7020 N.pl3  58  ARG58       0.1354
     58  N         44.8120  -16.5260   44.3180 N.am   59  ILE59      -0.1980
     59  CA        43.4290  -16.9670   44.1790 C.3    59  ILE59       0.1595
     60  C         42.9900  -16.9310   42.7180 C.2    59  ILE59       0.2287
     61  O         42.3290  -17.8500   42.2380 O.2    59  ILE59      -0.2864
     62  CB        42.4730  -16.1050   45.0240 C.3    59  ILE59       0.0276
     63  CG1       42.7720  -16.2910   46.5120 C.3    59  ILE59       0.0022
     64  CG2       41.0250  -16.4540   44.7150 C.3    59  ILE59       0.0022
     65  CD1       41.8920  -15.4660   47.4260 C.3    59  ILE59       0.0001
     66  N         44.4180  -19.7490   40.8210 N.3    62  GLY62      -0.1210
     67  CA        43.6570  -20.9440   41.1340 C.3    62  GLY62       0.1956
     68  C         42.4150  -21.0160   40.2670 C.2    62  GLY62       0.2612
     69  O         42.0660  -22.0750   39.7460 O.2    62  GLY62      -0.2717
     70  N         41.7510  -19.8960   40.0680 N.am   63  CYS63      -0.1970
     71  CA        40.5750  -19.9020   39.2280 C.3    63  CYS63       0.1712
     72  C         40.9700  -20.2900   37.8200 C.2    63  CYS63       0.2296
     73  O         40.2590  -21.0210   37.1870 O.2    63  CYS63      -0.2864
     74  CB        39.8170  -18.5810   39.2480 C.3    63  CYS63       0.0983
     75  SG        38.1620  -18.6590   38.4940 S.3    63  CYS63      -0.0798
     76  N         43.5550  -22.2140   36.8440 N.3    65  PHE65      -0.1227
     77  CA        43.8650  -23.6390   36.8510 C.3    65  PHE65       0.1736
     78  C         42.6010  -24.4740   36.6780 C.2    65  PHE65       0.2595
     79  O         42.5430  -25.3620   35.8270 O.2    65  PHE65      -0.2718
     80  CB        44.5730  -24.0290   38.1520 C.3    65  PHE65       0.0547
     81  CG        45.0020  -25.4710   38.2020 C.ar   65  PHE65      -0.0202
     82  CD1       44.0940  -26.4680   38.5260 C.ar   65  PHE65      -0.0042
     83  CD2       46.3130  -25.8300   37.9260 C.ar   65  PHE65      -0.0042
     84  CE1       44.4850  -27.7950   38.5710 C.ar   65  PHE65      -0.0003
     85  CE2       46.7110  -27.1560   37.9710 C.ar   65  PHE65      -0.0003
     86  CZ        45.7960  -28.1390   38.2940 C.ar   65  PHE65      -0.0000
     87  N         41.5910  -24.1830   37.4910 N.am   66  ARG66      -0.1980
     88  CA        40.3370  -24.9240   37.4580 C.3    66  ARG66       0.1597
     89  C         39.6040  -24.7470   36.1290 C.2    66  ARG66       0.2287
     90  O         39.0520  -25.7040   35.5850 O.2    66  ARG66      -0.2864
     91  CB        39.4420  -24.5070   38.6280 C.3    66  ARG66       0.0334
     92  CG        38.0090  -25.0030   38.5320 C.3    66  ARG66       0.0492
     93  CD        37.9410  -26.5150   38.3760 C.3    66  ARG66       0.2205
     94  NE        36.6390  -26.9450   37.8710 N.pl3  66  ARG66      -0.0865
     95  CZ        36.4140  -28.1110   37.2720 C.cat  66  ARG66       0.5346
     96  NH1       37.4070  -28.9730   37.0980 N.pl3  66  ARG66       0.1354
     97  NH2       35.1970  -28.4140   36.8420 N.pl3  66  ARG66       0.1354
     98  N         29.3510  -23.1890   37.1180 N.3   108  LEU108     -0.1245
     99  CA        29.8320  -22.5560   38.3430 C.3   108  LEU108      0.1561
    100  C         28.6580  -22.1900   39.2520 C.2   108  LEU108      0.2260
    101  O         28.7760  -22.2000   40.4760 O.2   108  LEU108     -0.2867
    102  CB        30.6560  -21.3080   38.0170 C.3   108  LEU108      0.0270
    103  CG        31.2370  -20.5300   39.2000 C.3   108  LEU108      0.0019
    104  CD1       32.2250  -21.3930   39.9820 C.3   108  LEU108      0.0001
    105  CD2       31.8970  -19.2420   38.7260 C.3   108  LEU108      0.0001
    106  N         27.7920  -24.6280   41.8230 N.3   111  LEU111     -0.1245
    107  CA        28.6690  -24.7010   42.9880 C.3   111  LEU111      0.1561
    108  C         28.4950  -23.5000   43.9140 C.2   111  LEU111      0.2260
    109  O         29.2250  -23.3520   44.8960 O.2   111  LEU111     -0.2867
    110  CB        30.1310  -24.8070   42.5500 C.3   111  LEU111      0.0270
    111  CG        30.4640  -25.8330   41.4640 C.3   111  LEU111      0.0019
    112  CD1       31.9700  -25.9110   41.2510 C.3   111  LEU111      0.0001
    113  CD2       29.9000  -27.2000   41.8080 C.3   111  LEU111      0.0001
    114  N         31.1060  -20.1090   47.2060 N.3   117  VAL117     -0.1231
    115  CA        31.2820  -21.0470   46.1040 C.3   117  VAL117      0.1692
    116  C         32.1620  -22.2340   46.4960 C.2   117  VAL117      0.2592
    117  O         33.1920  -22.0690   47.1480 O.2   117  VAL117     -0.2718
    118  CB        31.8950  -20.3450   44.8720 C.3   117  VAL117      0.0266
    119  CG1       33.2380  -19.7240   45.2280 C.3   117  VAL117      0.0020
    120  CG2       32.0410  -21.3210   43.7120 C.3   117  VAL117      0.0020
    121  N         31.7400  -23.4310   46.1000 N.am  118  LEU118     -0.1966
    122  CA        32.5370  -24.6380   46.2970 C.3   118  LEU118      0.1728
    123  C         33.8230  -24.5660   45.4830 C.2   118  LEU118      0.2616
    124  O         33.8070  -24.1690   44.3180 O.2   118  LEU118     -0.2715
    125  CB        31.7400  -25.8720   45.8720 C.3   118  LEU118      0.0311
    126  CG        30.9920  -26.6640   46.9430 C.3   118  LEU118      0.0022
    127  CD1       30.5650  -25.7700   48.0890 C.3   118  LEU118      0.0001
    128  CD2       29.8030  -27.3920   46.3360 C.3   118  LEU118      0.0001
    129  N         34.9360  -24.9520   46.0970 N.am  119  ILE119     -0.1963
    130  CA        36.2130  -24.9950   45.3920 C.3   119  ILE119      0.1727
    131  C         36.9120  -26.3320   45.6100 C.2   119  ILE119      0.2617
    132  O         36.5210  -27.1150   46.4780 O.2   119  ILE119     -0.2715
    133  CB        37.1610  -23.8650   45.8450 C.3   119  ILE119      0.0290
    134  CG1       37.6360  -24.1110   47.2800 C.3   119  ILE119      0.0022
    135  CG2       36.4900  -22.5050   45.6980 C.3   119  ILE119      0.0023
    136  CD1       38.7820  -23.2180   47.7110 C.3   119  ILE119      0.0001
    137  N         37.9470  -26.5810   44.8120 N.am  120  SER120     -0.1936
    138  CA        38.7760  -27.7720   44.9580 C.3   120  SER120      0.2055
    139  C         37.9440  -29.0440   45.0780 C.2   120  SER120      0.2642
    140  O         38.0330  -29.7600   46.0750 O.2   120  SER120     -0.2714
    141  CB        39.6920  -27.6350   46.1740 C.3   120  SER120      0.2130
    142  OG        40.6350  -28.6910   46.2150 O.3   120  SER120     -0.2179
    143  N         37.1300  -29.3100   44.0620 N.am  121  GLU121     -0.1976
    144  CA        36.3030  -30.5110   44.0310 C.3   121  GLU121      0.1602
    145  C         35.3670  -30.6000   45.2320 C.2   121  GLU121      0.2287
    146  O         35.0370  -31.6930   45.6910 O.2   121  GLU121     -0.2864
    147  CB        37.1790  -31.7640   43.9530 C.3   121  GLU121      0.0415
    148  CG        37.7880  -32.0190   42.5900 C.3   121  GLU121      0.1163
    149  CD        36.8180  -32.2840   41.4750 C.2   121  GLU121      0.3649
    150  OE1       35.6170  -32.5150   41.8390 O.co2 121  GLU121     -0.2457
    151  OE2       37.2110  -32.3060   40.3060 O.co2 121  GLU121     -0.2457
    152  N         34.7100  -21.0570   49.5340 N.3   126  MET126     -0.1245
    153  CA        35.2180  -19.7010   49.6840 C.3   126  MET126      0.1570
    154  C         34.0560  -18.7250   49.7440 C.2   126  MET126      0.2261
    155  O         33.2650  -18.6340   48.8070 O.2   126  MET126     -0.2867
    156  CB        36.1610  -19.3410   48.5340 C.3   126  MET126      0.0387
    157  CG        36.9530  -18.0620   48.7620 C.3   126  MET126      0.0595
    158  SD        38.2640  -17.8310   47.5470 S.3   126  MET126     -0.1393
    159  CE        39.3660  -19.1770   47.9740 C.3   126  MET126      0.0692
    160  N         36.0190  -13.1500   48.9600 N.3   131  LEU131     -0.1245
    161  CA        36.3510  -12.8320   47.5770 C.3   131  LEU131      0.1561
    162  C         36.1050  -11.3550   47.2950 C.2   131  LEU131      0.2260
    163  O         36.9070  -10.6920   46.6370 O.2   131  LEU131     -0.2867
    164  CB        35.5270  -13.6920   46.6180 C.3   131  LEU131      0.0270
    165  CG        35.9730  -15.1480   46.4800 C.3   131  LEU131      0.0019
    166  CD1       34.8480  -16.0180   45.9260 C.3   131  LEU131      0.0001
    167  CD2       37.2200  -15.2360   45.6080 C.3   131  LEU131      0.0001
    168  N         35.6450   -9.6950   40.5450 N.3   141  PHE141     -0.1227
    169  CA        35.5440  -10.5810   39.3880 C.3   141  PHE141      0.1736
    170  C         34.5140  -11.6940   39.5850 C.2   141  PHE141      0.2595
    171  O         33.8990  -12.1520   38.6240 O.2   141  PHE141     -0.2718
    172  CB        36.9160  -11.1390   38.9700 C.3   141  PHE141      0.0547
    173  CG        37.4260  -12.2550   39.8430 C.ar  141  PHE141     -0.0202
    174  CD1       37.3140  -13.5780   39.4390 C.ar  141  PHE141     -0.0042
    175  CD2       38.0410  -11.9830   41.0540 C.ar  141  PHE141     -0.0042
    176  CE1       37.7930  -14.6070   40.2360 C.ar  141  PHE141     -0.0003
    177  CE2       38.5210  -13.0070   41.8550 C.ar  141  PHE141     -0.0003
    178  CZ        38.3960  -14.3210   41.4460 C.ar  141  PHE141     -0.0000
    179  N         34.3130  -12.1080   40.8320 N.am  142  MET142     -0.1979
    180  CA        33.3590  -13.1740   41.1320 C.3   142  MET142      0.1605
    181  C         31.9570  -12.6420   41.4200 C.2   142  MET142      0.2287
    182  O         30.9680  -13.3530   41.2390 O.2   142  MET142     -0.2864
    183  CB        33.8420  -14.0240   42.3120 C.3   142  MET142      0.0413
    184  CG        34.9270  -15.0330   41.9730 C.3   142  MET142      0.0598
    185  SD        34.3500  -16.3680   40.9050 S.3   142  MET142     -0.1393
    186  CE        34.5850  -15.6460   39.2830 C.3   142  MET142      0.0692
@<TRIPOS>BOND
     1    90    89    2
     2    79    78    2
     3    89    88    1
     4    78    77    1
     5    78    87   am
     6    97    95    1
     7    76    77    1
     8    77    80    1
     9    96    95    1
    10    98    99    1
    11    73    72    2
    12    95    94    2
    13    88    87    1
    14    88    91    1
    15    72    71    1
    16    94    93    1
    17    83    85   ar
    18    83    81   ar
    19    85    86   ar
    20   102    99    1
    21   102   103    1
    22    80    81    1
    23    81    82   ar
    24    86    84   ar
    25    99   100    1
    26    93    92    1
    27    75    74    1
    28    82    84   ar
    29    92    91    1
    30   171   170    2
    31   105   103    1
    32   172   169    1
    33   172   173    1
    34   103   104    1
    35    71    74    1
    36    71    70    1
    37   100   101    2
    38   186   185    1
    39   169   170    1
    40   169   168    1
    41   174   173   ar
    42   174   176   ar
    43   170   179   am
    44    69    68    2
    45   173   175   ar
    46    70    68   am
    47   176   178   ar
    48    68    67    1
    49   151   149   ar
    50    66    67    1
    51   179   180    1
    52   185   184    1
    53   175   177   ar
    54   180   181    1
    55   180   183    1
    56    41    38    1
    57    41    42    1
    58   182   181    2
    59   112   111    1
    60   178   177   ar
    61   111   113    1
    62   111   110    1
    63   149   150   ar
    64   149   148    1
    65    38    37    1
    66    38    39    1
    67   106   107    1
    68   184   183    1
    69    40    39    2
    70    61    60    2
    71    42    44   ar
    72    42    43   ar
    73   110   107    1
    74   148   147    1
    75    60    59    1
    76    44    46   ar
    77   107   108    1
    78    50    49    2
    79    43    45   ar
    80   120   118    1
    81    49    48    1
    82    49    58   am
    83    47    48    1
    84   108   109    2
    85    48    51    1
    86   147   144    1
    87   144   143    1
    88   144   145    1
    89    46    45   ar
    90   143   139   am
    91    59    58    1
    92    59    62    1
    93   124   123    2
    94    64    62    1
    95   137   138    1
    96   137   131   am
    97   118   119    1
    98   118   115    1
    99   138   139    1
   100   138   141    1
   101    28    29    2
   102    28    27    1
   103    62    63    1
   104   139   140    2
   105   145   146    2
   106    51    52    1
   107    52    53    1
   108   130   131    1
   109   130   133    1
   110   130   129    1
   111   123   129   am
   112   123   122    1
   113   167   165    1
   114   131   132    2
   115   135   133    1
   116   133   134    1
   117   125   122    1
   118   125   126    1
   119   166   165    1
   120    27    30    1
   121    27    26    1
   122    30    31    1
   123   121   122    1
   124   121   116   am
   125   115   116    1
   126   115   114    1
   127   141   142    1
   128   128   126    1
   129    33    31   ar
   130    33    35   ar
   131   165   164    1
   132   116   117    2
   133    63    65    1
   134   164   161    1
   135   163   162    2
   136    53    54    1
   137    31    32   ar
   138   126   127    1
   139    35    36   ar
   140   134   136    1
   141   162   161    1
   142   158   159    1
   143   158   157    1
   144   161   160    1
   145    54    55    2
   146    32    34   ar
   147   156   157    1
   148   156   153    1
   149    36    34   ar
   150    55    56    1
   151    55    57    1
   152   155   154    2
   153    24    23   ar
   154   152   153    1
   155   153   154    1
   156    23    22    1
   157    23    25   ar
   158    15    14    1
   159    22    21    1
   160    16    14    1
   161     8     6    1
   162    21    18    1
   163    14    13    1
   164    18    19    1
   165    18    17    1
   166    20    19    2
   167     6     5    1
   168     7     5    1
   169     5     2    1
   170    13    10    1
   171     4     3    2
   172    12    11    2
   173    10    11    1
   174    10     9    1
   175     2     1    1
   176     2     3    1
