@<TRIPOS>MOLECULE
tmp/4em9A01.pdb
 167 159 0 0 0
SMALL
GASTEIGER

@<TRIPOS>ATOM
      1  N         26.9620   15.0220    8.1250 N.3    60  ALA60      -0.1245
      2  CA        27.0170   13.9880    9.1540 C.3    60  ALA60       0.1562
      3  C         26.2060   14.3810   10.3840 C.2    60  ALA60       0.2260
      4  O         25.4410   13.5760   10.9170 O.2    60  ALA60      -0.2867
      5  CB        28.4570   13.6960    9.5390 C.3    60  ALA60       0.0290
      6  N         22.3440   14.6430    9.4640 N.3    63  ILE63      -0.1231
      7  CA        21.7190   13.3310    9.3870 C.3    63  ILE63       0.1692
      8  C         21.4870   12.7780   10.7900 C.2    63  ILE63       0.2592
      9  O         20.4220   12.2360   11.0870 O.2    63  ILE63      -0.2718
     10  CB        22.5720   12.3470    8.5690 C.3    63  ILE63       0.0266
     11  CG1       22.7290   12.8470    7.1310 C.3    63  ILE63       0.0019
     12  CG2       21.9500   10.9590    8.5860 C.3    63  ILE63       0.0020
     13  CD1       23.5600   11.9330    6.2570 C.3    63  ILE63       0.0001
     14  N         22.4850   12.9300   11.6550 N.am   64  PHE64      -0.1976
     15  CA        22.3710   12.4650   13.0330 C.3    64  PHE64       0.1639
     16  C         21.1970   13.1330   13.7390 C.2    64  PHE64       0.2290
     17  O         20.3740   12.4620   14.3570 O.2    64  PHE64      -0.2864
     18  CB        23.6620   12.7290   13.8100 C.3    64  PHE64       0.0560
     19  CG        23.6350   12.2060   15.2200 C.ar   64  PHE64      -0.0200
     20  CD1       23.2270   13.0160   16.2680 C.ar   64  PHE64      -0.0042
     21  CD2       24.0090   10.9000   15.4960 C.ar   64  PHE64      -0.0042
     22  CE1       23.2000   12.5370   17.5640 C.ar   64  PHE64      -0.0003
     23  CE2       23.9840   10.4130   16.7890 C.ar   64  PHE64      -0.0003
     24  CZ        23.5770   11.2330   17.8250 C.ar   64  PHE64      -0.0000
     25  N         17.9700   11.6920   12.4630 N.3    67  CYS67      -0.1221
     26  CA        17.7460   10.3570   13.0070 C.3    67  CYS67       0.1808
     27  C         17.3190   10.4370   14.4650 C.2    67  CYS67       0.2601
     28  O         16.5580    9.5980   14.9480 O.2    67  CYS67      -0.2717
     29  CB        19.0150    9.5110   12.8970 C.3    67  CYS67       0.0970
     30  SG        19.7060    9.4000   11.2340 S.3    67  CYS67      -0.0800
     31  N         17.8230   11.4510   15.1610 N.am   68  GLN68      -0.1979
     32  CA        17.5110   11.6470   16.5700 C.3    68  GLN68       0.1601
     33  C         16.0420   12.0100   16.7700 C.2    68  GLN68       0.2287
     34  O         15.3990   11.5350   17.7070 O.2    68  GLN68      -0.2864
     35  CB        18.4150   12.7240   17.1700 C.3    68  GLN68       0.0394
     36  CG        18.0990   13.0600   18.6120 C.3    68  GLN68       0.0908
     37  CD        19.0710   14.0600   19.2060 C.2    68  GLN68       0.2608
     38  OE1       20.2830   13.8370   19.2180 O.2    68  GLN68      -0.2717
     39  NE2       18.5410   15.1710   19.7070 N.am   68  GLN68      -0.0878
     40  N         13.9900    8.9010   16.3880 N.3    71  SER71      -0.1217
     41  CA        14.0860    8.0980   17.6030 C.3    71  SER71       0.1889
     42  C         13.1160    8.6210   18.6590 C.2    71  SER71       0.2288
     43  O         12.4030    7.8510   19.2980 O.2    71  SER71      -0.2866
     44  CB        15.5140    8.1090   18.1520 C.3    71  SER71       0.2089
     45  OG        16.3910    7.3810   17.3130 O.3    71  SER71      -0.2183
     46  N         14.9060    1.2210   23.1880 N.3   105  HIS105     -0.1241
     47  CA        15.9430    1.0770   22.1700 C.3   105  HIS105      0.1621
     48  C         16.0460   -0.3280   21.5750 C.2   105  HIS105      0.2264
     49  O         16.3450   -0.4800   20.3910 O.2   105  HIS105     -0.2867
     50  CB        17.2970    1.5700   22.6840 C.3   105  HIS105      0.0745
     51  CG        17.4420    3.0580   22.6390 C.ar  105  HIS105      0.0817
     52  ND1       17.3120    3.8540   23.7570 N.ar  105  HIS105     -0.2268
     53  CD2       17.6790    3.8980   21.6040 C.ar  105  HIS105      0.1154
     54  CE1       17.4740    5.1190   23.4140 C.ar  105  HIS105      0.1986
     55  NE2       17.6980    5.1730   22.1130 N.ar  105  HIS105     -0.2212
     56  N         13.3000   -0.2410   19.1810 N.3   108  ILE108     -0.1231
     57  CA        13.6260    0.6240   18.0520 C.3   108  ILE108      0.1692
     58  C         14.4550   -0.0970   16.9870 C.2   108  ILE108      0.2592
     59  O         14.1870    0.0300   15.7950 O.2   108  ILE108     -0.2718
     60  CB        14.3660    1.8980   18.5150 C.3   108  ILE108      0.0266
     61  CG1       13.3740    2.9000   19.1110 C.3   108  ILE108      0.0019
     62  CG2       15.1330    2.5310   17.3580 C.3   108  ILE108      0.0020
     63  CD1       14.0230    4.1580   19.6350 C.3   108  ILE108      0.0001
     64  N         15.4560   -0.8570   17.4150 N.am  109  TYR109     -0.1976
     65  CA        16.3080   -1.5690   16.4660 C.3   109  TYR109      0.1639
     66  C         15.6200   -2.8160   15.9210 C.2   109  TYR109      0.2290
     67  O         15.9310   -3.2740   14.8250 O.2   109  TYR109     -0.2864
     68  CB        17.6480   -1.9390   17.1020 C.3   109  TYR109      0.0560
     69  CG        18.3450   -0.7730   17.7580 C.ar  109  TYR109     -0.0198
     70  CD1       18.4880    0.4400   17.0930 C.ar  109  TYR109     -0.0009
     71  CD2       18.8700   -0.8850   19.0380 C.ar  109  TYR109     -0.0009
     72  CE1       19.1250    1.5130   17.6930 C.ar  109  TYR109      0.0417
     73  CE2       19.5110    0.1800   19.6450 C.ar  109  TYR109      0.0417
     74  CZ        19.6380    1.3760   18.9680 C.ar  109  TYR109      0.1957
     75  OH        20.2770    2.4370   19.5690 O.3   109  TYR109     -0.2866
     76  N         25.6640    5.8620    4.4770 N.3   135  LEU135     -0.1245
     77  CA        25.7170    5.9900    5.9260 C.3   135  LEU135      0.1561
     78  C         27.0780    5.5610    6.4670 C.2   135  LEU135      0.2260
     79  O         27.6190    6.1880    7.3770 O.2   135  LEU135     -0.2867
     80  CB        24.5960    5.1740    6.5760 C.3   135  LEU135      0.0270
     81  CG        23.1940    5.7790    6.4680 C.3   135  LEU135      0.0019
     82  CD1       22.1220    4.7140    6.6320 C.3   135  LEU135      0.0001
     83  CD2       23.0110    6.8940    7.4890 C.3   135  LEU135      0.0001
     84  N         30.0510    8.1690    6.2190 N.3   138  LEU138     -0.1245
     85  CA        30.0460    9.3800    7.0340 C.3   138  LEU138      0.1561
     86  C         31.2660    9.4370    7.9480 C.2   138  LEU138      0.2260
     87  O         31.7080    8.4140    8.4700 O.2   138  LEU138     -0.2867
     88  CB        28.7590    9.4730    7.8560 C.3   138  LEU138      0.0270
     89  CG        27.4710    9.6340    7.0460 C.3   138  LEU138      0.0019
     90  CD1       26.2480    9.5950    7.9540 C.3   138  LEU138      0.0001
     91  CD2       27.5040   10.9190    6.2280 C.3   138  LEU138      0.0001
     92  N         30.2770    9.0520   13.1920 N.3   142  PHE142     -0.1241
     93  CA        28.9070    8.9980   12.6890 C.3   142  PHE142      0.1605
     94  C         28.6860    7.8570   11.6970 C.2   142  PHE142      0.2264
     95  O         27.5780    7.3320   11.5810 O.2   142  PHE142     -0.2867
     96  CB        28.5090   10.3390   12.0680 C.3   142  PHE142      0.0534
     97  CG        28.4660   11.4680   13.0570 C.ar  142  PHE142     -0.0203
     98  CD1       27.4100   11.5850   13.9460 C.ar  142  PHE142     -0.0042
     99  CD2       29.4830   12.4070   13.1050 C.ar  142  PHE142     -0.0042
    100  CE1       27.3670   12.6180   14.8610 C.ar  142  PHE142     -0.0003
    101  CE2       29.4440   13.4430   14.0160 C.ar  142  PHE142     -0.0003
    102  CZ        28.3850   13.5480   14.8960 C.ar  142  PHE142     -0.0000
    103  N         27.5860    4.2940   13.3700 N.3   145  PHE145     -0.1227
    104  CA        26.3180    4.1150   14.0680 C.3   145  PHE145      0.1736
    105  C         25.4200    3.0270   13.4750 C.2   145  PHE145      0.2595
    106  O         24.9430    2.1530   14.1960 O.2   145  PHE145     -0.2718
    107  CB        25.5550    5.4430   14.1490 C.3   145  PHE145      0.0547
    108  CG        25.9390    6.2930   15.3280 C.ar  145  PHE145     -0.0202
    109  CD1       25.4110    6.0360   16.5830 C.ar  145  PHE145     -0.0042
    110  CD2       26.8250    7.3480   15.1850 C.ar  145  PHE145     -0.0042
    111  CE1       25.7620    6.8110   17.6720 C.ar  145  PHE145     -0.0003
    112  CE2       27.1790    8.1280   16.2710 C.ar  145  PHE145     -0.0003
    113  CZ        26.6460    7.8590   17.5150 C.ar  145  PHE145     -0.0000
    114  N         25.1920    3.0790   12.1670 N.am  146  MET146     -0.1979
    115  CA        24.1560    2.2520   11.5510 C.3   146  MET146      0.1605
    116  C         24.6050    0.8540   11.1230 C.2   146  MET146      0.2287
    117  O         23.7900   -0.0650   11.0560 O.2   146  MET146     -0.2864
    118  CB        23.5180    2.9850   10.3680 C.3   146  MET146      0.0413
    119  CG        22.7940    4.2670   10.7580 C.3   146  MET146      0.0598
    120  SD        21.4930    4.0010   11.9810 S.3   146  MET146     -0.1393
    121  CE        20.3600    2.9850   11.0410 C.3   146  MET146      0.0692
    122  N         25.9750    1.1720   20.8580 N.3   231  HIS231     -0.1241
    123  CA        25.4020    2.4710   20.5310 C.3   231  HIS231      0.1621
    124  C         25.7020    3.5110   21.6090 C.2   231  HIS231      0.2264
    125  O         26.0820    4.6420   21.3070 O.2   231  HIS231     -0.2867
    126  CB        23.8930    2.3460   20.3240 C.3   231  HIS231      0.0745
    127  CG        23.2390    3.6130   19.8700 C.ar  231  HIS231      0.0817
    128  ND1       23.1830    3.9880   18.5450 N.ar  231  HIS231     -0.2268
    129  CD2       22.6140    4.5920   20.5650 C.ar  231  HIS231      0.1154
    130  CE1       22.5510    5.1440   18.4430 C.ar  231  HIS231      0.1986
    131  NE2       22.1960    5.5320   19.6550 N.ar  231  HIS231     -0.2212
    132  N         27.6100    7.3160   21.4770 N.3   235  LEU235     -0.1245
    133  CA        27.0140    8.5670   21.9340 C.3   235  LEU235      0.1561
    134  C         27.9400    9.2960   22.9060 C.2   235  LEU235      0.2260
    135  O         27.9980   10.5260   22.9230 O.2   235  LEU235     -0.2867
    136  CB        25.6630    8.3090   22.6020 C.3   235  LEU235      0.0270
    137  CG        24.5370    7.7370   21.7400 C.3   235  LEU235      0.0019
    138  CD1       23.3150    7.4620   22.6000 C.3   235  LEU235      0.0001
    139  CD2       24.1860    8.6760   20.5940 C.3   235  LEU235      0.0001
    140  N         21.4800   16.4530   22.7290 N.3   247  LEU247     -0.1245
    141  CA        20.6230   15.2790   22.6450 C.3   247  LEU247      0.1561
    142  C         19.2550   15.6190   23.2290 C.2   247  LEU247      0.2260
    143  O         19.1630   16.1870   24.3150 O.2   247  LEU247     -0.2867
    144  CB        21.2470   14.1050   23.4030 C.3   247  LEU247      0.0270
    145  CG        20.6560   12.7140   23.1620 C.3   247  LEU247      0.0019
    146  CD1       20.9150   12.2580   21.7320 C.3   247  LEU247      0.0001
    147  CD2       21.2300   11.7100   24.1530 C.3   247  LEU247      0.0001
    148  N         15.3720   11.7510   25.1010 N.3   251  LEU251     -0.1245
    149  CA        16.4310   10.7770   24.8620 C.3   251  LEU251      0.1561
    150  C         17.5100   10.8180   25.9420 C.2   251  LEU251      0.2260
    151  O         18.1540    9.8060   26.2250 O.2   251  LEU251     -0.2867
    152  CB        17.0530   10.9860   23.4780 C.3   251  LEU251      0.0270
    153  CG        16.1400   10.6640   22.2920 C.3   251  LEU251      0.0019
    154  CD1       16.8690   10.8940   20.9780 C.3   251  LEU251      0.0001
    155  CD2       15.6150    9.2350   22.3790 C.3   251  LEU251      0.0001
    156  N         18.9070    7.6440   28.5600 N.3   255  TYR255     -0.1241
    157  CA        20.2890    7.1780   28.6510 C.3   255  TYR255      0.1605
    158  C         20.9500    7.4790   29.9960 C.2   255  TYR255      0.2264
    159  O         21.9220    6.8240   30.3730 O.2   255  TYR255     -0.2867
    160  CB        21.1280    7.7530   27.5070 C.3   255  TYR255      0.0534
    161  CG        20.9120    7.0480   26.1870 C.ar  255  TYR255     -0.0201
    162  CD1       21.3630    5.7500   25.9940 C.ar  255  TYR255     -0.0009
    163  CD2       20.2610    7.6780   25.1340 C.ar  255  TYR255     -0.0009
    164  CE1       21.1720    5.0970   24.7960 C.ar  255  TYR255      0.0417
    165  CE2       20.0670    7.0310   23.9260 C.ar  255  TYR255      0.0417
    166  CZ        20.5260    5.7390   23.7660 C.ar  255  TYR255      0.1957
    167  OH        20.3410    5.0800   22.5730 O.3   255  TYR255     -0.2866
@<TRIPOS>BOND
     1    76    77    1
     2    77    78    1
     3    77    80    1
     4    84    85    1
     5    91    89    1
     6    13    11    1
     7    78    79    2
     8    81    80    1
     9    81    82    1
    10    81    83    1
    11    85    88    1
    12    85    86    1
    13    89    88    1
    14    89    90    1
    15    11    10    1
    16    86    87    2
    17     1     2    1
    18    10    12    1
    19    10     7    1
    20     2     5    1
    21     2     3    1
    22     7     6    1
    23     7     8    1
    24   118   119    1
    25   118   115    1
    26     3     4    2
    27   119   120    1
    28     8     9    2
    29     8    14   am
    30   121   120    1
    31   117   116    2
    32   116   115    1
    33    30    29    1
    34   115   114    1
    35    95    94    2
    36    14    15    1
    37    94    93    1
    38    96    93    1
    39    96    97    1
    40   114   105   am
    41    25    26    1
    42    93    92    1
    43    29    26    1
    44    26    27    1
    45    15    16    1
    46    15    18    1
    47    97    99   ar
    48    97    98   ar
    49    99   101   ar
    50   103   104    1
    51   105   104    1
    52   105   106    2
    53    16    17    2
    54    18    19    1
    55    98   100   ar
    56   101   102   ar
    57   104   107    1
    58   107   108    1
    59    27    28    2
    60    27    31   am
    61    67    66    2
    62   100   102   ar
    63    31    32    1
    64   110   108   ar
    65   110   112   ar
    66    19    21   ar
    67    19    20   ar
    68   108   109   ar
    69    21    23   ar
    70    59    58    2
    71    66    65    1
    72    20    22   ar
    73   112   113   ar
    74    40    41    1
    75    65    68    1
    76    65    64    1
    77    32    33    1
    78    32    35    1
    79   109   111   ar
    80    33    34    2
    81    23    24   ar
    82    58    64   am
    83    58    57    1
    84    70    72   ar
    85    70    69   ar
    86    68    69    1
    87    35    36    1
    88    45    44    1
    89    62    60    1
    90   113   111   ar
    91    22    24   ar
    92    41    44    1
    93    41    42    1
    94    72    74   ar
    95    69    71   ar
    96    57    60    1
    97    57    56    1
    98   130   128   ar
    99   130   131   ar
   100    60    61    1
   101   128   127   ar
   102    36    37    1
   103    42    43    2
   104    74    75    1
   105    74    73   ar
   106    71    73   ar
   107    61    63    1
   108    37    38    2
   109    37    39   am
   110   131   129   ar
   111   127   126    1
   112   127   129   ar
   113   126   123    1
   114    49    48    2
   115   123   122    1
   116   123   124    1
   117   139   137    1
   118   154   153    1
   119   125   124    2
   120   132   133    1
   121    48    47    1
   122    53    55   ar
   123    53    51   ar
   124   146   145    1
   125   137   138    1
   126   137   136    1
   127   133   136    1
   128   133   134    1
   129    55    54   ar
   130    47    50    1
   131    47    46    1
   132   153   155    1
   133   153   152    1
   134   167   166    1
   135    51    50    1
   136    51    52   ar
   137   141   140    1
   138   141   142    1
   139   141   144    1
   140   134   135    2
   141   145   144    1
   142   145   147    1
   143   142   143    2
   144    54    52   ar
   145   152   149    1
   146   166   165   ar
   147   166   164   ar
   148   165   163   ar
   149   164   162   ar
   150   149   148    1
   151   149   150    1
   152   163   161   ar
   153   150   151    2
   154   162   161   ar
   155   161   160    1
   156   160   157    1
   157   156   157    1
   158   157   158    1
   159   158   159    2
