@<TRIPOS>MOLECULE
tmp/4emfA01.pdb
 169 164 0 0 0
SMALL
GASTEIGER

@<TRIPOS>ATOM
      1  N         -5.9750  -28.5940  -12.7230 N.3    69  VAL69      -0.1231
      2  CA        -4.9960  -27.5580  -12.2390 C.3    69  VAL69       0.1692
      3  C         -5.3870  -26.1510  -12.7220 C.2    69  VAL69       0.2592
      4  O         -4.5180  -25.2530  -12.8850 O.2    69  VAL69      -0.2718
      5  CB        -3.4690  -27.8670  -12.5630 C.3    69  VAL69       0.0266
      6  CG1       -2.6360  -27.4730  -11.3580 C.3    69  VAL69       0.0020
      7  CG2       -3.2680  -29.4230  -12.8970 C.3    69  VAL69       0.0020
      8  N         -6.6730  -25.9480  -12.9630 N.am   70  TYR70      -0.1962
      9  CA        -7.1390  -24.5790  -13.3110 C.3    70  TYR70       0.1771
     10  C         -7.3360  -23.7540  -12.0590 C.2    70  TYR70       0.2619
     11  O         -8.0430  -24.1550  -11.1380 O.2    70  TYR70      -0.2715
     12  CB        -8.4530  -24.5970  -14.0590 C.3    70  TYR70       0.0574
     13  CG        -8.4680  -25.2230  -15.4560 C.ar   70  TYR70      -0.0198
     14  CD1       -9.7040  -25.3950  -16.1250 C.ar   70  TYR70      -0.0009
     15  CD2       -7.2990  -25.6920  -16.0980 C.ar   70  TYR70      -0.0009
     16  CE1       -9.7790  -26.0100  -17.3960 C.ar   70  TYR70       0.0417
     17  CE2       -7.3510  -26.3060  -17.3810 C.ar   70  TYR70       0.0417
     18  CZ        -8.6020  -26.4710  -18.0100 C.ar   70  TYR70       0.1957
     19  OH        -8.6780  -27.0460  -19.2800 O.3    70  TYR70      -0.2866
     20  N         -6.7720  -22.5430  -12.0500 N.am   71  ILE71      -0.1963
     21  CA        -7.0850  -21.6300  -10.9520 C.3    71  ILE71       0.1727
     22  C         -8.5170  -21.1180  -11.1550 C.2    71  ILE71       0.2616
     23  O         -8.8530  -20.6250  -12.2130 O.2    71  ILE71      -0.2715
     24  CB        -6.0390  -20.4740  -10.8820 C.3    71  ILE71       0.0290
     25  CG1       -4.6700  -21.0880  -10.4270 C.3    71  ILE71       0.0022
     26  CG2       -6.5930  -19.3800   -9.9850 C.3    71  ILE71       0.0023
     27  CD1       -3.4510  -20.1500  -10.4770 C.3    71  ILE71       0.0001
     28  N         -9.3540  -21.1960  -10.1240 N.am   72  MET72      -0.1977
     29  CA       -10.7340  -20.7590  -10.2410 C.3    72  MET72       0.1605
     30  C        -10.9050  -19.3210   -9.6870 C.2    72  MET72       0.2287
     31  O        -11.7530  -18.5420  -10.1460 O.2    72  MET72      -0.2864
     32  CB       -11.6200  -21.7080   -9.4080 C.3    72  MET72       0.0413
     33  CG       -11.5960  -23.1860   -9.9080 C.3    72  MET72       0.0598
     34  SD       -12.5350  -23.2180  -11.4200 S.3    72  MET72      -0.1393
     35  CE       -11.3340  -22.9510  -12.6870 C.3    72  MET72       0.0692
     36  N        -12.8590  -15.9750  -11.4870 N.3    83  PHE83      -0.1241
     37  CA       -12.9790  -15.7460  -12.9100 C.3    83  PHE83       0.1605
     38  C        -14.4130  -15.7140  -13.3460 C.2    83  PHE83       0.2264
     39  O        -15.2810  -16.3790  -12.7340 O.2    83  PHE83      -0.2867
     40  CB       -12.2340  -16.8530  -13.7090 C.3    83  PHE83       0.0534
     41  CG       -10.7140  -16.6830  -13.6830 C.ar   83  PHE83      -0.0203
     42  CD1      -10.1390  -15.4720  -14.1540 C.ar   83  PHE83      -0.0042
     43  CD2       -9.8840  -17.6830  -13.1410 C.ar   83  PHE83      -0.0042
     44  CE1       -8.7330  -15.2740  -14.1260 C.ar   83  PHE83      -0.0003
     45  CE2       -8.4890  -17.5270  -13.1390 C.ar   83  PHE83      -0.0003
     46  CZ        -7.9200  -16.3150  -13.6080 C.ar   83  PHE83      -0.0000
     47  N        -16.6150  -17.1700  -15.3930 N.3    85  GLU85      -0.1245
     48  CA       -16.7560  -18.4330  -16.1690 C.3    85  GLU85       0.1567
     49  C        -17.5400  -19.4330  -15.3430 C.2    85  GLU85       0.2260
     50  O        -17.5440  -19.3910  -14.0910 O.2    85  GLU85      -0.2867
     51  CB       -15.4050  -19.0010  -16.6340 C.3    85  GLU85       0.0388
     52  CG       -14.6380  -19.5160  -15.4280 C.3    85  GLU85       0.1160
     53  CD       -13.1800  -19.8620  -15.6430 C.2    85  GLU85       0.3649
     54  OE1      -12.5780  -19.4780  -16.6630 O.co2  85  GLU85      -0.2457
     55  OE2      -12.6160  -20.5170  -14.7170 O.co2  85  GLU85      -0.2457
     56  N        -17.3630  -22.5870  -14.4950 N.3    87  ALA87      -0.1245
     57  CA       -16.6560  -23.4400  -13.5510 C.3    87  ALA87       0.1562
     58  C        -16.2130  -22.6930  -12.3160 C.2    87  ALA87       0.2260
     59  O        -16.1260  -23.3030  -11.2670 O.2    87  ALA87      -0.2867
     60  CB       -15.4710  -24.1020  -14.2020 C.3    87  ALA87       0.0290
     61  N        -12.6540  -14.3350  -18.1450 N.3   108  SER108     -0.1202
     62  CA       -12.4110  -15.7470  -17.7990 C.3   108  SER108      0.2020
     63  C        -10.8950  -16.0340  -17.5750 C.2   108  SER108      0.2619
     64  O        -10.0420  -15.1450  -17.6910 O.2   108  SER108     -0.2717
     65  CB       -12.9130  -16.6410  -18.9500 C.3   108  SER108      0.2103
     66  OG       -12.1010  -16.4250  -20.0980 O.3   108  SER108     -0.2182
     67  N        -10.5670  -17.2660  -17.2260 N.am  109  GLY109     -0.1942
     68  CA        -9.1750  -17.6490  -16.9380 C.3   109  GLY109      0.2014
     69  C         -8.3260  -18.1750  -18.0800 C.2   109  GLY109      0.2639
     70  O         -7.2440  -18.7560  -17.8970 O.2   109  GLY109     -0.2714
     71  N         -8.8540  -18.0150  -19.2580 N.am  110  ASN110     -0.1958
     72  CA        -8.2450  -18.2730  -20.5330 C.3   110  ASN110      0.1819
     73  C         -7.0230  -17.3290  -20.8490 C.2   110  ASN110      0.2621
     74  O         -7.0950  -16.0760  -20.6620 O.2   110  ASN110     -0.2715
     75  CB        -9.4150  -17.9600  -21.4460 C.3   110  ASN110      0.1195
     76  CG        -9.0690  -18.0590  -22.8270 C.2   110  ASN110      0.2630
     77  OD1       -8.7290  -17.0710  -23.4490 O.2   110  ASN110     -0.2716
     78  ND2       -9.0940  -19.2980  -23.3510 N.am  110  ASN110     -0.0877
     79  N         -5.9040  -17.9280  -21.2760 N.am  111  TYR111     -0.1960
     80  CA        -4.7140  -17.1260  -21.5890 C.3   111  TYR111      0.1771
     81  C         -5.0010  -15.9710  -22.5730 C.2   111  TYR111      0.2619
     82  O         -4.4910  -14.8430  -22.3880 O.2   111  TYR111     -0.2715
     83  CB        -3.6350  -17.9940  -22.1660 C.3   111  TYR111      0.0574
     84  CG        -2.7590  -18.6760  -21.1440 C.ar  111  TYR111     -0.0198
     85  CD1       -2.3460  -18.0380  -19.9750 C.ar  111  TYR111     -0.0009
     86  CD2       -2.3290  -20.0050  -21.3510 C.ar  111  TYR111     -0.0009
     87  CE1       -1.4460  -18.7030  -19.0360 C.ar  111  TYR111      0.0417
     88  CE2       -1.4480  -20.6630  -20.4350 C.ar  111  TYR111      0.0417
     89  CZ        -1.0450  -20.0240  -19.2790 C.ar  111  TYR111      0.1957
     90  OH        -0.2220  -20.6890  -18.4050 O.3   111  TYR111     -0.2866
     91  N         -5.7900  -16.1950  -23.6050 N.am  112  GLU112     -0.1977
     92  CA        -6.0310  -15.0740  -24.4920 C.3   112  GLU112      0.1602
     93  C         -6.8100  -13.9540  -23.8110 C.2   112  GLU112      0.2287
     94  O         -6.4440  -12.8180  -23.9140 O.2   112  GLU112     -0.2864
     95  CB        -6.6360  -15.4920  -25.8230 C.3   112  GLU112      0.0415
     96  CG        -5.9090  -16.6610  -26.4490 C.3   112  GLU112      0.1163
     97  CD        -5.1310  -16.3550  -27.7350 C.2   112  GLU112      0.3649
     98  OE1       -4.3350  -15.4090  -27.8000 O.co2 112  GLU112     -0.2457
     99  OE2       -5.2880  -17.1240  -28.6830 O.co2 112  GLU112     -0.2457
    100  N         -0.4580  -18.1580  -12.6600 N.3   155  ILE155     -0.1245
    101  CA        -0.8340  -19.4490  -13.3600 C.3   155  ILE155      0.1561
    102  C          0.4150  -20.2190  -13.8470 C.2   155  ILE155      0.2260
    103  O          0.5560  -21.4300  -13.5690 O.2   155  ILE155     -0.2867
    104  CB        -1.7860  -19.2240  -14.5140 C.3   155  ILE155      0.0252
    105  CG1       -3.1620  -18.8440  -13.9050 C.3   155  ILE155      0.0019
    106  CG2       -1.9630  -20.5080  -15.4310 C.3   155  ILE155      0.0019
    107  CD1       -4.0250  -18.0760  -14.8790 C.3   155  ILE155      0.0001
    108  N          0.5740  -23.6490  -11.4340 N.3   159  ALA159     -0.1231
    109  CA         0.0330  -24.7290  -12.3270 C.3   159  ALA159      0.1694
    110  C          0.9230  -25.2450  -13.4420 C.2   159  ALA159      0.2591
    111  O          1.1410  -26.4880  -13.5450 O.2   159  ALA159     -0.2718
    112  CB        -1.3790  -24.3640  -12.8630 C.3   159  ALA159      0.0304
    113  N          1.4800  -24.3590  -14.2540 N.am  160  GLU160     -0.1979
    114  CA         2.3320  -24.7520  -15.3620 C.3   160  GLU160      0.1602
    115  C          3.6060  -25.4500  -14.8980 C.2   160  GLU160      0.2287
    116  O          4.0130  -26.4830  -15.5050 O.2   160  GLU160     -0.2864
    117  CB         2.6190  -23.5930  -16.3870 C.3   160  GLU160      0.0415
    118  CG         1.3610  -22.9300  -16.9140 C.3   160  GLU160      0.1163
    119  CD         0.4800  -23.7880  -17.8990 C.2   160  GLU160      0.3649
    120  OE1        0.6840  -25.0100  -18.0090 O.co2 160  GLU160     -0.2457
    121  OE2       -0.3990  -23.1950  -18.5770 O.co2 160  GLU160     -0.2457
    122  N          2.7750  -28.8970  -13.8080 N.3   163  ARG163     -0.1245
    123  CA         2.5850  -29.7530  -14.9760 C.3   163  ARG163      0.1563
    124  C          3.8290  -30.2130  -15.7250 C.2   163  ARG163      0.2260
    125  O          3.8260  -31.3100  -16.3240 O.2   163  ARG163     -0.2867
    126  CB         1.6440  -29.0670  -16.0020 C.3   163  ARG163      0.0307
    127  CG         0.2330  -28.8930  -15.4890 C.3   163  ARG163      0.0489
    128  CD        -0.5020  -27.8850  -16.4160 C.3   163  ARG163      0.2205
    129  NE        -1.9140  -27.7120  -16.0140 N.pl3 163  ARG163     -0.0865
    130  CZ        -2.5930  -26.6150  -16.3490 C.cat 163  ARG163      0.5346
    131  NH1       -1.9240  -25.6180  -16.9410 N.pl3 163  ARG163      0.1354
    132  NH2       -3.8650  -26.4590  -16.0580 N.pl3 163  ARG163      0.1354
    133  N          3.0270  -24.9870  -22.3860 N.3   189  GLU189     -0.1231
    134  CA         1.7510  -24.5680  -21.7830 C.3   189  GLU189      0.1699
    135  C          0.6210  -24.7940  -22.7260 C.2   189  GLU189      0.2592
    136  O         -0.4740  -25.2970  -22.3500 O.2   189  GLU189     -0.2718
    137  CB         1.7840  -23.0560  -21.3870 C.3   189  GLU189      0.0402
    138  CG         2.8220  -22.7730  -20.2980 C.3   189  GLU189      0.1161
    139  CD         3.0520  -21.2480  -20.1070 C.2   189  GLU189      0.3649
    140  OE1        2.4810  -20.4910  -20.9070 O.co2 189  GLU189     -0.2457
    141  OE2        3.8100  -20.8580  -19.1720 O.co2 189  GLU189     -0.2457
    142  N          0.8660  -24.4150  -23.9720 N.am  190  ASN190     -0.1974
    143  CA        -0.1340  -24.4450  -24.9870 C.3   190  ASN190      0.1688
    144  C         -0.4320  -25.8900  -25.4470 C.2   190  ASN190      0.2292
    145  O         -1.4990  -26.1380  -25.9510 O.2   190  ASN190     -0.2864
    146  CB         0.3460  -23.6570  -26.2150 C.3   190  ASN190      0.1181
    147  CG         0.2440  -22.1270  -26.0020 C.2   190  ASN190      0.2629
    148  OD1       -0.4650  -21.6730  -25.1000 O.2   190  ASN190     -0.2716
    149  ND2        0.9860  -21.3630  -26.7960 N.am  190  ASN190     -0.0877
    150  N         -0.4340  -28.6770  -23.3450 N.3   192  TRP192     -0.1227
    151  CA        -0.6150  -29.6220  -22.2470 C.3   192  TRP192      0.1737
    152  C         -1.8310  -30.5320  -22.4810 C.2   192  TRP192      0.2596
    153  O         -1.7780  -31.7460  -22.2340 O.2   192  TRP192     -0.2718
    154  CB        -0.7030  -28.9120  -20.9010 C.3   192  TRP192      0.0564
    155  CG        -0.9090  -29.8440  -19.7270 C.ar  192  TRP192      0.0003
    156  CD1       -0.0160  -30.7650  -19.2500 C.ar  192  TRP192      0.0946
    157  CD2       -2.0570  -29.9190  -18.8800 C.ar  192  TRP192      0.0152
    158  NE1       -0.5300  -31.3920  -18.1140 N.ar  192  TRP192     -0.2442
    159  CE2       -1.7830  -30.8970  -17.8780 C.ar  192  TRP192      0.0810
    160  CE3       -3.3010  -29.2490  -18.8560 C.ar  192  TRP192      0.0012
    161  CZ2       -2.6970  -31.2180  -16.8760 C.ar  192  TRP192      0.0191
    162  CZ3       -4.1830  -29.5380  -17.8430 C.ar  192  TRP192      0.0001
    163  CH2       -3.8930  -30.5150  -16.8700 C.ar  192  TRP192      0.0015
    164  N         -2.9240  -29.9480  -22.9710 N.am  193  SER193     -0.1952
    165  CA        -4.1030  -30.7490  -23.2080 C.3   193  SER193      0.1924
    166  C         -3.8250  -31.7500  -24.3460 C.2   193  SER193      0.2314
    167  O         -4.1580  -32.9780  -24.2200 O.2   193  SER193     -0.2863
    168  CB        -5.2770  -29.8140  -23.5900 C.3   193  SER193      0.2116
    169  OG        -6.4210  -30.6320  -23.6760 O.3   193  SER193     -0.2180
@<TRIPOS>BOND
     1    99    97   ar
     2    98    97   ar
     3    97    96    1
     4   149   147   am
     5    96    95    1
     6   146   147    1
     7   146   143    1
     8   147   148    2
     9   145   144    2
    10    95    92    1
    11   144   143    1
    12   143   142    1
    13    92    93    1
    14    92    91    1
    15   166   167    2
    16   166   165    1
    17   142   135   am
    18    94    93    2
    19   169   168    1
    20    91    81   am
    21   168   165    1
    22    77    76    2
    23    78    76   am
    24   150   151    1
    25   165   164    1
    26   164   152   am
    27    76    75    1
    28   135   136    2
    29   135   134    1
    30    81    82    2
    31    81    80    1
    32   152   151    1
    33   152   153    2
    34   133   134    1
    35   151   154    1
    36    83    80    1
    37    83    84    1
    38   134   137    1
    39    80    79    1
    40    75    72    1
    41   137   138    1
    42    86    84   ar
    43    86    88   ar
    44    79    73   am
    45    84    85   ar
    46   140   139   ar
    47   154   155    1
    48    73    74    2
    49    73    72    1
    50    72    71    1
    51    88    89   ar
    52   138   139    1
    53   139   141   ar
    54    66    65    1
    55    85    87   ar
    56   155   156   ar
    57   155   157   ar
    58    19    18    1
    59    89    87   ar
    60    89    90    1
    61    71    69   am
    62   156   158   ar
    63    65    62    1
    64   157   160   ar
    65   157   159   ar
    66   160   162   ar
    67   121   119   ar
    68    61    62    1
    69   158   159   ar
    70    69    70    2
    71    69    68    1
    72    18    16   ar
    73    18    17   ar
    74   120   119   ar
    75   119   118    1
    76   159   161   ar
    77   162   163   ar
    78    62    63    1
    79    64    63    2
    80    63    67   am
    81    16    14   ar
    82    17    15   ar
    83    67    68    1
    84   131   130    1
    85   118   117    1
    86   161   163   ar
    87    54    53   ar
    88    51    48    1
    89    51    52    1
    90   128   129    1
    91   128   127    1
    92   117   114    1
    93   130   132    1
    94   130   129    2
    95   125   124    2
    96    48    47    1
    97    48    49    1
    98    14    13   ar
    99    15    13   ar
   100   126   127    1
   101   126   123    1
   102   124   123    1
   103    53    52    1
   104    53    55   ar
   105   116   115    2
   106    13    12    1
   107   106   104    1
   108   114   115    1
   109   114   113    1
   110    49    50    2
   111   123   122    1
   112   107   105    1
   113   104   105    1
   114   104   101    1
   115    56    57    1
   116   113   110   am
   117    60    57    1
   118    42    44   ar
   119    42    41   ar
   120    44    46   ar
   121    12     9    1
   122   102   103    2
   123   102   101    1
   124    40    41    1
   125    40    37    1
   126    41    43   ar
   127    46    45   ar
   128    57    58    1
   129   111   110    2
   130   110   109    1
   131   101   100    1
   132    38    37    1
   133    38    39    2
   134     9     8    1
   135     9    10    1
   136    43    45   ar
   137     8     3   am
   138    37    36    1
   139     7     5    1
   140     4     3    2
   141   112   109    1
   142     1     2    1
   143     3     2    1
   144    35    34    1
   145     5     2    1
   146     5     6    1
   147   109   108    1
   148    58    59    2
   149    23    22    2
   150    10    20   am
   151    10    11    2
   152    20    21    1
   153    34    33    1
   154    22    21    1
   155    22    28   am
   156    21    24    1
   157    24    25    1
   158    24    26    1
   159    27    25    1
   160    29    28    1
   161    29    30    1
   162    29    32    1
   163    31    30    2
   164    33    32    1
