@<TRIPOS>MOLECULE
tmp/4emlE00.pdb
 78 72 0 0 0
SMALL
GASTEIGER

@<TRIPOS>ATOM
      1  N         54.6070  -14.4470   13.9540 N.3    22  LYS22      -0.1245
      2  CA        53.3020  -14.7140   13.3610 C.3    22  LYS22       0.1561
      3  C         52.6140  -15.8620   14.0810 C.2    22  LYS22       0.2260
      4  O         53.1670  -16.9530   14.2020 O.2    22  LYS22      -0.2867
      5  CB        53.3950  -15.0080   11.8570 C.3    22  LYS22       0.0271
      6  CG        52.0290  -15.2820   11.2370 C.3    22  LYS22       0.0035
      7  CD        52.0670  -15.3000    9.7070 C.3    22  LYS22       0.0206
      8  CE        52.8930  -16.4410    9.1640 C.3    22  LYS22       0.1093
      9  NZ        52.7360  -16.5450    7.6740 N.3    22  LYS22      -0.1314
     10  N         46.5500  -14.2520   12.9420 N.3    61  THR61      -0.1203
     11  CA        45.6560  -14.5680   11.8350 C.3    61  THR61       0.1994
     12  C         45.0890  -15.9800   11.9770 C.2    61  THR61       0.2618
     13  O         45.3960  -16.6810   12.9380 O.2    61  THR61      -0.2717
     14  CB        46.3870  -14.4000   10.4800 C.3    61  THR61       0.1784
     15  OG1       45.4320  -14.3370    9.4120 O.3    61  THR61      -0.2211
     16  CG2       47.3450  -15.5670   10.2400 C.3    61  THR61       0.0376
     17  N         44.2420  -16.3790   11.0330 N.am   62  GLY62      -0.1942
     18  CA        43.7120  -17.7350   10.9990 C.3    62  GLY62       0.2014
     19  C         44.1590  -18.4290    9.7200 C.2    62  GLY62       0.2639
     20  O         44.2780  -17.7880    8.6760 O.2    62  GLY62      -0.2714
     21  N         44.4320  -19.7290    9.7990 N.am   63  ALA63      -0.1963
     22  CA        44.7960  -20.5030    8.6210 C.3    63  ALA63       0.1728
     23  C         43.5880  -20.5780    7.7030 C.2    63  ALA63       0.2616
     24  O         42.4540  -20.7090    8.1620 O.2    63  ALA63      -0.2715
     25  CB        45.2550  -21.9170    9.0170 C.3    63  ALA63       0.0334
     26  N         43.8230  -20.5020    6.4010 N.am   64  GLY64      -0.1955
     27  CA        42.7340  -20.5820    5.4520 C.3    64  GLY64       0.1869
     28  C         43.2280  -20.6780    4.0280 C.2    64  GLY64       0.2309
     29  O         44.4110  -20.4720    3.7740 O.2    64  GLY64      -0.2863
     30  N         37.0310  -18.6190    4.0300 N.3    71  TYR71      -0.1241
     31  CA        38.0800  -18.2410    4.9700 C.3    71  TYR71       0.1605
     32  C         37.5060  -17.9590    6.3500 C.2    71  TYR71       0.2264
     33  O         36.3920  -17.4550    6.4750 O.2    71  TYR71      -0.2867
     34  CB        38.8010  -16.9790    4.4860 C.3    71  TYR71       0.0534
     35  CG        39.7060  -17.1700    3.2890 C.ar   71  TYR71      -0.0201
     36  CD1       39.2010  -17.1290    1.9880 C.ar   71  TYR71      -0.0009
     37  CD2       41.0730  -17.3720    3.4580 C.ar   71  TYR71      -0.0009
     38  CE1       40.0420  -17.3000    0.8830 C.ar   71  TYR71       0.0417
     39  CE2       41.9140  -17.5450    2.3650 C.ar   71  TYR71       0.0417
     40  CZ        41.3930  -17.5010    1.0870 C.ar   71  TYR71       0.1957
     41  OH        42.2410  -17.6710    0.0220 O.3    71  TYR71      -0.2866
     42  N         45.2430   -9.8760   11.2740 N.3    99  LEU99      -0.1245
     43  CA        45.1010   -9.9590    9.8230 C.3    99  LEU99       0.1561
     44  C         43.8850  -10.8370    9.5600 C.2    99  LEU99       0.2260
     45  O         43.9460  -12.0590    9.6880 O.2    99  LEU99      -0.2867
     46  CB        46.3650  -10.5480    9.1720 C.3    99  LEU99       0.0270
     47  CG        47.6920   -9.8580    9.5190 C.3    99  LEU99       0.0019
     48  CD1       48.8720  -10.5100    8.7800 C.3    99  LEU99       0.0001
     49  CD2       47.6520   -8.3530    9.2210 C.3    99  LEU99       0.0001
     50  N         41.1160  -12.5670    7.4270 N.3   101  ALA101     -0.1245
     51  CA        40.5140  -13.0900    6.2070 C.3   101  ALA101      0.1562
     52  C         39.2400  -13.8420    6.5920 C.2   101  ALA101      0.2260
     53  O         39.2430  -14.6310    7.5380 O.2   101  ALA101     -0.2867
     54  CB        41.4940  -14.0120    5.4630 C.3   101  ALA101      0.0290
     55  N         42.7420  -10.4970   -0.5610 N.3   181  VAL181     -0.1245
     56  CA        43.1990  -11.5730    0.3270 C.3   181  VAL181      0.1561
     57  C         44.6390  -11.9990    0.0100 C.2   181  VAL181      0.2260
     58  O         45.4100  -12.3390    0.9080 O.2   181  VAL181     -0.2867
     59  CB        42.2300  -12.8000    0.3500 C.3   181  VAL181      0.0252
     60  CG1       42.2490  -13.5540   -0.9670 C.3   181  VAL181      0.0019
     61  CG2       42.6010  -13.7420    1.4910 C.3   181  VAL181      0.0019
     62  N         47.0650   -9.7490    1.8820 N.3   184  LEU184     -0.1231
     63  CA        46.8640   -9.5690    3.3250 C.3   184  LEU184      0.1693
     64  C         48.1340   -9.7500    4.1630 C.2   184  LEU184      0.2591
     65  O         48.4530   -8.9200    5.0190 O.2   184  LEU184     -0.2718
     66  CB        45.7530  -10.5000    3.8380 C.3   184  LEU184      0.0284
     67  CG        45.4480  -10.3820    5.3420 C.3   184  LEU184      0.0019
     68  CD1       45.0300   -8.9600    5.7520 C.3   184  LEU184      0.0001
     69  CD2       44.3850  -11.4070    5.7790 C.3   184  LEU184      0.0001
     70  N         48.8480  -10.8470    3.9420 N.am  185  GLU185     -0.1979
     71  CA        50.0620  -11.1000    4.7220 C.3   185  GLU185      0.1602
     72  C         51.1300  -10.0570    4.4070 C.2   185  GLU185      0.2287
     73  O         51.7920   -9.5500    5.3140 O.2   185  GLU185     -0.2864
     74  CB        50.6070  -12.5210    4.4840 C.3   185  GLU185      0.0415
     75  CG        51.8360  -12.8310    5.3520 C.3   185  GLU185      0.1163
     76  CD        52.3480  -14.2530    5.1880 C.2   185  GLU185      0.3649
     77  OE1       51.8570  -14.9800    4.3000 O.co2 185  GLU185     -0.2457
     78  OE2       53.2370  -14.6460    5.9630 O.co2 185  GLU185     -0.2457
@<TRIPOS>BOND
     1    60    59    1
     2    55    56    1
     3    57    56    1
     4    57    58    2
     5    41    40    1
     6    56    59    1
     7    59    61    1
     8    38    40   ar
     9    38    36   ar
    10    40    39   ar
    11    62    63    1
    12    36    35   ar
    13    39    37   ar
    14    35    37   ar
    15    35    34    1
    16    63    66    1
    17    63    64    1
    18    29    28    2
    19    66    67    1
    20    70    64   am
    21    70    71    1
    22    28    27    1
    23    30    31    1
    24    64    65    2
    25    77    76   ar
    26    72    71    1
    27    72    73    2
    28    74    71    1
    29    74    75    1
    30    34    31    1
    31    31    32    1
    32    76    75    1
    33    76    78   ar
    34    67    68    1
    35    67    69    1
    36    27    26    1
    37    54    51    1
    38    51    52    1
    39    51    50    1
    40    32    33    2
    41    26    23   am
    42    52    53    2
    43     9     8    1
    44    23    24    2
    45    23    22    1
    46    22    25    1
    47    22    21    1
    48    20    19    2
    49    48    47    1
    50     8     7    1
    51    46    47    1
    52    46    43    1
    53    49    47    1
    54    15    14    1
    55    44    45    2
    56    44    43    1
    57     7     6    1
    58    19    21   am
    59    19    18    1
    60    43    42    1
    61    16    14    1
    62    14    11    1
    63    18    17    1
    64    17    12   am
    65     6     5    1
    66    11    12    1
    67    11    10    1
    68     5     2    1
    69    12    13    2
    70     2     1    1
    71     2     3    1
    72     3     4    2
