@<TRIPOS>MOLECULE
tmp/4emnC01.pdb
 98 97 0 0 0
SMALL
GASTEIGER

@<TRIPOS>ATOM
      1  N          4.3450    9.2810   31.3190 N.3    11  GLU11      -0.1245
      2  CA         5.0460    8.0970   30.8470 C.3    11  GLU11       0.1567
      3  C          6.4920    8.4330   30.4220 C.2    11  GLU11       0.2260
      4  O          7.3440    7.5680   30.5490 O.2    11  GLU11      -0.2867
      5  CB         4.3500    7.4670   29.6280 C.3    11  GLU11       0.0388
      6  CG         2.9600    6.9370   29.8770 C.3    11  GLU11       0.1160
      7  CD         2.9100    5.6260   30.6120 C.2    11  GLU11       0.3649
      8  OE1        4.0030    5.0590   30.8610 O.co2  11  GLU11      -0.2457
      9  OE2        1.7850    5.1730   30.9060 O.co2  11  GLU11      -0.2457
     10  N         10.4540   -0.3030   25.8990 N.3    24  TYR24      -0.1241
     11  CA         9.3760    0.6040   25.5270 C.3    24  TYR24       0.1605
     12  C          9.9150    1.8230   24.7990 C.2    24  TYR24       0.2264
     13  O         11.0700    2.2270   24.9590 O.2    24  TYR24      -0.2867
     14  CB         8.5850    1.0610   26.7370 C.3    24  TYR24       0.0534
     15  CG         8.1070   -0.0370   27.6430 C.ar   24  TYR24      -0.0201
     16  CD1        8.7420   -0.2250   28.8770 C.ar   24  TYR24      -0.0009
     17  CD2        7.0320   -0.8620   27.3070 C.ar   24  TYR24      -0.0009
     18  CE1        8.2940   -1.2280   29.7120 C.ar   24  TYR24       0.0417
     19  CE2        6.5870   -1.8610   28.1490 C.ar   24  TYR24       0.0417
     20  CZ         7.2400   -2.0420   29.3610 C.ar   24  TYR24       0.1957
     21  OH         6.8680   -2.9950   30.2800 O.3    24  TYR24      -0.2866
     22  N          4.3330    7.5010   24.6240 N.3    28  VAL28      -0.1231
     23  CA         3.3620    6.7320   25.3980 C.3    28  VAL28       0.1692
     24  C          3.9040    5.3230   25.6330 C.2    28  VAL28       0.2592
     25  O          3.1940    4.4300   26.0630 O.2    28  VAL28      -0.2718
     26  CB         1.9140    6.7120   24.8220 C.3    28  VAL28       0.0266
     27  CG1        1.4280    8.1650   24.7710 C.3    28  VAL28       0.0020
     28  CG2        1.8510    5.9970   23.4850 C.3    28  VAL28       0.0020
     29  N          5.2200    5.1320   25.4650 N.am   29  GLN29      -0.1966
     30  CA         5.9250    3.9330   25.9140 C.3    29  GLN29       0.1733
     31  C          5.3180    2.6500   25.3680 C.2    29  GLN29       0.2616
     32  O          5.1980    1.6440   26.0350 O.2    29  GLN29      -0.2715
     33  CB         6.0890    3.9420   27.4430 C.3    29  GLN29       0.0408
     34  CG         7.0320    5.1020   27.8760 C.3    29  GLN29       0.0908
     35  CD         8.4860    4.6600   27.7050 C.2    29  GLN29       0.2608
     36  OE1        8.9970    3.8720   28.5260 O.2    29  GLN29      -0.2717
     37  NE2        9.1130    5.1540   26.6440 N.am   29  GLN29      -0.0878
     38  N          4.9890    2.6570   24.0700 N.am   30  PHE30      -0.1960
     39  CA         4.6300    1.4100   23.4230 C.3    30  PHE30       0.1771
     40  C          5.7220    0.3370   23.5270 C.2    30  PHE30       0.2619
     41  O          6.9380    0.6570   23.4300 O.2    30  PHE30      -0.2715
     42  CB         4.4390    1.6150   21.9120 C.3    30  PHE30       0.0574
     43  CG         3.1240    2.1740   21.4370 C.ar   30  PHE30      -0.0200
     44  CD1        3.0120    3.5220   21.1240 C.ar   30  PHE30      -0.0042
     45  CD2        2.0160    1.3710   21.2890 C.ar   30  PHE30      -0.0042
     46  CE1        1.7930    3.9810   20.6370 C.ar   30  PHE30      -0.0003
     47  CE2        0.7860    1.8190   20.8380 C.ar   30  PHE30      -0.0003
     48  CZ         0.6950    3.1720   20.5210 C.ar   30  PHE30      -0.0000
     49  N          5.3340   -0.9270   23.6930 N.am   31  ASP31      -0.1971
     50  CA         6.2780   -1.9850   23.3030 C.3    31  ASP31       0.1709
     51  C          6.1660   -2.2340   21.7990 C.2    31  ASP31       0.2293
     52  O          5.2800   -1.7530   21.0950 O.2    31  ASP31      -0.2864
     53  CB         6.0750   -3.2550   24.1000 C.3    31  ASP31       0.1436
     54  CG         4.8050   -4.0320   23.8560 C.2    31  ASP31       0.3671
     55  OD1        3.8780   -3.5410   23.1990 O.co2  31  ASP31      -0.2456
     56  OD2        4.7760   -5.1810   24.3320 O.co2  31  ASP31      -0.2456
     57  N          2.8350   -4.0890   20.3610 N.3    34  THR34      -0.1218
     58  CA         1.6440   -3.2720   20.2660 C.3    34  THR34       0.1862
     59  C          1.7550   -2.2840   19.1410 C.2    34  THR34       0.2287
     60  O          0.8010   -2.0430   18.3960 O.2    34  THR34      -0.2866
     61  CB         1.4030   -2.5610   21.6360 C.3    34  THR34       0.1770
     62  OG1        1.3200   -3.5850   22.6260 O.3    34  THR34      -0.2211
     63  CG2        0.0710   -1.8200   21.5120 C.3    34  THR34       0.0375
     64  N         -8.2920   -1.9800   23.3170 N.3    66  GLN66      -0.1196
     65  CA        -7.9780   -2.6730   24.5670 C.3    66  GLN66       0.1782
     66  C         -8.2490   -1.7720   25.7500 C.2    66  GLN66       0.2306
     67  O         -8.0160   -2.2080   26.8930 O.2    66  GLN66      -0.2863
     68  CB        -6.5270   -3.1020   24.6540 C.2    66  GLN66       0.0051
     69  CG        -5.5870   -3.2080   23.4980 C.2    66  GLN66       0.0584
     70  CD        -4.1110   -3.3600   23.8640 C.2    66  GLN66       0.2840
     71  OE1       -3.3480   -4.0490   23.1750 O.2    66  GLN66      -0.2667
     72  NE2       -3.6220   -2.7450   24.9320 N.am   66  GLN66      -0.0837
     73  N         -3.4710   -0.1040   28.8810 N.3    70  ALA70      -0.1231
     74  CA        -2.1340   -0.0490   28.3160 C.3    70  ALA70       0.1694
     75  C         -1.2750    0.9800   29.0590 C.2    70  ALA70       0.2592
     76  O         -0.0400    0.8960   29.0270 O.2    70  ALA70      -0.2718
     77  CB        -2.2200    0.2900   26.8320 C.3    70  ALA70       0.0304
     78  N         -1.9510    1.9190   29.7370 N.am   71  TRP71      -0.1963
     79  CA        -1.2760    2.9500   30.5140 C.3    71  TRP71       0.1756
     80  C         -1.9040    2.9280   31.8950 C.2    71  TRP71       0.2461
     81  O         -2.7010    3.8090   32.2490 O.2    71  TRP71      -0.2730
     82  CB        -1.3980    4.3110   29.8550 C.3    71  TRP71       0.0590
     83  CG        -0.9230    4.2270   28.4280 C.ar   71  TRP71       0.0006
     84  CD1        0.3900    4.3550   28.0150 C.ar   71  TRP71       0.0946
     85  CD2       -1.7070    3.9960   27.2550 C.ar   71  TRP71       0.0152
     86  NE1        0.4380    4.2190   26.6650 N.ar   71  TRP71      -0.2442
     87  CE2       -0.8320    3.9970   26.1700 C.ar   71  TRP71       0.0810
     88  CE3       -3.0840    3.7930   27.0280 C.ar   71  TRP71       0.0012
     89  CZ2       -1.3170    3.7940   24.8650 C.ar   71  TRP71       0.0191
     90  CZ3       -3.5720    3.5950   25.7610 C.ar   71  TRP71       0.0001
     91  CH2       -2.6670    3.6000   24.6710 C.ar   71  TRP71       0.0015
     92  N         -1.6100    1.8590   32.6460 N.am   72  PRO72      -0.2727
     93  CA        -2.4460    1.5220   33.8360 C.3    72  PRO72       0.1402
     94  C         -2.3210    2.5130   34.9800 C.2    72  PRO72       0.2269
     95  O         -3.2270    2.5370   35.8430 O.2    72  PRO72      -0.2865
     96  CB        -1.9380    0.1460   34.2340 C.3    72  PRO72       0.0296
     97  CG        -0.5180    0.1360   33.7850 C.3    72  PRO72       0.0237
     98  CD        -0.5450    0.8570   32.4460 C.3    72  PRO72       0.0939
@<TRIPOS>BOND
     1    60    59    2
     2    59    58    1
     3    58    57    1
     4    58    61    1
     5    48    46   ar
     6    48    47   ar
     7    46    44   ar
     8    47    45   ar
     9    52    51    2
    10    44    43   ar
    11    45    43   ar
    12    43    42    1
    13    63    61    1
    14    61    62    1
    15    51    50    1
    16    42    39    1
    17    71    70    2
    18    55    54   ar
    19    50    49    1
    20    50    53    1
    21    64    65    1
    22    39    40    1
    23    39    38    1
    24    41    40    2
    25    28    26    1
    26    69    70    1
    27    69    68    2
    28    40    49   am
    29    54    53    1
    30    54    56   ar
    31    70    72   am
    32    38    31   am
    33    65    68    1
    34    65    66    1
    35    22    23    1
    36    91    89   ar
    37    91    90   ar
    38    27    26    1
    39    12    13    2
    40    12    11    1
    41    26    23    1
    42    89    87   ar
    43    31    30    1
    44    31    32    2
    45    23    24    1
    46    29    24   am
    47    29    30    1
    48    11    10    1
    49    11    14    1
    50    24    25    2
    51    66    67    2
    52    90    88   ar
    53    30    33    1
    54    87    86   ar
    55    87    85   ar
    56    37    35   am
    57    86    84   ar
    58    14    15    1
    59    77    74    1
    60    88    85   ar
    61    85    83   ar
    62    17    15   ar
    63    17    19   ar
    64    33    34    1
    65    15    16   ar
    66    35    34    1
    67    35    36    2
    68    84    83   ar
    69    19    20   ar
    70    74    73    1
    71    74    75    1
    72    83    82    1
    73    16    18   ar
    74    76    75    2
    75    75    78   am
    76    20    18   ar
    77    20    21    1
    78     5     6    1
    79     5     2    1
    80    78    79    1
    81    82    79    1
    82     6     7    1
    83     3     4    2
    84     3     2    1
    85    79    80    1
    86     7     8   ar
    87     7     9   ar
    88     2     1    1
    89    80    81    2
    90    80    92   am
    91    98    92    1
    92    98    97    1
    93    92    93    1
    94    97    96    1
    95    93    96    1
    96    93    94    1
    97    94    95    2
