@<TRIPOS>MOLECULE
tmp/4emrA00.pdb
 177 171 0 0 0
SMALL
GASTEIGER

@<TRIPOS>ATOM
      1  N        -21.7800  -19.5550  -14.0390 N.3    69  VAL69      -0.1231
      2  CA       -21.4260  -18.2050  -14.5640 C.3    69  VAL69       0.1692
      3  C        -19.9890  -17.8490  -14.0670 C.2    69  VAL69       0.2592
      4  O        -19.6720  -16.6610  -13.9340 O.2    69  VAL69      -0.2718
      5  CB       -22.4010  -17.0550  -14.2080 C.3    69  VAL69       0.0266
      6  CG1      -22.4420  -15.9850  -15.3650 C.3    69  VAL69       0.0020
      7  CG2      -23.8440  -17.6040  -13.9770 C.3    69  VAL69       0.0020
      8  N        -19.1700  -18.8380  -13.7950 N.am   70  TYR70      -0.1962
      9  CA       -17.7600  -18.5430  -13.4070 C.3    70  TYR70       0.1771
     10  C        -17.0000  -18.2740  -14.6480 C.2    70  TYR70       0.2619
     11  O        -17.0030  -19.0750  -15.5810 O.2    70  TYR70      -0.2715
     12  CB       -17.0820  -19.7750  -12.8000 C.3    70  TYR70       0.0574
     13  CG       -17.5660  -20.1440  -11.3900 C.ar   70  TYR70      -0.0198
     14  CD1      -17.0460  -21.2950  -10.7550 C.ar   70  TYR70      -0.0009
     15  CD2      -18.5930  -19.4260  -10.7370 C.ar   70  TYR70      -0.0009
     16  CE1      -17.5110  -21.6930   -9.4550 C.ar   70  TYR70       0.0417
     17  CE2      -19.0540  -19.8190   -9.4640 C.ar   70  TYR70       0.0417
     18  CZ       -18.5040  -20.9630   -8.8550 C.ar   70  TYR70       0.1957
     19  OH       -18.9060  -21.3720   -7.5960 O.3    70  TYR70      -0.2866
     20  N        -16.1870  -17.2060  -14.6050 N.am   71  ILE71      -0.1963
     21  CA       -15.2180  -17.0170  -15.7240 C.3    71  ILE71       0.1727
     22  C        -14.0740  -17.9460  -15.5980 C.2    71  ILE71       0.2616
     23  O        -13.4840  -18.0420  -14.5230 O.2    71  ILE71      -0.2715
     24  CB       -14.6310  -15.6030  -15.7060 C.3    71  ILE71       0.0290
     25  CG1      -15.5800  -14.5000  -16.2760 C.3    71  ILE71       0.0022
     26  CG2      -13.3890  -15.5050  -16.6110 C.3    71  ILE71       0.0023
     27  CD1      -16.9030  -14.3550  -15.5290 C.3    71  ILE71       0.0001
     28  N        -13.7190  -18.6570  -16.6660 N.am   72  MET72      -0.1977
     29  CA       -12.6210  -19.6420  -16.5710 C.3    72  MET72       0.1605
     30  C        -11.3180  -19.1070  -17.1410 C.2    72  MET72       0.2287
     31  O        -10.2840  -19.5610  -16.7450 O.2    72  MET72      -0.2864
     32  CB       -12.8830  -20.9520  -17.3720 C.3    72  MET72       0.0413
     33  CG       -14.2130  -21.6420  -16.9730 C.3    72  MET72       0.0598
     34  SD       -13.9330  -22.6390  -15.5460 S.3    72  MET72      -0.1393
     35  CE       -14.3410  -21.5090  -14.2360 C.3    72  MET72       0.0692
     36  N         -7.4330  -19.1420  -15.2700 N.3    83  PHE83      -0.1241
     37  CA        -7.2130  -19.1810  -13.8580 C.3    83  PHE83       0.1605
     38  C         -6.4680  -20.4190  -13.3920 C.2    83  PHE83       0.2264
     39  O         -6.5330  -21.4590  -14.0730 O.2    83  PHE83      -0.2867
     40  CB        -8.5680  -19.0680  -13.1420 C.3    83  PHE83       0.0534
     41  CG        -9.0990  -17.6760  -13.0980 C.ar   83  PHE83      -0.0203
     42  CD1       -8.3370  -16.6370  -12.5780 C.ar   83  PHE83      -0.0042
     43  CD2      -10.3820  -17.4060  -13.5540 C.ar   83  PHE83      -0.0042
     44  CE1       -8.8150  -15.3550  -12.4920 C.ar   83  PHE83      -0.0003
     45  CE2      -10.8930  -16.1070  -13.4790 C.ar   83  PHE83      -0.0003
     46  CZ       -10.1220  -15.0700  -12.9230 C.ar   83  PHE83      -0.0000
     47  N         -6.6190  -23.0660  -11.3100 N.3    85  GLU85      -0.1245
     48  CA        -7.6410  -23.8390  -10.6040 C.3    85  GLU85       0.1567
     49  C         -8.0450  -24.9950  -11.5260 C.2    85  GLU85       0.2260
     50  O         -8.0360  -24.8720  -12.7880 O.2    85  GLU85      -0.2867
     51  CB        -8.8760  -22.9990  -10.2280 C.3    85  GLU85       0.0388
     52  CG        -9.7650  -22.6300  -11.4260 C.3    85  GLU85       0.1160
     53  CD       -10.6500  -21.3980  -11.2180 C.2    85  GLU85       0.3649
     54  OE1      -11.4030  -21.1140  -12.1700 O.co2  85  GLU85      -0.2457
     55  OE2      -10.5830  -20.6850  -10.1650 O.co2  85  GLU85      -0.2457
     56  N        -10.8940  -26.4520  -12.2960 N.3    87  ALA87      -0.1245
     57  CA       -11.9790  -26.2180  -13.2460 C.3    87  ALA87       0.1562
     58  C        -11.5100  -25.4990  -14.5150 C.2    87  ALA87       0.2260
     59  O        -11.9100  -25.8470  -15.6250 O.2    87  ALA87      -0.2867
     60  CB       -13.1280  -25.5070  -12.5870 C.3    87  ALA87       0.0290
     61  N         -6.1900  -18.0400   -8.5500 N.3   108  SER108     -0.1202
     62  CA        -7.4990  -18.6790   -8.8430 C.3   108  SER108      0.2020
     63  C         -8.5140  -17.5690   -9.1180 C.2   108  SER108      0.2619
     64  O         -8.2490  -16.3860   -8.9310 O.2   108  SER108     -0.2717
     65  CB        -7.9830  -19.4100   -7.5500 C.3   108  SER108      0.2103
     66  OG        -7.9290  -18.4070   -6.5380 O.3   108  SER108     -0.2182
     67  N         -9.7190  -17.9540   -9.5000 N.am  109  GLY109     -0.1942
     68  CA       -10.7820  -17.0040   -9.8610 C.3   109  GLY109      0.2014
     69  C        -11.5200  -16.3360   -8.6920 C.2   109  GLY109      0.2639
     70  O        -12.5540  -15.7380   -8.9760 O.2   109  GLY109     -0.2714
     71  N        -11.2660  -16.6740   -7.4600 N.am  110  ASN110     -0.1958
     72  CA       -12.0070  -16.0410   -6.3750 C.3   110  ASN110      0.1819
     73  C        -11.6090  -14.6280   -6.0080 C.2   110  ASN110      0.2621
     74  O        -10.5060  -14.1670   -6.2380 O.2   110  ASN110     -0.2715
     75  CB       -12.1550  -16.9060   -5.1520 C.3   110  ASN110      0.1195
     76  CG       -10.8810  -17.0480   -4.3740 C.2   110  ASN110      0.2630
     77  OD1      -10.5830  -16.3010   -3.4470 O.2   110  ASN110     -0.2716
     78  ND2      -10.1390  -18.0580   -4.7220 N.am  110  ASN110     -0.0877
     79  N        -12.5890  -13.9470   -5.4700 N.am  111  TYR111     -0.1960
     80  CA       -12.4820  -12.5510   -5.1310 C.3   111  TYR111      0.1771
     81  C        -11.3770  -12.3470   -4.0970 C.2   111  TYR111      0.2619
     82  O        -10.6210  -11.4280   -4.2420 O.2   111  TYR111     -0.2715
     83  CB       -13.7900  -12.0970   -4.5730 C.3   111  TYR111      0.0574
     84  CG       -14.8440  -11.7590   -5.6080 C.ar  111  TYR111     -0.0198
     85  CD1      -14.4880  -11.2250   -6.8280 C.ar  111  TYR111     -0.0009
     86  CD2      -16.2000  -11.9120   -5.3420 C.ar  111  TYR111     -0.0009
     87  CE1      -15.4470  -10.8500   -7.7330 C.ar  111  TYR111      0.0417
     88  CE2      -17.1700  -11.5340   -6.2860 C.ar  111  TYR111      0.0417
     89  CZ       -16.7680  -11.0410   -7.4800 C.ar  111  TYR111      0.1957
     90  OH       -17.7470  -10.6430   -8.3620 O.3   111  TYR111     -0.2866
     91  N        -11.3100  -13.1620   -3.0190 N.am  112  GLU112     -0.1977
     92  CA       -10.2240  -12.8950   -2.0320 C.3   112  GLU112      0.1602
     93  C         -8.8200  -12.8430   -2.6690 C.2   112  GLU112      0.2287
     94  O         -8.0840  -11.8630   -2.4880 O.2   112  GLU112     -0.2864
     95  CB       -10.3080  -13.8310   -0.8220 C.3   112  GLU112      0.0415
     96  CG       -11.3740  -13.2920    0.1040 C.3   112  GLU112      0.1163
     97  CD       -11.4100  -13.9400    1.4800 C.2   112  GLU112      0.3649
     98  OE1      -11.0440  -15.1460    1.6060 O.co2 112  GLU112     -0.2457
     99  OE2      -11.8310  -13.2260    2.4390 O.co2 112  GLU112     -0.2457
    100  N        -15.5580   -9.5300  -14.1250 N.3   155  ILE155     -0.1245
    101  CA       -16.5190  -10.4640  -13.3940 C.3   155  ILE155      0.1561
    102  C        -17.7310   -9.7540  -12.9550 C.2   155  ILE155      0.2260
    103  O        -18.8500  -10.2800  -13.1590 O.2   155  ILE155     -0.2867
    104  CB       -15.8000  -11.2610  -12.2490 C.3   155  ILE155      0.0252
    105  CG1      -14.7670  -12.1990  -12.8780 C.3   155  ILE155      0.0019
    106  CG2      -16.8220  -11.9840  -11.2610 C.3   155  ILE155      0.0019
    107  CD1      -13.9150  -12.7800  -11.7640 C.3   155  ILE155      0.0001
    108  N        -20.8650  -11.4100  -15.3320 N.3   159  ALA159     -0.1231
    109  CA       -21.4520  -12.4590  -14.4140 C.3   159  ALA159      0.1694
    110  C        -22.2970  -11.8690  -13.3530 C.2   159  ALA159      0.2591
    111  O        -23.4940  -12.2890  -13.2310 O.2   159  ALA159     -0.2718
    112  CB       -20.3860  -13.3530  -13.7750 C.3   159  ALA159      0.0304
    113  N        -21.7810  -10.8670  -12.5900 N.am  160  GLU160     -0.1979
    114  CA       -22.6110  -10.3970  -11.4610 C.3   160  GLU160      0.1602
    115  C        -23.8330   -9.6260  -11.8990 C.2   160  GLU160      0.2287
    116  O        -24.9310   -9.7850  -11.2950 O.2   160  GLU160     -0.2864
    117  CB       -21.7880   -9.5780  -10.3630 C.3   160  GLU160      0.0415
    118  CG       -20.6200  -10.4350   -9.9030 C.3   160  GLU160      0.1163
    119  CD       -20.9320  -11.5210   -8.8810 C.2   160  GLU160      0.3649
    120  OE1      -19.9310  -11.9900   -8.2300 O.co2 160  GLU160     -0.2457
    121  OE2      -22.0780  -11.9700   -8.7580 O.co2 160  GLU160     -0.2457
    122  N        -26.4380  -12.0910  -12.9090 N.3   163  ARG163     -0.1245
    123  CA       -27.1130  -12.6710  -11.7690 C.3   163  ARG163      0.1563
    124  C        -28.1460  -11.7770  -11.1150 C.2   163  ARG163      0.2260
    125  O        -29.1030  -12.2570  -10.4810 O.2   163  ARG163     -0.2867
    126  CB       -26.0170  -13.0610  -10.7180 C.3   163  ARG163      0.0307
    127  CG       -25.2380  -14.2060  -11.2910 C.3   163  ARG163      0.0489
    128  CD       -24.0210  -14.3940  -10.3770 C.3   163  ARG163      0.2205
    129  NE       -23.1670  -15.5390  -10.8000 N.pl3 163  ARG163     -0.0865
    130  CZ       -21.9070  -15.6130  -10.3650 C.cat 163  ARG163      0.5346
    131  NH1      -21.4360  -14.5990   -9.6300 N.pl3 163  ARG163      0.1354
    132  NH2      -21.1300  -16.6310  -10.6160 N.pl3 163  ARG163      0.1354
    133  N        -23.3240   -9.8340   -4.4270 N.3   189  GLU189     -0.1231
    134  CA       -22.3530  -10.7300   -5.0320 C.3   189  GLU189      0.1699
    135  C        -21.9430  -11.7650   -4.0280 C.2   189  GLU189      0.2592
    136  O        -21.8430  -12.9730   -4.3300 O.2   189  GLU189     -0.2718
    137  CB       -21.0620   -9.9630   -5.4510 C.3   189  GLU189      0.0402
    138  CG       -21.2960   -8.9390   -6.5620 C.3   189  GLU189      0.1161
    139  CD       -20.0570   -7.9760   -6.7180 C.2   189  GLU189      0.3649
    140  OE1      -19.1100   -8.1130   -5.8890 O.co2 189  GLU189     -0.2457
    141  OE2      -20.0650   -7.1410   -7.6770 O.co2 189  GLU189     -0.2457
    142  N        -21.7360  -11.3220   -2.7940 N.am  190  ASN190     -0.1974
    143  CA       -21.2960  -12.2360   -1.7130 C.3   190  ASN190      0.1688
    144  C        -22.3720  -13.2760   -1.3150 C.2   190  ASN190      0.2292
    145  O        -22.0720  -14.3820   -0.8490 O.2   190  ASN190     -0.2864
    146  CB       -20.9490  -11.4180   -0.4950 C.3   190  ASN190      0.1181
    147  CG       -19.5680  -10.6980   -0.6250 C.2   190  ASN190      0.2629
    148  OD1      -18.7760  -10.9020   -1.6030 O.2   190  ASN190     -0.2716
    149  ND2      -19.3490   -9.7090    0.3320 N.am  190  ASN190     -0.0877
    150  N        -24.9330  -14.6080   -3.4580 N.3   192  TRP192     -0.1227
    151  CA       -25.5460  -15.3280   -4.5440 C.3   192  TRP192      0.1737
    152  C        -25.7150  -16.7960   -4.2980 C.2   192  TRP192      0.2596
    153  O        -26.7820  -17.3220   -4.4880 O.2   192  TRP192     -0.2718
    154  CB       -24.8400  -15.0800   -5.8570 C.3   192  TRP192      0.0564
    155  CG       -25.5080  -15.7080   -7.0570 C.ar  192  TRP192      0.0003
    156  CD1      -26.7360  -15.4350   -7.5740 C.ar  192  TRP192      0.0946
    157  CD2      -24.9890  -16.7670   -7.8820 C.ar  192  TRP192      0.0152
    158  NE1      -26.9990  -16.2040   -8.6530 N.ar  192  TRP192     -0.2442
    159  CE2      -26.0010  -17.0300   -8.8870 C.ar  192  TRP192      0.0810
    160  CE3      -23.8310  -17.4740   -7.9070 C.ar  192  TRP192      0.0012
    161  CZ2      -25.8250  -17.9640   -9.8470 C.ar  192  TRP192      0.0191
    162  CZ3      -23.6610  -18.4050   -8.8860 C.ar  192  TRP192      0.0001
    163  CH2      -24.6380  -18.6500   -9.8270 C.ar  192  TRP192      0.0015
    164  N        -24.6550  -17.4520   -3.8630 N.am  193  SER193     -0.1952
    165  CA       -24.7480  -18.8470   -3.6070 C.3   193  SER193      0.1924
    166  C        -25.7030  -19.1300   -2.3940 C.2   193  SER193      0.2314
    167  O        -26.6080  -20.0050   -2.4910 O.2   193  SER193     -0.2863
    168  CB       -23.3590  -19.3930   -3.2770 C.3   193  SER193      0.2116
    169  OG       -23.4890  -20.7550   -2.8480 O.3   193  SER193     -0.2180
    170  N        -27.8140  -20.6300   -8.7910 N.3   241  LEU241     -0.1245
    171  CA       -26.7940  -21.6410   -8.7540 C.3   241  LEU241      0.1561
    172  C        -27.4360  -22.9510   -8.2650 C.2   241  LEU241      0.2260
    173  O        -28.0100  -22.9710   -7.1700 O.2   241  LEU241     -0.2867
    174  CB       -25.6950  -21.2160   -7.7800 C.3   241  LEU241      0.0270
    175  CG       -24.5350  -22.1920   -7.6470 C.3   241  LEU241      0.0019
    176  CD1      -23.8780  -22.3980   -9.0580 C.3   241  LEU241      0.0001
    177  CD2      -23.5330  -21.6040   -6.5650 C.3   241  LEU241      0.0001
@<TRIPOS>BOND
     1    32    33    1
     2    32    29    1
     3    30    31    2
     4    30    29    1
     5    33    34    1
     6    28    29    1
     7    28    22   am
     8    26    24    1
     9    25    24    1
    10    25    27    1
    11    21    24    1
    12    21    22    1
    13    21    20    1
    14    59    58    2
    15    22    23    2
    16    11    10    2
    17    34    35    1
    18     6     5    1
    19   108   109    1
    20    36    37    1
    21    10    20   am
    22    10     9    1
    23     2     5    1
    24     2     3    1
    25     2     1    1
    26    58    57    1
    27   109   112    1
    28   109   110    1
    29     5     7    1
    30   100   101    1
    31    39    38    2
    32     3     4    2
    33     3     8   am
    34    37    38    1
    35    37    40    1
    36     8     9    1
    37    43    45   ar
    38    43    41   ar
    39    45    46   ar
    40     9    12    1
    41   101   102    1
    42   101   104    1
    43   110   111    2
    44   110   113   am
    45    57    60    1
    46    57    56    1
    47   103   102    2
    48    40    41    1
    49    41    42   ar
    50    46    44   ar
    51   122   123    1
    52   105   104    1
    53   105   107    1
    54    12    13    1
    55    50    49    2
    56   113   114    1
    57    42    44   ar
    58   104   106    1
    59    54    53   ar
    60   115   114    1
    61   115   116    2
    62   123   124    1
    63   123   126    1
    64    49    48    1
    65   114   117    1
    66    52    53    1
    67    52    51    1
    68    13    14   ar
    69    13    15   ar
    70    47    48    1
    71   127   126    1
    72   127   128    1
    73    53    55   ar
    74   124   125    2
    75   129   128    1
    76   129   130    2
    77    14    16   ar
    78    15    17   ar
    79   132   130    1
    80    48    51    1
    81   130   131    1
    82   117   118    1
    83   118   119    1
    84    68    67    1
    85    68    69    1
    86   161   163   ar
    87   161   159   ar
    88   163   162   ar
    89    67    63   am
    90    17    18   ar
    91    16    18   ar
    92    63    64    2
    93    63    62    1
    94   176   175    1
    95    70    69    2
    96   159   158   ar
    97   159   157   ar
    98   162   160   ar
    99   119   121   ar
   100   119   120   ar
   101    18    19    1
   102    62    61    1
   103    62    65    1
   104   170   171    1
   105   171   172    1
   106   171   174    1
   107    69    71   am
   108   158   156   ar
   109    90    89    1
   110   172   173    2
   111   160   157   ar
   112   157   155   ar
   113   174   175    1
   114    87    89   ar
   115    87    85   ar
   116   141   139   ar
   117   175   177    1
   118   156   155   ar
   119    65    66    1
   120    89    88   ar
   121    71    72    1
   122   155   154    1
   123    85    84   ar
   124   139   138    1
   125   139   140   ar
   126   138   137    1
   127    72    73    1
   128    72    75    1
   129    88    86   ar
   130    74    73    2
   131    73    79   am
   132   154   151    1
   133    84    86   ar
   134    84    83    1
   135    79    80    1
   136   137   134    1
   137    75    76    1
   138    80    83    1
   139    80    81    1
   140   134   133    1
   141   134   135    1
   142    78    76   am
   143   151   152    1
   144   151   150    1
   145   153   152    2
   146    76    77    2
   147   136   135    2
   148   152   164   am
   149    82    81    2
   150    81    91   am
   151   135   142   am
   152   164   165    1
   153   165   168    1
   154   165   166    1
   155   168   169    1
   156    91    92    1
   157   142   143    1
   158    93    94    2
   159    93    92    1
   160   167   166    2
   161    92    95    1
   162   143   144    1
   163   143   146    1
   164   148   147    2
   165   144   145    2
   166    95    96    1
   167   147   146    1
   168   147   149   am
   169    96    97    1
   170    97    98   ar
   171    97    99   ar
