@<TRIPOS>MOLECULE
tmp/4emvA00.pdb
 149 138 0 0 0
SMALL
GASTEIGER

@<TRIPOS>ATOM
      1  N         22.1800   28.9090   -2.4820 N.3    32  ILE32      -0.1245
      2  CA        21.7170   29.9820   -1.5980 C.3    32  ILE32       0.1561
      3  C         20.4440   30.6250   -2.1540 C.2    32  ILE32       0.2260
      4  O         19.4920   30.8800   -1.4090 O.2    32  ILE32      -0.2867
      5  CB        22.8070   31.0500   -1.3580 C.3    32  ILE32       0.0252
      6  CG1       24.0640   30.4110   -0.7400 C.3    32  ILE32       0.0019
      7  CG2       22.2770   32.1600   -0.4630 C.3    32  ILE32       0.0019
      8  CD1       23.8100   29.5710    0.5000 C.3    32  ILE32       0.0001
      9  N         17.3980   28.4930   -1.4330 N.3    35  ASN35      -0.1225
     10  CA        16.8820   28.6770   -0.0680 C.3    35  ASN35       0.1785
     11  C         15.8980   29.8460   -0.0220 C.2    35  ASN35       0.2597
     12  O         14.8400   29.7530    0.5960 O.2    35  ASN35      -0.2718
     13  CB        17.9980   28.9730    0.9370 C.3    35  ASN35       0.1169
     14  CG        18.9850   27.8340    1.0930 C.2    35  ASN35       0.2627
     15  OD1       18.7230   26.7070    0.7000 O.2    35  ASN35      -0.2716
     16  ND2       20.1360   28.1360    1.6930 N.am   35  ASN35      -0.0877
     17  N         16.2660   30.9460   -0.6750 N.am   36  ALA36      -0.1979
     18  CA        15.4330   32.1460   -0.7130 C.3    36  ALA36       0.1597
     19  C         14.1710   31.8910   -1.5270 C.2    36  ALA36       0.2287
     20  O         13.0820   32.3290   -1.1570 O.2    36  ALA36      -0.2864
     21  CB        16.2090   33.3150   -1.3040 C.3    36  ALA36       0.0319
     22  N         11.6460   29.7730    0.4240 N.3    39  GLU39      -0.1245
     23  CA        10.9670   30.6030    1.4170 C.3    39  GLU39       0.1567
     24  C          9.8680   31.4570    0.7740 C.2    39  GLU39       0.2260
     25  O          8.7780   31.5850    1.3300 O.2    39  GLU39      -0.2867
     26  CB        11.9930   31.4800    2.1520 C.3    39  GLU39       0.0388
     27  CG        11.4280   32.4320    3.2050 C.3    39  GLU39       0.1160
     28  CD        10.8770   31.7490    4.4470 C.2    39  GLU39       0.3649
     29  OE1       10.7970   30.5000    4.4940 O.co2  39  GLU39      -0.2457
     30  OE2       10.5280   32.4800    5.4040 O.co2  39  GLU39      -0.2457
     31  N         23.1890   37.1790   -1.2900 N.3    60  VAL60      -0.1245
     32  CA        21.7850   36.9190   -1.5850 C.3    60  VAL60       0.1561
     33  C         20.9760   37.3860   -0.3850 C.2    60  VAL60       0.2260
     34  O         21.2650   36.9870    0.7490 O.2    60  VAL60      -0.2867
     35  CB        21.5050   35.4240   -1.8150 C.3    60  VAL60       0.0252
     36  CG1       20.0320   35.2010   -2.1440 C.3    60  VAL60       0.0019
     37  CG2       22.3920   34.8730   -2.9200 C.3    60  VAL60       0.0019
     38  N         16.9880   37.7970    1.1350 N.3    62  ASP62      -0.1239
     39  CA        15.5550   37.5780    1.0500 C.3    62  ASP62       0.1674
     40  C         14.8430   38.3810    2.1380 C.2    62  ASP62       0.2266
     41  O         15.4760   38.9420    3.0420 O.2    62  ASP62      -0.2867
     42  CB        15.2000   36.0750    1.0710 C.3    62  ASP62       0.1410
     43  CG        15.2660   35.4380    2.4590 C.2    62  ASP62       0.3668
     44  OD1       14.7760   36.0330    3.4380 O.co2  62  ASP62      -0.2456
     45  OD2       15.7630   34.2950    2.5570 O.co2  62  ASP62      -0.2456
     46  N         10.8300   35.0890    6.5650 N.3    65  ARG65      -0.1231
     47  CA        10.6030   35.1450    8.0120 C.3    65  ARG65       0.1694
     48  C         11.8680   35.3950    8.8220 C.2    65  ARG65       0.2593
     49  O         11.7870   35.7760    9.9910 O.2    65  ARG65      -0.2718
     50  CB         9.9780   33.8410    8.5040 C.3    65  ARG65       0.0321
     51  CG         8.5660   33.5990    8.0080 C.3    65  ARG65       0.0489
     52  CD         8.1350   32.1680    8.2700 C.3    65  ARG65       0.2205
     53  NE         8.7920   31.2270    7.3630 N.pl3  65  ARG65      -0.0865
     54  CZ         8.6010   29.9100    7.3610 C.cat  65  ARG65       0.5346
     55  NH1        7.7680   29.3460    8.2340 N.pl3  65  ARG65       0.1354
     56  NH2        9.2520   29.1480    6.4870 N.pl3  65  ARG65       0.1354
     57  N         13.0260   35.1620    8.2090 N.am   66  GLY66      -0.1942
     58  CA        14.2840   35.1050    8.9370 C.3    66  GLY66       0.2014
     59  C         14.4700   33.7010    9.4770 C.2    66  GLY66       0.2639
     60  O         13.5160   33.0860    9.9700 O.2    66  GLY66      -0.2714
     61  N         15.6840   33.1680    9.3750 N.am   67  MET67      -0.1963
     62  CA        15.9690   31.8620    9.9710 C.3    67  MET67       0.1722
     63  C         15.7080   31.9380   11.4740 C.2    67  MET67       0.2458
     64  O         15.8520   33.0090   12.0730 O.2    67  MET67      -0.2730
     65  CB        17.4210   31.4470    9.7230 C.3    67  MET67       0.0427
     66  CG        17.7480   31.1240    8.2790 C.3    67  MET67       0.0599
     67  SD        19.4670   30.6140    8.0770 S.3    67  MET67      -0.1393
     68  CE        19.4080   28.9540    8.7440 C.3    67  MET67       0.0692
     69  N         15.3180   30.8080   12.0960 N.am   68  PRO68      -0.2727
     70  CA        15.1480   30.8080   13.5490 C.3    68  PRO68       0.1402
     71  C         16.4270   31.2310   14.2670 C.2    68  PRO68       0.2269
     72  O         17.5150   30.7880   13.8980 O.2    68  PRO68      -0.2865
     73  CB        14.8110   29.3460   13.8710 C.3    68  PRO68       0.0296
     74  CG        14.2750   28.7830   12.6050 C.3    68  PRO68       0.0237
     75  CD        15.0110   29.4930   11.5050 C.3    68  PRO68       0.0939
     76  N         20.7280   27.3320   16.2310 N.3    78  THR78      -0.1218
     77  CA        20.1490   26.5760   15.1200 C.3    78  THR78       0.1862
     78  C         20.8380   26.9330   13.8010 C.2    78  THR78       0.2287
     79  O         21.1710   26.0540   13.0120 O.2    78  THR78      -0.2866
     80  CB        18.6390   26.8510   14.9990 C.3    78  THR78       0.1770
     81  OG1       17.9930   26.4610   16.2160 O.3    78  THR78      -0.2211
     82  CG2       18.0310   26.0820   13.8360 C.3    78  THR78       0.0375
     83  N         22.7950   24.4100   11.0550 N.3    82  ILE82      -0.1231
     84  CA        22.4430   24.3680    9.6280 C.3    82  ILE82       0.1692
     85  C         23.6570   24.6380    8.7370 C.2    82  ILE82       0.2592
     86  O         23.8140   24.0140    7.6850 O.2    82  ILE82      -0.2718
     87  CB        21.3310   25.3980    9.2890 C.3    82  ILE82       0.0266
     88  CG1       20.0090   25.0270    9.9760 C.3    82  ILE82       0.0019
     89  CG2       21.1030   25.4970    7.7870 C.3    82  ILE82       0.0020
     90  CD1       19.3830   23.7490    9.4640 C.3    82  ILE82       0.0001
     91  N         24.5230   25.5520    9.1650 N.am   83  PHE83      -0.1976
     92  CA        25.6610   25.9610    8.3410 C.3    83  PHE83       0.1639
     93  C         26.9260   25.1140    8.5250 C.2    83  PHE83       0.2290
     94  O         27.8750   25.2720    7.7560 O.2    83  PHE83      -0.2864
     95  CB        25.9770   27.4410    8.5740 C.3    83  PHE83       0.0560
     96  CG        25.1440   28.3740    7.7370 C.ar   83  PHE83      -0.0200
     97  CD1       23.8690   28.7430    8.1410 C.ar   83  PHE83      -0.0042
     98  CD2       25.6320   28.8730    6.5370 C.ar   83  PHE83      -0.0042
     99  CE1       23.0960   29.5960    7.3650 C.ar   83  PHE83      -0.0003
    100  CE2       24.8660   29.7280    5.7600 C.ar   83  PHE83      -0.0003
    101  CZ        23.5970   30.0900    6.1750 C.ar   83  PHE83      -0.0000
    102  N         17.7930   19.9010    6.8260 N.3    90  HIS90      -0.1241
    103  CA        16.5070   20.6030    6.8440 C.3    90  HIS90       0.1621
    104  C         16.2380   21.3950    5.5860 C.2    90  HIS90       0.2264
    105  O         15.7630   22.5310    5.6450 O.2    90  HIS90      -0.2867
    106  CB        16.4100   21.4930    8.0880 C.3    90  HIS90       0.0745
    107  CG        16.5870   20.7390    9.3920 C.ar   90  HIS90       0.0817
    108  ND1       15.6010   20.0080    9.9460 N.ar   90  HIS90      -0.2268
    109  CD2       17.6880   20.6220   10.2420 C.ar   90  HIS90       0.1154
    110  CE1       16.0440   19.4500   11.0910 C.ar   90  HIS90       0.1986
    111  NE2       17.3220   19.8260   11.2710 N.ar   90  HIS90      -0.2212
    112  N         18.1950   22.7160    3.1070 N.3    92  VAL92      -0.1245
    113  CA        19.0730   23.7820    2.6000 C.3    92  VAL92       0.1561
    114  C         20.5040   23.2920    2.3840 C.2    92  VAL92       0.2260
    115  O         20.9820   22.4320    3.1170 O.2    92  VAL92      -0.2867
    116  CB        19.0950   25.0020    3.5470 C.3    92  VAL92       0.0252
    117  CG1       17.6980   25.5950    3.6840 C.3    92  VAL92       0.0019
    118  CG2       19.6560   24.6260    4.9080 C.3    92  VAL92       0.0019
    119  N         23.1830   25.2410    2.6300 N.3    94  SER94      -0.1217
    120  CA        24.0000   26.3010    3.1990 C.3    94  SER94       0.1889
    121  C         25.3380   25.7890    3.7250 C.2    94  SER94       0.2288
    122  O         26.3500   26.4740    3.6150 O.2    94  SER94      -0.2866
    123  CB        23.2350   26.9830    4.3280 C.3    94  SER94       0.2089
    124  OG        22.0100   27.5050    3.8440 O.3    94  SER94      -0.2183
    125  N         14.5840   39.7310   12.4600 N.3   110  ARG110     -0.1245
    126  CA        13.2280   39.3820   12.8890 C.3   110  ARG110      0.1563
    127  C         13.0100   39.7640   14.3460 C.2   110  ARG110      0.2260
    128  O         13.9680   39.8970   15.1140 O.2   110  ARG110     -0.2867
    129  CB        12.9250   37.8880   12.6910 C.3   110  ARG110      0.0307
    130  CG        13.9470   36.9320   13.2930 C.3   110  ARG110      0.0489
    131  CD        13.5990   35.4800   12.9820 C.3   110  ARG110      0.2205
    132  NE        12.4340   35.0000   13.7300 N.pl3 110  ARG110     -0.0865
    133  CZ        11.7240   33.9090   13.4280 C.cat 110  ARG110      0.5346
    134  NH1       12.0330   33.1540   12.3760 N.pl3 110  ARG110      0.1354
    135  NH2       10.6820   33.5700   14.1850 N.pl3 110  ARG110      0.1354
    136  N         16.5650   37.1130    5.6500 N.3   142  THR142     -0.1218
    137  CA        17.8610   36.4600    5.7970 C.3   142  THR142      0.1862
    138  C         18.7680   36.9640    4.6780 C.2   142  THR142      0.2287
    139  O         18.3390   37.0660    3.5250 O.2   142  THR142     -0.2866
    140  CB        17.7400   34.9230    5.7140 C.3   142  THR142      0.1770
    141  OG1       16.8290   34.4540    6.7200 O.3   142  THR142     -0.2211
    142  CG2       19.0990   34.2520    5.9230 C.3   142  THR142      0.0375
    143  N         22.7380   36.2790    3.1310 N.3   144  VAL144     -0.1245
    144  CA        23.9390   35.4480    3.1570 C.3   144  VAL144      0.1561
    145  C         24.9550   36.0170    2.1770 C.2   144  VAL144      0.2260
    146  O         24.6330   36.2440    1.0090 O.2   144  VAL144     -0.2867
    147  CB        23.6250   33.9840    2.7840 C.3   144  VAL144      0.0252
    148  CG1       24.9040   33.1600    2.6770 C.3   144  VAL144      0.0019
    149  CG2       22.6830   33.3630    3.8060 C.3   144  VAL144      0.0019
@<TRIPOS>BOND
     1    37    35    1
     2     1     2    1
     3     3     2    1
     4     3     4    2
     5    36    35    1
     6    35    32    1
     7     2     5    1
     8    32    31    1
     9    32    33    1
    10    19    20    2
    11    19    18    1
    12     9    10    1
    13     5     6    1
    14     5     7    1
    15    21    18    1
    16     6     8    1
    17    18    17    1
    18    17    11   am
    19    33    34    2
    20    10    11    1
    21    10    13    1
    22    11    12    2
    23    22    23    1
    24    15    14    2
    25    24    25    2
    26    24    23    1
    27    13    14    1
    28   146   145    2
    29    39    42    1
    30    39    38    1
    31    39    40    1
    32    42    43    1
    33    14    16   am
    34    23    26    1
    35    40    41    2
    36    26    27    1
    37   145   144    1
    38   114   113    1
    39   114   115    2
    40    43    45   ar
    41    43    44   ar
    42   113   112    1
    43   113   116    1
    44   119   120    1
    45   148   147    1
    46   147   144    1
    47   147   149    1
    48   143   144    1
    49   120   121    1
    50   120   123    1
    51    27    28    1
    52   139   138    2
    53   116   117    1
    54   116   118    1
    55   122   121    2
    56   124   123    1
    57    28    29   ar
    58    28    30   ar
    59   138   137    1
    60   104   105    2
    61   104   103    1
    62   136   137    1
    63   140   137    1
    64   140   142    1
    65   140   141    1
    66   100   101   ar
    67   100    98   ar
    68   101    99   ar
    69    56    54    1
    70    98    96   ar
    71    46    47    1
    72   102   103    1
    73   103   106    1
    74    54    53    2
    75    54    55    1
    76    53    52    1
    77    99    97   ar
    78    86    85    2
    79    96    97   ar
    80    96    95    1
    81    94    93    2
    82    89    87    1
    83    51    52    1
    84    51    50    1
    85    47    50    1
    86    47    48    1
    87    67    66    1
    88    67    68    1
    89   106   107    1
    90    57    48   am
    91    57    58    1
    92    66    65    1
    93    92    93    1
    94    92    95    1
    95    92    91    1
    96    85    91   am
    97    85    84    1
    98    48    49    2
    99    58    59    1
   100    87    84    1
   101    87    88    1
   102    61    59   am
   103    61    62    1
   104   107   108   ar
   105   107   109   ar
   106    90    88    1
   107    59    60    2
   108    84    83    1
   109    65    62    1
   110   108   110   ar
   111    62    63    1
   112   109   111   ar
   113   110   111   ar
   114    63    64    2
   115    63    69   am
   116    75    69    1
   117    75    74    1
   118    69    70    1
   119   134   133    1
   120   125   126    1
   121    74    73    1
   122   129   126    1
   123   129   130    1
   124   126   127    1
   125   131   130    1
   126   131   132    1
   127    79    78    2
   128   133   132    2
   129   133   135    1
   130    70    73    1
   131    70    71    1
   132    78    77    1
   133    82    80    1
   134    72    71    2
   135   127   128    2
   136    80    77    1
   137    80    81    1
   138    77    76    1
