@<TRIPOS>MOLECULE
tmp/4emwA01.pdb
 149 142 0 0 0
SMALL
GASTEIGER

@<TRIPOS>ATOM
      1  N         15.8880    2.0060   32.8500 N.3     9  VAL9       -0.1231
      2  CA        15.8720    2.7640   34.0770 C.3     9  VAL9        0.1692
      3  C         14.8780    2.1790   35.0850 C.2     9  VAL9        0.2591
      4  O         15.0200    1.0020   35.4940 O.2     9  VAL9       -0.2718
      5  CB        15.7300    4.2870   33.8040 C.3     9  VAL9        0.0266
      6  CG1       16.0140    5.0580   35.0900 C.3     9  VAL9        0.0020
      7  CG2       16.6910    4.7450   32.6900 C.3     9  VAL9        0.0020
      8  N         13.8630    2.9380   35.4900 N.am   10  ALA10      -0.1980
      9  CA        13.1530    2.5160   36.6910 C.3    10  ALA10       0.1597
     10  C         12.3900    1.1900   36.5090 C.2    10  ALA10       0.2287
     11  O         12.2850    0.4090   37.4410 O.2    10  ALA10      -0.2864
     12  CB        12.2120    3.6080   37.1890 C.3    10  ALA10       0.0319
     13  N         15.6050   -1.6180   34.0850 N.3    13  ALA13      -0.1231
     14  CA        16.7520   -2.1680   34.7380 C.3    13  ALA13       0.1694
     15  C         16.2910   -2.9280   35.9770 C.2    13  ALA13       0.2592
     16  O         16.7920   -4.0100   36.2920 O.2    13  ALA13      -0.2718
     17  CB        17.7020   -1.0570   35.1180 C.3    13  ALA13       0.0304
     18  N         15.3210   -2.3560   36.6810 N.am   14  THR14      -0.1953
     19  CA        14.7900   -3.0500   37.8130 C.3    14  THR14       0.1897
     20  C         14.2520   -4.4370   37.4520 C.2    14  THR14       0.2313
     21  O         14.5560   -5.4090   38.1200 O.2    14  THR14      -0.2863
     22  CB        13.7000   -2.2320   38.4820 C.3    14  THR14       0.1794
     23  OG1       14.2460   -0.9450   38.8090 O.3    14  THR14      -0.2208
     24  CG2       13.2250   -2.9340   39.7150 C.3    14  THR14       0.0378
     25  N         16.8550   -6.9120   36.6700 N.3    17  SER17      -0.1202
     26  CA        17.5610   -7.2540   37.8730 C.3    17  SER17       0.2020
     27  C         16.8150   -8.2860   38.6670 C.2    17  SER17       0.2618
     28  O         17.4240   -9.2800   39.0830 O.2    17  SER17      -0.2717
     29  CB        17.7370   -5.9990   38.7000 C.3    17  SER17       0.2103
     30  OG        18.5620   -6.2840   39.7710 O.3    17  SER17      -0.2182
     31  N         15.4860   -8.0940   38.7750 N.am   18  GLN18      -0.1979
     32  CA        14.5630   -9.0070   39.4390 C.3    18  GLN18       0.1601
     33  C         14.4210  -10.3590   38.7810 C.2    18  GLN18       0.2287
     34  O         14.2810  -11.3910   39.4990 O.2    18  GLN18      -0.2864
     35  CB        13.1570   -8.4100   39.6130 C.3    18  GLN18       0.0394
     36  CG        13.0760   -7.1290   40.4290 C.3    18  GLN18       0.0908
     37  CD        13.6300   -7.2810   41.8240 C.2    18  GLN18       0.2608
     38  OE1       13.3730   -8.2730   42.4950 O.2    18  GLN18      -0.2717
     39  NE2       14.3950   -6.2800   42.2760 N.am   18  GLN18      -0.0878
     40  N         17.6160  -12.4150   39.6130 N.3    21  ARG21      -0.1245
     41  CA        17.5580  -13.0080   40.9810 C.3    21  ARG21       0.1563
     42  C         16.8420  -14.3680   40.9730 C.2    21  ARG21       0.2260
     43  O         17.2400  -15.2680   41.6980 O.2    21  ARG21      -0.2867
     44  CB        16.8220  -12.1370   42.0040 C.3    21  ARG21       0.0307
     45  CG        17.2520  -10.6990   42.1420 C.3    21  ARG21       0.0489
     46  CD        16.4610  -10.0250   43.2940 C.3    21  ARG21       0.2205
     47  NE        16.4710  -10.8360   44.5260 N.pl3  21  ARG21      -0.0865
     48  CZ        17.3100  -10.6720   45.5520 C.cat  21  ARG21       0.5346
     49  NH1       18.2120   -9.6810   45.5670 N.pl3  21  ARG21       0.1354
     50  NH2       17.2170  -11.4980   46.5870 N.pl3  21  ARG21       0.1354
     51  N         19.9670    3.2700   34.4530 N.3    38  SER38      -0.1202
     52  CA        19.8200    3.2860   35.8930 C.3    38  SER38       0.2020
     53  C         20.1810    4.6100   36.4960 C.2    38  SER38       0.2619
     54  O         20.7010    4.6220   37.5820 O.2    38  SER38      -0.2717
     55  CB        20.7650    2.2510   36.5110 C.3    38  SER38       0.2103
     56  OG        20.2800    0.9670   36.2610 O.3    38  SER38      -0.2182
     57  N         19.9900    5.7370   35.8240 N.am   39  PHE39      -0.1961
     58  CA        20.2660    6.9790   36.5340 C.3    39  PHE39       0.1771
     59  C         19.1130    7.2200   37.5410 C.2    39  PHE39       0.2619
     60  O         18.0240    6.6400   37.4470 O.2    39  PHE39      -0.2715
     61  CB        20.4120    8.1480   35.5630 C.3    39  PHE39       0.0574
     62  CG        19.1960    8.3810   34.7260 C.ar   39  PHE39      -0.0200
     63  CD1       18.1300    9.1430   35.2120 C.ar   39  PHE39      -0.0042
     64  CD2       19.0920    7.8250   33.4560 C.ar   39  PHE39      -0.0042
     65  CE1       16.9750    9.3420   34.4380 C.ar   39  PHE39      -0.0003
     66  CE2       17.9490    8.0220   32.6770 C.ar   39  PHE39      -0.0003
     67  CZ        16.8880    8.7750   33.1630 C.ar   39  PHE39      -0.0000
     68  N         19.3430    8.1000   38.4950 N.am   40  ALA40      -0.1963
     69  CA        18.3440    8.3690   39.4720 C.3    40  ALA40       0.1728
     70  C         17.4970    9.5870   39.0320 C.2    40  ALA40       0.2616
     71  O         17.8950   10.7300   39.3150 O.2    40  ALA40      -0.2715
     72  CB        19.0220    8.5830   40.8210 C.3    40  ALA40       0.0334
     73  N         16.3630    9.3330   38.3390 N.am   41  ASN41      -0.1958
     74  CA        15.4980   10.4310   37.8320 C.3    41  ASN41       0.1819
     75  C         15.0980   11.3780   38.9390 C.2    41  ASN41       0.2621
     76  O         15.0630   12.6050   38.7270 O.2    41  ASN41      -0.2715
     77  CB        14.1520   10.0250   37.2310 C.3    41  ASN41       0.1195
     78  CG        14.0990    8.6010   36.7350 C.2    41  ASN41       0.2630
     79  OD1       14.4680    7.6930   37.4410 O.2    41  ASN41      -0.2716
     80  ND2       13.5890    8.4080   35.5110 N.am   41  ASN41      -0.0877
     81  N         14.8000   10.8130   40.1230 N.am   42  CYS42      -0.1954
     82  CA        14.2690   11.6330   41.1830 C.3    42  CYS42       0.1843
     83  C         15.3000   12.4410   41.9370 C.2    42  CYS42       0.2625
     84  O         14.9220   13.3680   42.6340 O.2    42  CYS42      -0.2714
     85  CB        13.4770   10.8370   42.1590 C.3    42  CYS42       0.0997
     86  SG        12.3040    9.6780   41.3710 S.3    42  CYS42      -0.0797
     87  N         16.5740   12.0620   41.8130 N.am   43  ALA43      -0.1977
     88  CA        17.6860   12.8310   42.3260 C.3    43  ALA43       0.1597
     89  C         17.9780   14.1110   41.5060 C.2    43  ALA43       0.2287
     90  O         18.6430   15.0150   42.0010 O.2    43  ALA43      -0.2864
     91  CB        18.9330   11.9700   42.3700 C.3    43  ALA43       0.0319
     92  N         23.2970    4.7930   39.3100 N.3    60  ALA60      -0.1231
     93  CA        23.5000    3.5750   40.0820 C.3    60  ALA60       0.1694
     94  C         24.3240    2.5520   39.3280 C.2    60  ALA60       0.2592
     95  O         24.9720    1.7090   39.9310 O.2    60  ALA60      -0.2718
     96  CB        22.1770    2.9920   40.5630 C.3    60  ALA60       0.0304
     97  N         24.3290    2.6300   38.0070 N.am   61  TYR61      -0.1976
     98  CA        25.0360    1.6110   37.2520 C.3    61  TYR61       0.1639
     99  C         25.5010    2.0980   35.9340 C.2    61  TYR61       0.2290
    100  O         25.0920    3.1770   35.4460 O.2    61  TYR61      -0.2864
    101  CB        24.1600    0.4000   37.0350 C.3    61  TYR61       0.0560
    102  CG        24.1950   -0.6080   38.1320 C.ar   61  TYR61      -0.0198
    103  CD1       25.2600   -1.5000   38.2430 C.ar   61  TYR61      -0.0009
    104  CD2       23.1470   -0.7130   39.0450 C.ar   61  TYR61      -0.0009
    105  CE1       25.2920   -2.4640   39.2380 C.ar   61  TYR61       0.0417
    106  CE2       23.1590   -1.6790   40.0640 C.ar   61  TYR61       0.0417
    107  CZ        24.2410   -2.5530   40.1490 C.ar   61  TYR61       0.1957
    108  OH        24.2890   -3.5150   41.1270 O.3    61  TYR61      -0.2866
    109  N         26.8820   -3.5950   35.3590 N.3    66  PHE66      -0.1241
    110  CA        25.6640   -4.4130   35.3570 C.3    66  PHE66       0.1605
    111  C         25.9690   -5.7990   34.8270 C.2    66  PHE66       0.2264
    112  O         25.4170   -6.7910   35.2780 O.2    66  PHE66      -0.2867
    113  CB        24.5940   -3.7510   34.4900 C.3    66  PHE66       0.0534
    114  CG        23.1930   -3.8640   35.0360 C.ar   66  PHE66      -0.0203
    115  CD1       22.8220   -3.2170   36.2190 C.ar   66  PHE66      -0.0042
    116  CD2       22.2140   -4.5510   34.3220 C.ar   66  PHE66      -0.0042
    117  CE1       21.5070   -3.2950   36.6970 C.ar   66  PHE66      -0.0003
    118  CE2       20.8920   -4.6300   34.7830 C.ar   66  PHE66      -0.0003
    119  CZ        20.5310   -3.9950   35.9740 C.ar   66  PHE66      -0.0000
    120  N         25.5620   -8.6740   37.4730 N.3    70  LYS70      -0.1245
    121  CA        24.3240   -9.4670   37.2570 C.3    70  LYS70       0.1561
    122  C         24.2710  -10.2330   35.9480 C.2    70  LYS70       0.2260
    123  O         23.2580  -10.8830   35.6780 O.2    70  LYS70      -0.2867
    124  CB        23.0490   -8.6010   37.3470 C.3    70  LYS70       0.0271
    125  CG        22.9050   -7.6950   38.5720 C.3    70  LYS70       0.0035
    126  CD        21.8310   -6.6310   38.3210 C.3    70  LYS70       0.0206
    127  CE        21.4560   -5.8610   39.5930 C.3    70  LYS70       0.1093
    128  NZ        21.0890   -6.7400   40.7340 N.3    70  LYS70      -0.1314
    129  N          7.3710    6.1330   40.7930 N.3   294  ALA294     -0.1245
    130  CA         8.4440    5.1340   40.9500 C.3   294  ALA294      0.1562
    131  C          7.9500    3.7990   41.5470 C.2   294  ALA294      0.2260
    132  O          8.2300    2.7280   41.0110 O.2   294  ALA294     -0.2867
    133  CB         9.5850    5.7330   41.7660 C.3   294  ALA294      0.0290
    134  N          8.6060    0.0010   40.1040 N.3   298  HIS298     -0.1241
    135  CA         9.3340   -1.0720   40.7930 C.3   298  HIS298      0.1621
    136  C          8.4530   -2.2450   41.1290 C.2   298  HIS298      0.2264
    137  O          8.9370   -3.3890   41.2340 O.2   298  HIS298     -0.2867
    138  CB         9.9230   -0.4930   42.0650 C.3   298  HIS298      0.0745
    139  CG        11.2180    0.2540   41.8580 C.ar  298  HIS298      0.0817
    140  ND1       12.3920   -0.2020   42.3360 N.ar  298  HIS298     -0.2268
    141  CD2       11.4920    1.4650   41.2270 C.ar  298  HIS298      0.1154
    142  CE1       13.3840    0.6540   41.9970 C.ar  298  HIS298      0.1986
    143  NE2       12.8380    1.6820   41.3290 N.ar  298  HIS298     -0.2212
    144  N          8.7240   -6.2510   39.6800 N.3   302  SER302     -0.1217
    145  CA         8.7760   -7.4870   40.4820 C.3   302  SER302      0.1889
    146  C          7.7010   -8.4150   40.0460 C.2   302  SER302      0.2288
    147  O          7.8880   -9.6510   40.0940 O.2   302  SER302     -0.2866
    148  CB         8.6310   -7.2100   41.9770 C.3   302  SER302      0.2089
    149  OG         9.8490   -6.6410   42.4510 O.3   302  SER302     -0.2183
@<TRIPOS>BOND
     1    66    67   ar
     2    66    64   ar
     3     7     5    1
     4     1     2    1
     5    67    65   ar
     6    64    62   ar
     7     5     2    1
     8     5     6    1
     9     2     3    1
    10    13    14    1
    11   116   118   ar
    12   116   114   ar
    13    65    63   ar
    14    51    52    1
    15   113   114    1
    16   113   110    1
    17    62    63   ar
    18    62    61    1
    19    14    17    1
    20    14    15    1
    21   118   119   ar
    22   111   112    2
    23   111   110    1
    24   114   115   ar
    25     3     8   am
    26     3     4    2
    27   110   109    1
    28   100    99    2
    29     8     9    1
    30    80    78   am
    31    61    58    1
    32   123   122    2
    33    57    53   am
    34    57    58    1
    35    52    53    1
    36    52    55    1
    37    99    98    1
    38   122   121    1
    39   119   117   ar
    40    15    16    2
    41    15    18   am
    42   115   117   ar
    43    56    55    1
    44    53    54    2
    45    10     9    1
    46    10    11    2
    47    58    59    1
    48    25    26    1
    49    18    19    1
    50     9    12    1
    51    78    77    1
    52    78    79    2
    53   101    98    1
    54   101   102    1
    55    77    74    1
    56    98    97    1
    57   121   124    1
    58   121   120    1
    59   124   125    1
    60    60    59    2
    61    20    19    1
    62    20    21    2
    63    59    68   am
    64    19    22    1
    65    74    73    1
    66    74    75    1
    67    26    27    1
    68    26    29    1
    69    97    94   am
    70   102   103   ar
    71   102   104   ar
    72   103   105   ar
    73   126   125    1
    74   126   127    1
    75    73    70   am
    76    22    23    1
    77    22    24    1
    78    68    69    1
    79    27    31   am
    80    27    28    2
    81    29    30    1
    82    76    75    2
    83    31    32    1
    84    33    32    1
    85    33    34    2
    86    75    81   am
    87    70    71    2
    88    70    69    1
    89   104   106   ar
    90   105   107   ar
    91    92    93    1
    92    94    95    2
    93    94    93    1
    94    32    35    1
    95    69    72    1
    96   127   128    1
    97    35    36    1
    98    40    41    1
    99   144   145    1
   100   146   147    2
   101   146   145    1
   102   106   107   ar
   103    93    96    1
   104   134   135    1
   105    81    82    1
   106   107   108    1
   107    36    37    1
   108   145   148    1
   109   135   136    1
   110   135   138    1
   111   129   130    1
   112   130   131    1
   113   130   133    1
   114    42    41    1
   115    42    43    2
   116    41    44    1
   117   132   131    2
   118   136   137    2
   119    82    83    1
   120    82    85    1
   121   141   143   ar
   122   141   139   ar
   123   143   142   ar
   124    86    85    1
   125    89    90    2
   126    89    88    1
   127    87    83   am
   128    87    88    1
   129    37    39   am
   130    37    38    2
   131   139   138    1
   132   139   140   ar
   133    83    84    2
   134   148   149    1
   135   142   140   ar
   136    44    45    1
   137    45    46    1
   138    88    91    1
   139    46    47    1
   140    47    48    2
   141    48    49    1
   142    48    50    1
