@<TRIPOS>MOLECULE
tmp/4emwB02.pdb
 149 142 0 0 0
SMALL
GASTEIGER

@<TRIPOS>ATOM
      1  N         -7.5000   11.2970   85.7520 N.3     9  VAL9       -0.1231
      2  CA        -6.4670   11.5690   84.7290 C.3     9  VAL9        0.1692
      3  C         -6.7790   10.9030   83.3590 C.2     9  VAL9        0.2591
      4  O         -7.8910   10.9800   82.8880 O.2     9  VAL9       -0.2718
      5  CB        -5.0450   11.2260   85.2650 C.3     9  VAL9        0.0266
      6  CG1       -3.9510   11.9640   84.4730 C.3     9  VAL9        0.0020
      7  CG2       -4.9540   11.6200   86.7210 C.3     9  VAL9        0.0020
      8  N         -5.8210   10.2030   82.7710 N.am   10  ALA10      -0.1980
      9  CA        -5.9280    9.6400   81.4050 C.3    10  ALA10       0.1597
     10  C         -7.1860    8.8280   81.1330 C.2    10  ALA10       0.2287
     11  O         -7.8380    9.0100   80.1070 O.2    10  ALA10      -0.2864
     12  CB        -4.6990    8.8050   81.0490 C.3    10  ALA10       0.0319
     13  N        -10.5790   11.0720   83.6520 N.3    13  ALA13      -0.1231
     14  CA       -11.0960   12.4070   83.2790 C.3    13  ALA13       0.1694
     15  C        -11.6070   12.3800   81.8380 C.2    13  ALA13       0.2592
     16  O        -12.6230   12.9820   81.4930 O.2    13  ALA13      -0.2718
     17  CB       -10.0180   13.4950   83.4660 C.3    13  ALA13       0.0304
     18  N        -10.8650   11.6690   80.9980 N.am   14  THR14      -0.1953
     19  CA       -11.2260   11.5220   79.6040 C.3    14  THR14       0.1897
     20  C        -12.5660   10.8490   79.5030 C.2    14  THR14       0.2313
     21  O        -13.4030   11.3030   78.7630 O.2    14  THR14      -0.2863
     22  CB       -10.1720   10.7000   78.8580 C.3    14  THR14       0.1794
     23  OG1       -8.8580   11.2910   79.0600 O.3    14  THR14      -0.2208
     24  CG2      -10.4780   10.6610   77.3990 C.3    14  THR14       0.0378
     25  N        -15.4560   12.9650   80.5450 N.3    17  SER17      -0.1202
     26  CA       -15.6640   14.0080   79.5850 C.3    17  SER17       0.2020
     27  C        -16.3940   13.4850   78.3300 C.2    17  SER17       0.2618
     28  O        -17.2960   14.1480   77.8140 O.2    17  SER17      -0.2717
     29  CB       -14.3320   14.6840   79.2260 C.3    17  SER17       0.2103
     30  OG       -14.5150   15.4750   78.0840 O.3    17  SER17      -0.2182
     31  N        -16.0180   12.2980   77.8550 N.am   18  GLN18      -0.1979
     32  CA       -16.7410   11.6390   76.7490 C.3    18  GLN18       0.1601
     33  C        -18.2050   11.3220   77.0980 C.2    18  GLN18       0.2287
     34  O        -19.0840   11.3680   76.2240 O.2    18  GLN18      -0.2864
     35  CB       -16.0320   10.3390   76.3010 C.3    18  GLN18       0.0394
     36  CG       -14.6200   10.4880   75.7370 C.3    18  GLN18       0.0908
     37  CD       -14.5160   11.4560   74.5690 C.2    18  GLN18       0.2608
     38  OE1      -15.2290   11.3330   73.5740 O.2    18  GLN18      -0.2717
     39  NE2      -13.6050   12.4350   74.6870 N.am   18  GLN18      -0.0878
     40  N        -20.2940   14.4230   76.7570 N.3    21  ARG21      -0.1245
     41  CA       -20.5770   14.7150   75.3540 C.3    21  ARG21       0.1563
     42  C        -21.8820   14.0970   74.8940 C.2    21  ARG21       0.2260
     43  O        -22.6050   14.7500   74.1890 O.2    21  ARG21      -0.2867
     44  CB       -19.4650   14.2200   74.4310 C.3    21  ARG21       0.0307
     45  CG       -18.2640   15.1090   74.4170 C.3    21  ARG21       0.0489
     46  CD       -17.2570   14.5360   73.4570 C.3    21  ARG21       0.2205
     47  NE       -17.4930   15.0400   72.1100 N.pl3  21  ARG21      -0.0865
     48  CZ       -16.9800   16.1750   71.6510 C.cat  21  ARG21       0.5346
     49  NH1      -16.2030   16.9160   72.4280 N.pl3  21  ARG21       0.1354
     50  NH2      -17.2280   16.5610   70.4140 N.pl3  21  ARG21       0.1354
     51  N         -6.2550   15.6320   85.5150 N.3    38  SER38      -0.1202
     52  CA        -5.7360   15.8110   84.1350 C.3    38  SER38       0.2020
     53  C         -4.3870   16.5170   83.9960 C.2    38  SER38       0.2619
     54  O         -4.2110   17.4700   83.1890 O.2    38  SER38      -0.2717
     55  CB        -6.7900   16.4060   83.1950 C.3    38  SER38       0.2103
     56  OG        -7.4470   17.4690   83.7830 O.3    38  SER38      -0.2182
     57  N         -3.4320   16.0530   84.8090 N.am   39  PHE39      -0.1961
     58  CA        -2.0540   16.4320   84.5700 C.3    39  PHE39       0.1771
     59  C         -1.5890   15.6950   83.3210 C.2    39  PHE39       0.2619
     60  O         -2.1360   14.6580   82.9260 O.2    39  PHE39      -0.2715
     61  CB        -1.1170   16.2400   85.8090 C.3    39  PHE39       0.0574
     62  CG        -1.0400   14.8200   86.3300 C.ar   39  PHE39      -0.0200
     63  CD1       -0.1270   13.9190   85.8010 C.ar   39  PHE39      -0.0042
     64  CD2       -1.8910   14.3800   87.3470 C.ar   39  PHE39      -0.0042
     65  CE1       -0.0490   12.6030   86.2600 C.ar   39  PHE39      -0.0003
     66  CE2       -1.8290   13.0580   87.8040 C.ar   39  PHE39      -0.0003
     67  CZ        -0.9060   12.1660   87.2640 C.ar   39  PHE39      -0.0000
     68  N         -0.5740   16.2470   82.6830 N.am   40  ALA40      -0.1963
     69  CA        -0.0550   15.6610   81.5010 C.3    40  ALA40       0.1728
     70  C          1.0690   14.6510   81.8950 C.2    40  ALA40       0.2616
     71  O          2.2350   15.0230   82.0190 O.2    40  ALA40      -0.2715
     72  CB         0.4050   16.7870   80.5800 C.3    40  ALA40       0.0334
     73  N          0.7110   13.3860   82.1470 N.am   41  ASN41      -0.1958
     74  CA         1.7070   12.3980   82.6590 C.3    41  ASN41       0.1819
     75  C          2.9360   12.3560   81.8060 C.2    41  ASN41       0.2621
     76  O          4.0210   12.3750   82.3290 O.2    41  ASN41      -0.2715
     77  CB         1.1900   10.9400   82.6980 C.3    41  ASN41       0.1195
     78  CG        -0.2970   10.8540   82.8480 C.2    41  ASN41       0.2630
     79  OD1       -1.0610   11.5130   82.1170 O.2    41  ASN41      -0.2716
     80  ND2       -0.7290   10.0480   83.7840 N.am   41  ASN41      -0.0877
     81  N          2.7390   12.2710   80.4880 N.am   42  CYS42      -0.1954
     82  CA         3.8220   12.1050   79.5100 C.3    42  CYS42       0.1843
     83  C          4.6550   13.3600   79.3120 C.2    42  CYS42       0.2625
     84  O          5.7290   13.3100   78.7410 O.2    42  CYS42      -0.2714
     85  CB         3.2440   11.6750   78.1700 C.3    42  CYS42       0.0997
     86  SG         2.1240   10.3220   77.9950 S.3    42  CYS42      -0.0797
     87  N          4.1630   14.4880   79.7700 N.am   43  ALA43      -0.1977
     88  CA         4.8870   15.7220   79.6440 C.3    43  ALA43       0.1597
     89  C          5.8820   15.8660   80.7810 C.2    43  ALA43       0.2287
     90  O          6.8330   16.6330   80.6730 O.2    43  ALA43      -0.2864
     91  CB         3.9210   16.8980   79.6650 C.3    43  ALA43       0.0319
     92  N         -4.1990   20.2460   82.3930 N.3    60  ALA60      -0.1231
     93  CA        -5.2310   20.5990   81.4250 C.3    60  ALA60       0.1694
     94  C         -6.4400   21.2330   82.0960 C.2    60  ALA60       0.2592
     95  O         -7.0430   22.1430   81.5380 O.2    60  ALA60      -0.2718
     96  CB        -5.6400   19.3830   80.6040 C.3    60  ALA60       0.0304
     97  N         -6.7800   20.7580   83.2940 N.am   61  TYR61      -0.1976
     98  CA        -7.8820   21.3100   84.0610 C.3    61  TYR61       0.1639
     99  C         -7.6190   21.4490   85.5680 C.2    61  TYR61       0.2290
    100  O         -6.7120   20.8200   86.1390 O.2    61  TYR61      -0.2864
    101  CB        -9.1350   20.4360   83.8450 C.3    61  TYR61       0.0560
    102  CG        -9.8620   20.6970   82.5370 C.ar   61  TYR61      -0.0198
    103  CD1      -10.8440   21.6890   82.4490 C.ar   61  TYR61      -0.0009
    104  CD2       -9.5630   19.9680   81.3920 C.ar   61  TYR61      -0.0009
    105  CE1      -11.5000   21.9520   81.2560 C.ar   61  TYR61       0.0417
    106  CE2      -10.2280   20.2230   80.1960 C.ar   61  TYR61       0.0417
    107  CZ       -11.1950   21.2110   80.1390 C.ar   61  TYR61       0.1957
    108  OH       -11.8650   21.4590   78.9560 O.3    61  TYR61      -0.2866
    109  N        -13.1040   22.3790   85.2000 N.3    66  PHE66      -0.1241
    110  CA       -13.8080   21.2220   84.7740 C.3    66  PHE66       0.1605
    111  C        -15.3110   21.2630   85.0830 C.2    66  PHE66       0.2264
    112  O        -16.1450   20.8170   84.2730 O.2    66  PHE66      -0.2867
    113  CB       -13.2000   20.0050   85.4390 C.3    66  PHE66       0.0534
    114  CG       -13.2490   18.7890   84.6000 C.ar   66  PHE66      -0.0203
    115  CD1      -12.4700   18.7080   83.4190 C.ar   66  PHE66      -0.0042
    116  CD2      -14.0400   17.7130   84.9740 C.ar   66  PHE66      -0.0042
    117  CE1      -12.4890   17.5540   82.6390 C.ar   66  PHE66      -0.0003
    118  CE2      -14.0610   16.5490   84.1880 C.ar   66  PHE66      -0.0003
    119  CZ       -13.2820   16.4700   83.0200 C.ar   66  PHE66      -0.0000
    120  N        -17.7120   21.5230   81.9430 N.3    70  LYS70      -0.1245
    121  CA       -18.3940   20.2480   81.7030 C.3    70  LYS70       0.1561
    122  C        -19.4940   19.8630   82.7040 C.2    70  LYS70       0.2260
    123  O        -20.2630   18.9610   82.4080 O.2    70  LYS70      -0.2867
    124  CB       -17.3710   19.1120   81.5290 C.3    70  LYS70       0.0271
    125  CG       -16.4290   19.3230   80.3350 C.3    70  LYS70       0.0035
    126  CD       -15.2260   18.3690   80.3280 C.3    70  LYS70       0.0206
    127  CE       -14.3130   18.5320   79.1050 C.3    70  LYS70       0.1093
    128  NZ       -14.9930   18.1560   77.8480 N.3    70  LYS70      -0.1314
    129  N         -1.0980    5.3230   76.8350 N.3   294  ALA294     -0.1245
    130  CA        -2.0640    6.4270   76.7710 C.3   294  ALA294      0.1562
    131  C         -3.2270    6.1940   75.7650 C.2   294  ALA294      0.2260
    132  O         -4.4250    6.4950   76.0360 O.2   294  ALA294     -0.2867
    133  CB        -1.3000    7.6910   76.4380 C.3   294  ALA294      0.0290
    134  N         -7.3830    6.1060   76.4370 N.3   298  HIS298     -0.1241
    135  CA        -8.2890    7.0100   75.6950 C.3   298  HIS298      0.1621
    136  C         -9.2950    6.2470   74.9050 C.2   298  HIS298      0.2264
    137  O        -10.4560    6.6520   74.7980 O.2   298  HIS298     -0.2867
    138  CB        -7.5370    7.9500   74.8060 C.3   298  HIS298      0.0745
    139  CG        -6.9250    9.0980   75.5360 C.ar  298  HIS298      0.0817
    140  ND1       -7.3480   10.3820   75.3690 N.ar  298  HIS298     -0.2268
    141  CD2       -5.8820    9.1490   76.4370 C.ar  298  HIS298      0.1154
    142  CE1       -6.6150   11.1950   76.1190 C.ar  298  HIS298      0.1986
    143  NE2       -5.7180   10.4440   76.7860 N.ar  298  HIS298     -0.2212
    144  N        -13.5200    6.2320   75.4980 N.3   302  SER302     -0.1217
    145  CA       -14.5290    6.3720   74.4310 C.3   302  SER302      0.1889
    146  C        -15.5450    5.2310   74.3320 C.2   302  SER302      0.2288
    147  O        -16.7290    5.4850   74.2320 O.2   302  SER302     -0.2866
    148  CB       -13.8240    6.5800   73.1110 C.3   302  SER302      0.2089
    149  OG       -13.3090    7.9010   73.1360 O.3   302  SER302     -0.2183
@<TRIPOS>BOND
     1    50    48    1
     2    48    47    2
     3    48    49    1
     4    47    46    1
     5   148   149    1
     6   148   145    1
     7    46    45    1
     8    38    37    2
     9    43    42    2
    10   147   146    2
    11   146   145    1
    12    45    44    1
    13    44    41    1
    14   145   144    1
    15    37    39   am
    16    37    36    1
    17   137   136    2
    18   138   139    1
    19   138   135    1
    20    42    41    1
    21   136   135    1
    22    41    40    1
    23   140   139   ar
    24   140   142   ar
    25   139   141   ar
    26   135   134    1
    27    36    35    1
    28   131   132    2
    29   131   130    1
    30   142   143   ar
    31    34    33    2
    32    35    32    1
    33   141   143   ar
    34   133   130    1
    35    32    33    1
    36    32    31    1
    37   130   129    1
    38    24    22    1
    39    28    27    2
    40   128   127    1
    41    31    27   am
    42    86    85    1
    43    30    29    1
    44    85    82    1
    45    27    26    1
    46    84    83    2
    47    21    20    2
    48    22    23    1
    49    22    19    1
    50   108   107    1
    51   127   126    1
    52    29    26    1
    53    83    82    1
    54    83    87   am
    55    20    19    1
    56    82    81    1
    57    26    25    1
    58    19    18    1
    59    88    91    1
    60    88    87    1
    61    88    89    1
    62    11    10    2
    63   107   106   ar
    64   107   105   ar
    65   106   104   ar
    66   126   125    1
    67   125   124    1
    68    81    75   am
    69    72    69    1
    70    96    93    1
    71    90    89    2
    72    18    15   am
    73    12     9    1
    74    10     9    1
    75   105   103   ar
    76   104   102   ar
    77     9     8    1
    78    93    94    1
    79    93    92    1
    80    16    15    2
    81    69    70    1
    82    69    68    1
    83   124   121    1
    84    95    94    2
    85   121   120    1
    86   121   122    1
    87    75    76    2
    88    75    74    1
    89    15    14    1
    90    70    71    2
    91    70    73   am
    92    94    97   am
    93    79    78    2
    94    73    74    1
    95   123   122    2
    96   103   102   ar
    97   102   101    1
    98   117   119   ar
    99   117   115   ar
   100    74    77    1
   101    68    59   am
   102    77    78    1
   103     8     3   am
   104    78    80   am
   105     4     3    2
   106    60    59    2
   107   119   118   ar
   108    54    53    2
   109    55    56    1
   110    55    52    1
   111    14    17    1
   112    14    13    1
   113    97    98    1
   114    59    58    1
   115     3     2    1
   116   115   114   ar
   117   101    98    1
   118    53    52    1
   119    53    57   am
   120    98    99    1
   121    52    51    1
   122   118   116   ar
   123   112   111    2
   124     6     5    1
   125    58    57    1
   126    58    61    1
   127   114   116   ar
   128   114   113    1
   129     2     5    1
   130     2     1    1
   131   110   111    1
   132   110   109    1
   133   110   113    1
   134     5     7    1
   135    99   100    2
   136    63    65   ar
   137    63    62   ar
   138    61    62    1
   139    65    67   ar
   140    62    64   ar
   141    67    66   ar
   142    64    66   ar
