@<TRIPOS>MOLECULE
tmp/4emyB00.pdb
 138 130 0 0 0
SMALL
GASTEIGER

@<TRIPOS>ATOM
      1  N         51.8950   96.5150  164.1130 N.3    40  GLY40      -0.1225
      2  CA        52.3770   96.5380  165.4880 C.3    40  GLY40       0.1811
      3  C         53.5770   95.6610  165.7700 C.2    40  GLY40       0.2280
      4  O         53.4750   94.6680  166.4900 O.2    40  GLY40      -0.2866
      5  N         50.8450   81.6480  171.0470 N.3   103  GLY103     -0.1210
      6  CA        50.7870   83.0680  171.3810 C.3   103  GLY103      0.1956
      7  C         49.6170   83.4090  172.2840 C.2   103  GLY103      0.2612
      8  O         48.8970   82.5190  172.7450 O.2   103  GLY103     -0.2717
      9  N         49.4330   84.7020  172.5430 N.am  104  GLY104     -0.1942
     10  CA        48.3040   85.1820  173.3320 C.3   104  GLY104      0.2014
     11  C         46.9590   84.8320  172.7130 C.2   104  GLY104      0.2639
     12  O         45.9970   84.5440  173.4300 O.2   104  GLY104     -0.2714
     13  N         46.9130   84.8440  171.3790 N.am  105  THR105     -0.1950
     14  CA        45.7360   84.4650  170.6020 C.3   105  THR105      0.1897
     15  C         45.1500   83.1220  171.0450 C.2   105  THR105      0.2313
     16  O         43.9350   83.0020  171.2390 O.2   105  THR105     -0.2863
     17  CB        46.0570   84.4460  169.0950 C.3   105  THR105      0.1794
     18  OG1       46.6040   85.7150  168.7240 O.3   105  THR105     -0.2208
     19  CG2       44.8140   84.1820  168.2560 C.3   105  THR105      0.0378
     20  N         43.4420   83.4520  174.3940 N.3   108  ILE108     -0.1245
     21  CA        42.2050   84.2290  174.3260 C.3   108  ILE108      0.1561
     22  C         41.0480   83.4020  173.7630 C.2   108  ILE108      0.2260
     23  O         39.9820   83.3070  174.3790 O.2   108  ILE108     -0.2867
     24  CB        42.4250   85.5370  173.5500 C.3   108  ILE108      0.0252
     25  CG1       43.0490   86.5580  174.4960 C.3   108  ILE108      0.0019
     26  CG2       41.1160   86.0810  172.9900 C.3   108  ILE108      0.0019
     27  CD1       44.1720   87.3420  173.8680 C.3   108  ILE108      0.0001
     28  N         40.9490   95.0130  169.8140 N.3   129  TRP129     -0.1241
     29  CA        41.6440   94.1870  168.8440 C.3   129  TRP129      0.1605
     30  C         40.6300   93.3130  168.1500 C.2   129  TRP129      0.2264
     31  O         39.9170   92.5420  168.7980 O.2   129  TRP129     -0.2867
     32  CB        42.7000   93.3770  169.5800 C.3   129  TRP129      0.0550
     33  CG        43.6440   92.5990  168.7140 C.ar  129  TRP129      0.0003
     34  CD1       44.3610   93.0490  167.6160 C.ar  129  TRP129      0.0946
     35  CD2       44.0430   91.1950  168.8810 C.ar  129  TRP129      0.0152
     36  NE1       45.1350   92.0440  167.0930 N.ar  129  TRP129     -0.2442
     37  CE2       44.9930   90.9080  167.8080 C.ar  129  TRP129      0.0810
     38  CE3       43.7050   90.1830  169.7700 C.ar  129  TRP129      0.0012
     39  CZ2       45.5690   89.6570  167.6520 C.ar  129  TRP129      0.0191
     40  CZ3       44.2930   88.9270  169.6030 C.ar  129  TRP129      0.0001
     41  CH2       45.2030   88.6720  168.5690 C.ar  129  TRP129      0.0015
     42  N         38.9270   89.4860  168.7370 N.3   132  TYR132     -0.1241
     43  CA        38.0050   89.1540  169.8320 C.3   132  TYR132      0.1605
     44  C         36.5980   88.9030  169.2730 C.2   132  TYR132      0.2264
     45  O         35.9900   87.8570  169.5290 O.2   132  TYR132     -0.2867
     46  CB        37.9330   90.2640  170.8900 C.3   132  TYR132      0.0534
     47  CG        39.2190   90.6620  171.6040 C.ar  132  TYR132     -0.0201
     48  CD1       40.1410   89.7110  172.0570 C.ar  132  TYR132     -0.0009
     49  CD2       39.4810   92.0080  171.8770 C.ar  132  TYR132     -0.0009
     50  CE1       41.2960   90.0950  172.7270 C.ar  132  TYR132      0.0417
     51  CE2       40.6290   92.3990  172.5440 C.ar  132  TYR132      0.0417
     52  CZ        41.5330   91.4450  172.9680 C.ar  132  TYR132      0.1957
     53  OH        42.6690   91.8620  173.6290 O.3   132  TYR132     -0.2866
     54  N         41.6950   94.4830  177.9260 N.3   179  ASN179     -0.1240
     55  CA        43.0150   94.4690  177.3240 C.3   179  ASN179      0.1653
     56  C         43.8220   95.6190  177.9030 C.2   179  ASN179      0.2266
     57  O         43.8270   96.7290  177.3640 O.2   179  ASN179     -0.2867
     58  CB        42.9130   94.5560  175.7960 C.3   179  ASN179      0.1155
     59  CG        44.2650   94.6770  175.1170 C.2   179  ASN179      0.2627
     60  OD1       44.4100   95.4060  174.1330 O.2   179  ASN179     -0.2716
     61  ND2       45.2660   93.9760  175.6430 N.am  179  ASN179     -0.0877
     62  N         45.7370   97.8290  172.9220 N.3   184  ASN184     -0.1240
     63  CA        45.6860   97.9770  171.4680 C.3   184  ASN184      0.1653
     64  C         44.2170   98.1970  171.1540 C.2   184  ASN184      0.2266
     65  O         43.4020   97.3460  171.5040 O.2   184  ASN184     -0.2867
     66  CB        46.1930   96.6870  170.8050 C.3   184  ASN184      0.1155
     67  CG        46.2120   96.7490  169.2860 C.2   184  ASN184      0.2627
     68  OD1       46.0260   97.8050  168.6830 O.2   184  ASN184     -0.2716
     69  ND2       46.4530   95.6000  168.6580 N.am  184  ASN184     -0.0877
     70  N         43.9460   90.5570  178.9090 N.3   218  ASP218     -0.1239
     71  CA        44.9180   90.3850  177.8420 C.3   218  ASP218      0.1674
     72  C         46.1330   91.2540  178.1290 C.2   218  ASP218      0.2266
     73  O         46.0750   92.4800  178.0070 O.2   218  ASP218     -0.2867
     74  CB        44.2890   90.7500  176.4990 C.3   218  ASP218      0.1410
     75  CG        45.1740   90.4000  175.3160 C.2   218  ASP218      0.3668
     76  OD1       46.3640   90.0640  175.5120 O.co2 218  ASP218     -0.2456
     77  OD2       44.6690   90.4610  174.1750 O.co2 218  ASP218     -0.2456
     78  N         49.3780   91.0520  176.7770 N.3   220  ALA220     -0.1231
     79  CA        50.4460   90.9670  175.7780 C.3   220  ALA220      0.1694
     80  C         51.4600   92.1140  175.8600 C.2   220  ALA220      0.2592
     81  O         52.6630   91.9080  175.6710 O.2   220  ALA220     -0.2718
     82  CB        49.8470   90.8890  174.3840 C.3   220  ALA220      0.0304
     83  N         50.9740   93.3150  176.1630 N.am  221  TYR221     -0.1976
     84  CA        51.8200   94.5080  176.1780 C.3   221  TYR221      0.1639
     85  C         52.3570   94.8520  177.5700 C.2   221  TYR221      0.2290
     86  O         52.8540   95.9590  177.7930 O.2   221  TYR221     -0.2864
     87  CB        51.0680   95.6950  175.5500 C.3   221  TYR221      0.0560
     88  CG        50.6810   95.4390  174.1120 C.ar  221  TYR221     -0.0198
     89  CD1       51.5990   95.6290  173.0800 C.ar  221  TYR221     -0.0009
     90  CD2       49.4090   94.9740  173.7850 C.ar  221  TYR221     -0.0009
     91  CE1       51.2580   95.3740  171.7630 C.ar  221  TYR221      0.0417
     92  CE2       49.0560   94.7150  172.4720 C.ar  221  TYR221      0.0417
     93  CZ        49.9820   94.9190  171.4650 C.ar  221  TYR221      0.1957
     94  OH        49.6380   94.6680  170.1580 O.3   221  TYR221     -0.2866
     95  N         51.7030   86.2530  176.5050 N.3   252  SER252     -0.1217
     96  CA        52.3150   86.0820  175.1880 C.3   252  SER252      0.1889
     97  C         53.7890   86.4560  175.2180 C.2   252  SER252      0.2288
     98  O         54.1890   87.3540  175.9570 O.2   252  SER252     -0.2866
     99  CB        51.5950   86.9370  174.1490 C.3   252  SER252      0.2089
    100  OG        52.2710   86.8990  172.9050 O.3   252  SER252     -0.2183
    101  N         55.1640   87.1070  172.2660 N.3   253  SER253     -0.1202
    102  CA        55.2490   87.8270  171.0040 C.3   253  SER253      0.2020
    103  C         55.9390   89.1730  171.1900 C.2   253  SER253      0.2618
    104  O         56.9670   89.4320  170.5720 O.2   253  SER253     -0.2717
    105  CB        53.8580   87.9990  170.3820 C.3   253  SER253      0.2103
    106  OG        53.3570   86.7650  169.8920 O.3   253  SER253     -0.2182
    107  N         55.3890   89.9990  172.0740 N.am  254  LYS254     -0.1979
    108  CA        55.8740   91.3550  172.2980 C.3   254  LYS254      0.1596
    109  C         57.0600   91.4010  173.2530 C.2   254  LYS254      0.2287
    110  O         58.1140   91.9280  172.9100 O.2   254  LYS254     -0.2864
    111  CB        54.7460   92.2370  172.8340 C.3   254  LYS254      0.0298
    112  CG        53.7550   92.7040  171.7870 C.3   254  LYS254      0.0038
    113  CD        52.7440   91.6300  171.4570 C.3   254  LYS254      0.0206
    114  CE        51.9190   92.0290  170.2520 C.3   254  LYS254      0.1093
    115  NZ        51.1890   90.8440  169.7310 N.3   254  LYS254     -0.1314
    116  N         57.3030   87.0310  167.9480 N.3   259  TYR259     -0.1241
    117  CA        56.0330   86.9660  167.2420 C.3   259  TYR259      0.1605
    118  C         55.8950   85.6850  166.4100 C.2   259  TYR259      0.2264
    119  O         54.9430   84.9240  166.5760 O.2   259  TYR259     -0.2867
    120  CB        55.8810   88.1750  166.3170 C.3   259  TYR259      0.0534
    121  CG        56.4700   89.4730  166.8180 C.ar  259  TYR259     -0.0201
    122  CD1       55.6810   90.4130  167.4750 C.ar  259  TYR259     -0.0009
    123  CD2       57.8130   89.7750  166.6020 C.ar  259  TYR259     -0.0009
    124  CE1       56.2210   91.6140  167.9180 C.ar  259  TYR259      0.0417
    125  CE2       58.3610   90.9690  167.0410 C.ar  259  TYR259      0.0417
    126  CZ        57.5630   91.8860  167.6950 C.ar  259  TYR259      0.1957
    127  OH        58.1190   93.0680  168.1230 O.3   259  TYR259     -0.2866
    128  N         55.1820   81.9600  167.9740 N.3   262  ARG262     -0.1245
    129  CA        53.8300   81.5780  168.4050 C.3   262  ARG262      0.1563
    130  C         53.8100   80.8570  169.7540 C.2   262  ARG262      0.2260
    131  O         53.4660   79.6710  169.8430 O.2   262  ARG262     -0.2867
    132  CB        53.1500   80.7330  167.3280 C.3   262  ARG262      0.0307
    133  CG        53.3490   81.2390  165.9060 C.3   262  ARG262      0.0489
    134  CD        52.8290   82.6550  165.7090 C.3   262  ARG262      0.2205
    135  NE        51.4770   82.8510  166.2430 N.pl3 262  ARG262     -0.0865
    136  CZ        51.1600   83.7290  167.1960 C.cat 262  ARG262      0.5346
    137  NH1       52.0800   84.5230  167.7320 N.pl3 262  ARG262      0.1354
    138  NH2       49.9070   83.8250  167.6120 N.pl3 262  ARG262      0.1354
@<TRIPOS>BOND
     1     1     2    1
     2     2     3    1
     3   134   133    1
     4   134   135    1
     5     3     4    2
     6   133   132    1
     7   135   136    2
     8   120   121    1
     9   120   117    1
    10   118   119    2
    11   118   117    1
    12   123   121   ar
    13   123   125   ar
    14   121   122   ar
    15   125   126   ar
    16    36    34   ar
    17    36    37   ar
    18   136   138    1
    19   136   137    1
    20   117   116    1
    21   132   129    1
    22   122   124   ar
    23    34    33   ar
    24    39    37   ar
    25    39    41   ar
    26   126   124   ar
    27   126   127    1
    28    37    35   ar
    29   128   129    1
    30    30    31    2
    31    30    29    1
    32    19    17    1
    33   129   130    1
    34    41    40   ar
    35    69    67   am
    36    68    67    2
    37    33    35   ar
    38    33    32    1
    39    18    17    1
    40    42    43    1
    41    29    32    1
    42    29    28    1
    43    35    38   ar
    44    17    14    1
    45    44    45    2
    46    44    43    1
    47    67    66    1
    48    40    38   ar
    49   115   114    1
    50   130   131    2
    51    43    46    1
    52   106   105    1
    53    94    93    1
    54   114   113    1
    55   105   102    1
    56   104   103    2
    57    14    15    1
    58    14    13    1
    59    66    63    1
    60    46    47    1
    61   102   103    1
    62   102   101    1
    63    15    16    2
    64     5     6    1
    65    64    63    1
    66    64    65    2
    67   103   107   am
    68    13    11   am
    69     6     7    1
    70   113   112    1
    71    93    91   ar
    72    93    92   ar
    73    63    62    1
    74    47    49   ar
    75    47    48   ar
    76    91    89   ar
    77   112   111    1
    78    49    51   ar
    79    48    50   ar
    80   107   108    1
    81     7     9   am
    82     7     8    2
    83   108   111    1
    84   108   109    1
    85    92    90   ar
    86     9    10    1
    87    51    52   ar
    88    11    10    1
    89    11    12    2
    90    50    52   ar
    91   100    99    1
    92   110   109    2
    93    52    53    1
    94    26    24    1
    95    89    88   ar
    96    24    21    1
    97    24    25    1
    98    22    21    1
    99    22    23    2
   100    90    88   ar
   101    27    25    1
   102    88    87    1
   103    60    59    2
   104    99    96    1
   105    77    75   ar
   106    21    20    1
   107    82    79    1
   108    59    61   am
   109    59    58    1
   110    96    97    1
   111    96    95    1
   112    97    98    2
   113    75    76   ar
   114    75    74    1
   115    87    84    1
   116    81    80    2
   117    79    80    1
   118    79    78    1
   119    58    55    1
   120    80    83   am
   121    83    84    1
   122    84    85    1
   123    74    71    1
   124    55    56    1
   125    55    54    1
   126    57    56    2
   127    85    86    2
   128    71    72    1
   129    71    70    1
   130    73    72    2
