@<TRIPOS>MOLECULE
tmp/4en2C00.pdb
 189 194 0 0 0
SMALL
GASTEIGER

@<TRIPOS>ATOM
      1  N        -44.5230  -10.0110   38.7770 N.3    30  VAL30      -0.1231
      2  CA       -44.7240  -10.3370   40.1690 C.3    30  VAL30       0.1692
      3  C        -45.6070  -11.5700   40.1890 C.2    30  VAL30       0.2593
      4  O        -46.7030  -11.5760   39.6170 O.2    30  VAL30      -0.2718
      5  CB       -45.3930   -9.1940   40.9420 C.3    30  VAL30       0.0266
      6  CG1      -46.2870   -9.7440   42.0320 C.3    30  VAL30       0.0020
      7  CG2      -44.3500   -8.2700   41.5330 C.3    30  VAL30       0.0020
      8  N        -45.1350  -12.6220   40.8350 N.am   31  THR31      -0.1940
      9  CA       -45.8690  -13.8540   40.7830 C.3    31  THR31       0.2013
     10  C        -47.0860  -13.6230   41.7100 C.2    31  THR31       0.2484
     11  O        -46.9580  -13.2710   42.8730 O.2    31  THR31      -0.2729
     12  CB       -44.9650  -15.0480   41.0560 C.3    31  THR31       0.1807
     13  OG1      -44.6540  -15.1110   42.4400 O.3    31  THR31      -0.2208
     14  CG2      -43.6500  -14.9180   40.2310 C.3    31  THR31       0.0379
     15  N        -48.2860  -13.6880   41.1380 N.am   32  PRO32      -0.2715
     16  CA       -49.5360  -13.1440   41.6910 C.3    32  PRO32       0.1536
     17  C        -49.7170  -13.1110   43.2120 C.2    32  PRO32       0.2598
     18  O        -50.0480  -12.0610   43.7620 O.2    32  PRO32      -0.2715
     19  CB       -50.5950  -14.0450   41.0430 C.3    32  PRO32       0.0310
     20  CG       -50.0290  -14.3530   39.6940 C.3    32  PRO32       0.0237
     21  CD       -48.5220  -14.3320   39.8300 C.3    32  PRO32       0.0939
     22  N        -49.5460  -14.2390   43.8870 N.am   33  GLN33      -0.1964
     23  CA       -49.8820  -14.2850   45.3190 C.3    33  GLN33       0.1733
     24  C        -48.7510  -14.6640   46.2580 C.2    33  GLN33       0.2616
     25  O        -48.8500  -14.4010   47.4470 O.2    33  GLN33      -0.2715
     26  CB       -51.1160  -15.1690   45.5820 C.3    33  GLN33       0.0408
     27  CG       -52.4380  -14.4310   45.3780 C.3    33  GLN33       0.0908
     28  CD       -53.7100  -15.2530   45.6610 C.2    33  GLN33       0.2608
     29  OE1      -54.7410  -14.7020   46.0560 O.2    33  GLN33      -0.2717
     30  NE2      -53.6520  -16.5560   45.4310 N.am   33  GLN33      -0.0878
     31  N        -47.6900  -15.2760   45.7350 N.am   34  VAL34      -0.1964
     32  CA       -46.4290  -15.5340   46.5150 C.3    34  VAL34       0.1712
     33  C        -45.8160  -14.3100   47.2690 C.2    34  VAL34       0.2458
     34  O        -45.2800  -13.4080   46.6490 O.2    34  VAL34      -0.2730
     35  CB       -45.3420  -16.2630   45.6710 C.3    34  VAL34       0.0289
     36  CG1      -45.7970  -16.5160   44.2370 C.3    34  VAL34       0.0023
     37  CG2      -43.9950  -15.5460   45.7570 C.3    34  VAL34       0.0023
     38  N        -45.8680  -14.3010   48.6210 N.am   35  PRO35      -0.2716
     39  CA       -45.4310  -13.1200   49.3660 C.3    35  PRO35       0.1536
     40  C        -43.9250  -13.0060   49.5370 C.2    35  PRO35       0.2598
     41  O        -43.2160  -13.9780   49.7950 O.2    35  PRO35      -0.2715
     42  CB       -46.0840  -13.2940   50.7500 C.3    35  PRO35       0.0310
     43  CG       -46.4830  -14.7350   50.8370 C.3    35  PRO35       0.0237
     44  CD       -46.1630  -15.4180   49.5380 C.3    35  PRO35       0.0939
     45  N        -43.4520  -11.7830   49.4620 N.am   36  LEU36      -0.1964
     46  CA       -42.0340  -11.5040   49.5250 C.3    36  LEU36       0.1728
     47  C        -41.7930  -10.5570   50.6560 C.2    36  LEU36       0.2616
     48  O        -42.5150   -9.5880   50.8600 O.2    36  LEU36      -0.2715
     49  CB       -41.5930  -10.8600   48.2240 C.3    36  LEU36       0.0311
     50  CG       -41.8040  -11.7240   46.9830 C.3    36  LEU36       0.0022
     51  CD1      -41.7120  -10.7900   45.7970 C.3    36  LEU36       0.0001
     52  CD2      -40.8000  -12.8850   46.9010 C.3    36  LEU36       0.0001
     53  N        -40.7450  -10.8190   51.4020 N.am   37  ARG37      -0.1964
     54  CA       -40.5010  -10.0330   52.5930 C.3    37  ARG37       0.1714
     55  C        -39.0430   -9.9400   52.9590 C.2    37  ARG37       0.2458
     56  O        -38.2200  -10.7260   52.4980 O.2    37  ARG37      -0.2730
     57  CB       -41.3060  -10.5700   53.7790 C.3    37  ARG37       0.0347
     58  CG       -40.8410  -11.9150   54.2840 C.3    37  ARG37       0.0492
     59  CD       -41.4400  -13.0010   53.4290 C.3    37  ARG37       0.2205
     60  NE       -41.0720  -14.2980   53.9500 N.pl3  37  ARG37      -0.0865
     61  CZ       -41.2280  -15.4420   53.2990 C.cat  37  ARG37       0.5346
     62  NH1      -41.7460  -15.4510   52.0790 N.pl3  37  ARG37       0.1354
     63  NH2      -40.8530  -16.5790   53.8730 N.pl3  37  ARG37       0.1354
     64  N        -38.7280   -8.9440   53.7880 N.am   38  PRO38      -0.2716
     65  CA       -37.3720   -8.8740   54.2650 C.3    38  PRO38       0.1536
     66  C        -37.0960   -9.9930   55.2420 C.2    38  PRO38       0.2598
     67  O        -37.9990  -10.4870   55.9030 O.2    38  PRO38      -0.2715
     68  CB       -37.2960   -7.5010   54.9700 C.3    38  PRO38       0.0310
     69  CG       -38.6060   -6.8220   54.7370 C.3    38  PRO38       0.0237
     70  CD       -39.5760   -7.8910   54.3770 C.3    38  PRO38       0.0939
     71  N        -35.8390  -10.3920   55.2840 N.am   39  MET39      -0.1964
     72  CA       -35.3490  -11.3840   56.2260 C.3    39  MET39       0.1736
     73  C        -35.7250  -11.0220   57.6510 C.2    39  MET39       0.2617
     74  O        -35.6170   -9.8650   58.0690 O.2    39  MET39      -0.2715
     75  CB       -33.8240  -11.4860   56.1410 C.3    39  MET39       0.0427
     76  CG       -33.1710  -12.3890   57.1960 C.3    39  MET39       0.0599
     77  SD       -33.4510  -14.1080   56.8370 S.3    39  MET39      -0.1393
     78  CE       -32.3340  -14.3290   55.4800 C.3    39  MET39       0.0692
     79  N        -36.1410  -12.0400   58.3960 N.am   40  THR40      -0.1937
     80  CA       -36.4980  -11.8640   59.7980 C.3    40  THR40       0.2028
     81  C        -35.3880  -12.3080   60.7250 C.2    40  THR40       0.2642
     82  O        -34.5100  -13.0590   60.3290 O.2    40  THR40      -0.2714
     83  CB       -37.7600  -12.6440   60.1370 C.3    40  THR40       0.1808
     84  OG1      -37.5140  -14.0510   59.9900 O.3    40  THR40      -0.2208
     85  CG2      -38.8540  -12.2110   59.2250 C.3    40  THR40       0.0379
     86  N        -35.4480  -11.8220   61.9580 N.am   41  TYR41      -0.1973
     87  CA       -34.4620  -12.1660   62.9730 C.3    41  TYR41       0.1639
     88  C        -34.4010  -13.6750   63.1120 C.2    41  TYR41       0.2290
     89  O        -33.3620  -14.2900   63.0080 O.2    41  TYR41      -0.2864
     90  CB       -34.8170  -11.4920   64.3160 C.3    41  TYR41       0.0560
     91  CG       -33.9350  -11.9170   65.4650 C.ar   41  TYR41      -0.0198
     92  CD1      -32.8100  -11.1720   65.8390 C.ar   41  TYR41      -0.0009
     93  CD2      -34.2120  -13.0920   66.1810 C.ar   41  TYR41      -0.0009
     94  CE1      -31.9960  -11.5870   66.9000 C.ar   41  TYR41       0.0417
     95  CE2      -33.4190  -13.5040   67.2400 C.ar   41  TYR41       0.0417
     96  CZ       -32.3140  -12.7610   67.5980 C.ar   41  TYR41       0.1957
     97  OH       -31.5420  -13.2180   68.6440 O.3    41  TYR41      -0.2866
     98  N        -36.3120  -10.9320   50.1800 N.3    81  PHE81      -0.1241
     99  CA       -35.6500   -9.9270   49.3820 C.3    81  PHE81       0.1605
    100  C        -34.1820  -10.0240   49.7060 C.2    81  PHE81       0.2264
    101  O        -33.8130  -10.0160   50.8720 O.2    81  PHE81      -0.2867
    102  CB       -36.1080   -8.5160   49.7350 C.3    81  PHE81       0.0534
    103  CG       -37.5400   -8.2700   49.4880 C.ar   81  PHE81      -0.0203
    104  CD1      -38.3790   -7.8730   50.5120 C.ar   81  PHE81      -0.0042
    105  CD2      -38.0630   -8.4270   48.2140 C.ar   81  PHE81      -0.0042
    106  CE1      -39.7260   -7.6460   50.2740 C.ar   81  PHE81      -0.0003
    107  CE2      -39.4060   -8.2070   47.9780 C.ar   81  PHE81      -0.0003
    108  CZ       -40.2410   -7.8270   49.0070 C.ar   81  PHE81      -0.0000
    109  N        -31.8180   -8.0800   50.0570 N.3    83  ASP83      -0.1225
    110  CA       -31.2020   -6.8350   50.5550 C.3    83  ASP83       0.1805
    111  C        -30.7330   -6.9750   52.0130 C.2    83  ASP83       0.2597
    112  O        -30.3650   -5.9940   52.6640 O.2    83  ASP83      -0.2718
    113  CB       -32.1940   -5.6660   50.4410 C.3    83  ASP83       0.1424
    114  CG       -33.5630   -5.9970   51.0350 C.2    83  ASP83       0.3668
    115  OD1      -33.6230   -6.4900   52.2100 O.co2  83  ASP83      -0.2456
    116  OD2      -34.5790   -5.7840   50.3120 O.co2  83  ASP83      -0.2456
    117  N        -30.6950   -8.1990   52.5170 N.am   84  TRP84      -0.1976
    118  CA       -30.4310   -8.4270   53.9490 C.3    84  TRP84       0.1640
    119  C        -29.0060   -8.7030   54.3200 C.2    84  TRP84       0.2290
    120  O        -28.6410   -8.5000   55.4620 O.2    84  TRP84      -0.2864
    121  CB       -31.3100   -9.5600   54.4720 C.3    84  TRP84       0.0576
    122  CG       -31.0110  -10.8530   53.8050 C.ar   84  TRP84       0.0006
    123  CD1      -31.5920  -11.3720   52.6750 C.ar   84  TRP84       0.0946
    124  CD2      -30.0190  -11.8050   54.2110 C.ar   84  TRP84       0.0152
    125  NE1      -31.0420  -12.5830   52.3730 N.ar   84  TRP84      -0.2442
    126  CE2      -30.0890  -12.8930   53.2550 C.ar   84  TRP84       0.0810
    127  CE3      -29.0980  -11.8530   55.2350 C.ar   84  TRP84       0.0012
    128  CZ2      -29.2690  -13.9740   53.3390 C.ar   84  TRP84       0.0191
    129  CZ3      -28.2670  -12.9390   55.3250 C.ar   84  TRP84       0.0001
    130  CH2      -28.3530  -13.9890   54.4050 C.ar   84  TRP84       0.0015
    131  N        -25.7200   -6.0490   58.9980 N.3    97  LEU97      -0.1231
    132  CA       -26.7730   -5.1020   59.2760 C.3    97  LEU97       0.1693
    133  C        -28.0410   -5.7800   59.7630 C.2    97  LEU97       0.2593
    134  O        -28.8090   -5.2060   60.5160 O.2    97  LEU97      -0.2718
    135  CB       -27.1040   -4.2990   58.0280 C.3    97  LEU97       0.0284
    136  CG       -25.9860   -3.4390   57.4350 C.3    97  LEU97       0.0019
    137  CD1      -26.6020   -2.5110   56.3960 C.3    97  LEU97       0.0001
    138  CD2      -25.2320   -2.6540   58.5090 C.3    97  LEU97       0.0001
    139  N        -28.2550   -7.0050   59.3330 N.am   98  THR98      -0.1939
    140  CA       -29.4340   -7.7520   59.7670 C.3    98  THR98       0.2028
    141  C        -29.2150   -8.4390   61.1100 C.2    98  THR98       0.2642
    142  O        -28.4450   -9.3770   61.2120 O.2    98  THR98      -0.2714
    143  CB       -29.8750   -8.7720   58.7110 C.3    98  THR98       0.1808
    144  OG1      -30.1050   -8.0850   57.4700 O.3    98  THR98      -0.2208
    145  CG2      -31.1430   -9.4820   59.1610 C.3    98  THR98       0.0379
    146  N        -29.9050   -7.9440   62.1300 N.am   99  PHE99      -0.1973
    147  CA       -29.8370   -8.5150   63.4530 C.3    99  PHE99       0.1639
    148  C        -30.4400   -9.8910   63.3330 C.2    99  PHE99       0.2290
    149  O        -31.5610  -10.0590   62.8900 O.2    99  PHE99      -0.2864
    150  CB       -30.5980   -7.6420   64.4720 C.3    99  PHE99       0.0560
    151  CG       -30.3670   -7.9930   65.9210 C.ar   99  PHE99      -0.0200
    152  CD1      -29.1070   -8.3440   66.4130 C.ar   99  PHE99      -0.0042
    153  CD2      -31.4300   -7.9000   66.8280 C.ar   99  PHE99      -0.0042
    154  CE1      -28.9230   -8.6410   67.7620 C.ar   99  PHE99      -0.0003
    155  CE2      -31.2590   -8.2000   68.1830 C.ar   99  PHE99      -0.0003
    156  CZ       -30.0030   -8.5770   68.6500 C.ar   99  PHE99      -0.0000
    157  N        -26.5490   -6.2960   68.5820 N.3   123  HIS123     -0.1241
    158  CA       -26.6580   -5.7360   67.2390 C.3   123  HIS123      0.1621
    159  C        -25.5900   -4.6950   67.0450 C.2   123  HIS123      0.2264
    160  O        -25.8240   -3.4900   67.0900 O.2   123  HIS123     -0.2867
    161  CB       -28.0460   -5.1840   67.0050 C.3   123  HIS123      0.0745
    162  CG       -28.3730   -4.9480   65.5500 C.ar  123  HIS123      0.0817
    163  ND1      -29.4020   -4.1570   65.1550 N.ar  123  HIS123     -0.2268
    164  CD2      -27.7730   -5.4070   64.4010 C.ar  123  HIS123      0.1154
    165  CE1      -29.4700   -4.1420   63.8250 C.ar  123  HIS123      0.1986
    166  NE2      -28.4690   -4.9070   63.3580 N.ar  123  HIS123     -0.2212
    167  N        -28.1270    3.9310   59.9480 N.3   132  TYR132     -0.1227
    168  CA       -28.6330    2.8640   59.1150 C.3   132  TYR132      0.1736
    169  C        -29.9460    2.3170   59.6450 C.2   132  TYR132      0.2595
    170  O        -30.6470    1.6030   58.9350 O.2   132  TYR132     -0.2718
    171  CB       -27.6470    1.7130   59.0790 C.3   132  TYR132      0.0548
    172  CG       -26.3570    2.0010   58.3630 C.ar  132  TYR132     -0.0200
    173  CD1      -26.0400    3.2800   57.8880 C.ar  132  TYR132     -0.0009
    174  CD2      -25.4220    1.0000   58.1910 C.ar  132  TYR132     -0.0009
    175  CE1      -24.8520    3.5230   57.2450 C.ar  132  TYR132      0.0417
    176  CE2      -24.2230    1.2430   57.5360 C.ar  132  TYR132      0.0417
    177  CZ       -23.9480    2.5050   57.0680 C.ar  132  TYR132      0.1957
    178  OH       -22.7430    2.7350   56.4420 O.3   132  TYR132     -0.2866
    179  N        -30.2800    2.6550   60.8890 N.am  133  PHE133     -0.1976
    180  CA       -31.4730    2.1320   61.5570 C.3   133  PHE133      0.1639
    181  C        -32.3630    3.2480   62.1070 C.2   133  PHE133      0.2290
    182  O        -33.5890    3.1130   62.1400 O.2   133  PHE133     -0.2864
    183  CB       -31.0460    1.1870   62.6830 C.3   133  PHE133      0.0560
    184  CG       -30.0960    0.1240   62.2250 C.ar  133  PHE133     -0.0200
    185  CD1      -28.7270    0.3330   62.2830 C.ar  133  PHE133     -0.0042
    186  CD2      -30.5680   -1.0490   61.6750 C.ar  133  PHE133     -0.0042
    187  CE1      -27.8420   -0.6270   61.8110 C.ar  133  PHE133     -0.0003
    188  CE2      -29.6950   -2.0130   61.2020 C.ar  133  PHE133     -0.0003
    189  CZ       -28.3340   -1.8030   61.2640 C.ar  133  PHE133     -0.0000
@<TRIPOS>BOND
     1     1     2    1
     2     4     3    2
     3    20    21    1
     4    20    19    1
     5    21    15    1
     6     2     3    1
     7     2     5    1
     8     3     8   am
     9    14    12    1
    10     9     8    1
    11     9    12    1
    12     9    10    1
    13     5     7    1
    14     5     6    1
    15    19    16    1
    16    12    13    1
    17    15    16    1
    18    15    10   am
    19    16    17    1
    20    10    11    2
    21    17    18    2
    22    17    22   am
    23    22    23    1
    24    36    35    1
    25    23    26    1
    26    23    24    1
    27    27    26    1
    28    27    28    1
    29    30    28   am
    30    28    29    2
    31    35    37    1
    32    35    32    1
    33    31    24   am
    34    31    32    1
    35    51    50    1
    36    24    25    2
    37    32    33    1
    38    34    33    2
    39    52    50    1
    40    50    49    1
    41    33    38   am
    42   107   105   ar
    43   107   108   ar
    44   105   103   ar
    45    49    46    1
    46    38    39    1
    47    38    44    1
    48   108   106   ar
    49    39    40    1
    50    39    42    1
    51    99   100    1
    52    99   102    1
    53    99    98    1
    54    45    46    1
    55    45    40   am
    56   103   102    1
    57   103   104   ar
    58    46    47    1
    59    40    41    2
    60    44    43    1
    61   100   101    2
    62   109   110    1
    63   106   104   ar
    64   116   114   ar
    65   113   110    1
    66   113   114    1
    67   110   111    1
    68    47    48    2
    69    47    53   am
    70    42    43    1
    71   114   115   ar
    72    53    54    1
    73   111   117   am
    74   111   112    2
    75    62    61    1
    76   125   123   ar
    77   125   126   ar
    78    56    55    2
    79   117   118    1
    80    54    55    1
    81    54    57    1
    82   123   122   ar
    83    55    64   am
    84   126   128   ar
    85   126   124   ar
    86    61    63    1
    87    61    60    2
    88   128   130   ar
    89    59    60    1
    90    59    58    1
    91    57    58    1
    92    64    65    1
    93    64    70    1
    94   122   124   ar
    95   122   121    1
    96   118   119    1
    97   118   121    1
    98   124   127   ar
    99    65    68    1
   100    65    66    1
   101   119   120    2
   102    70    69    1
   103   130   129   ar
   104    69    68    1
   105   127   129   ar
   106    66    71   am
   107    66    67    2
   108    71    72    1
   109    78    77    1
   110    75    72    1
   111    75    76    1
   112    72    73    1
   113   137   136    1
   114   178   177    1
   115    77    76    1
   116   177   175   ar
   117   177   176   ar
   118   175   173   ar
   119   136   135    1
   120   136   138    1
   121   144   143    1
   122   176   174   ar
   123    73    74    2
   124    73    79   am
   125   173   172   ar
   126   135   132    1
   127   174   172   ar
   128   172   171    1
   129    79    80    1
   130   143   145    1
   131   143   140    1
   132   170   169    2
   133   131   132    1
   134   171   168    1
   135   168   169    1
   136   168   167    1
   137    85    83    1
   138   132   133    1
   139   139   133   am
   140   139   140    1
   141   169   179   am
   142   133   134    2
   143   140   141    1
   144    80    83    1
   145    80    81    1
   146    84    83    1
   147    82    81    2
   148    81    86   am
   149   179   180    1
   150   141   142    2
   151   141   146   am
   152   188   189   ar
   153   188   186   ar
   154   189   187   ar
   155   180   181    1
   156   180   183    1
   157   186   184   ar
   158   187   185   ar
   159    86    87    1
   160   181   182    2
   161   146   147    1
   162   184   185   ar
   163   184   183    1
   164   149   148    2
   165    87    88    1
   166    87    90    1
   167    89    88    2
   168   148   147    1
   169   166   165   ar
   170   166   164   ar
   171   147   150    1
   172   165   163   ar
   173    90    91    1
   174   164   162   ar
   175   150   151    1
   176   163   162   ar
   177    91    92   ar
   178    91    93   ar
   179   162   161    1
   180    92    94   ar
   181   151   152   ar
   182   151   153   ar
   183    93    95   ar
   184   152   154   ar
   185   153   155   ar
   186    94    96   ar
   187   161   158    1
   188   159   160    2
   189   159   158    1
   190   158   157    1
   191    95    96   ar
   192    96    97    1
   193   154   156   ar
   194   155   156   ar
