@<TRIPOS>MOLECULE
tmp/4en2A00.pdb
 182 182 0 0 0
SMALL
GASTEIGER

@<TRIPOS>ATOM
      1  N        -54.8030   -2.3270   51.4960 N.3    15  PHE15      -0.1227
      2  CA       -54.4760   -2.7490   50.1380 C.3    15  PHE15       0.1736
      3  C        -53.7070   -1.6280   49.4650 C.2    15  PHE15       0.2595
      4  O        -54.1460   -0.4760   49.4750 O.2    15  PHE15      -0.2718
      5  CB       -55.7480   -3.0310   49.3610 C.3    15  PHE15       0.0547
      6  CG       -56.5620   -4.1090   49.9550 C.ar   15  PHE15      -0.0202
      7  CD1      -57.5400   -3.8130   50.8690 C.ar   15  PHE15      -0.0042
      8  CD2      -56.3330   -5.4220   49.6320 C.ar   15  PHE15      -0.0042
      9  CE1      -58.2970   -4.8110   51.4530 C.ar   15  PHE15      -0.0003
     10  CE2      -57.0880   -6.4350   50.1960 C.ar   15  PHE15      -0.0003
     11  CZ       -58.0680   -6.1250   51.1160 C.ar   15  PHE15      -0.0000
     12  N        -52.5680   -1.9700   48.8760 N.am   16  LEU16      -0.1966
     13  CA       -51.8270   -1.0160   48.0500 C.3    16  LEU16       0.1728
     14  C        -51.7540   -1.4460   46.6350 C.2    16  LEU16       0.2616
     15  O        -51.5490   -2.6260   46.3170 O.2    16  LEU16      -0.2715
     16  CB       -50.3880   -0.8530   48.4560 C.3    16  LEU16       0.0311
     17  CG       -50.0820   -0.4510   49.8750 C.3    16  LEU16       0.0022
     18  CD1      -50.0520   -1.6750   50.7820 C.3    16  LEU16       0.0001
     19  CD2      -48.7330    0.2630   49.8660 C.3    16  LEU16       0.0001
     20  N        -51.8640   -0.4390   45.7890 N.am   17  ASP17      -0.1971
     21  CA       -51.8610   -0.6310   44.3770 C.3    17  ASP17       0.1709
     22  C        -50.7690    0.2460   43.8750 C.2    17  ASP17       0.2293
     23  O        -50.8330    1.4650   43.9730 O.2    17  ASP17      -0.2864
     24  CB       -53.1870   -0.2060   43.7750 C.3    17  ASP17       0.1436
     25  CG       -54.2740   -1.2270   43.9970 C.2    17  ASP17       0.3671
     26  OD1      -54.9030   -1.6240   43.0110 O.co2  17  ASP17      -0.2456
     27  OD2      -54.5110   -1.6530   45.1450 O.co2  17  ASP17      -0.2456
     28  N        -56.0520    1.6390   49.8020 N.3    44  ARG44      -0.1245
     29  CA       -57.3930    1.4830   50.3320 C.3    44  ARG44       0.1563
     30  C        -57.2000    0.9670   51.7490 C.2    44  ARG44       0.2260
     31  O        -56.7830   -0.1740   51.9550 O.2    44  ARG44      -0.2867
     32  CB       -58.2140    0.4730   49.5380 C.3    44  ARG44       0.0307
     33  CG       -58.6220    0.9150   48.1420 C.3    44  ARG44       0.0489
     34  CD       -58.6870   -0.2750   47.1720 C.3    44  ARG44       0.2205
     35  NE       -59.6440   -1.2970   47.6060 N.pl3  44  ARG44      -0.0865
     36  CZ       -59.6110   -2.5780   47.2430 C.cat  44  ARG44       0.5346
     37  NH1      -58.6560   -3.0300   46.4340 N.pl3  44  ARG44       0.1354
     38  NH2      -60.5300   -3.4300   47.7110 N.pl3  44  ARG44       0.1354
     39  N        -28.4710    3.6750   54.1810 N.3    66  THR66      -0.1218
     40  CA       -28.5740    2.7200   55.2670 C.3    66  THR66       0.1862
     41  C        -27.6630    1.5460   55.0270 C.2    66  THR66       0.2287
     42  O        -27.9130    0.4460   55.4860 O.2    66  THR66      -0.2866
     43  CB       -30.0080    2.2590   55.4860 C.3    66  THR66       0.1770
     44  OG1      -30.5140    1.6300   54.2970 O.3    66  THR66      -0.2211
     45  CG2      -30.8620    3.4190   55.8660 C.3    66  THR66       0.0375
     46  N        -27.0080   -0.0730   52.3700 N.3    68  ARG68      -0.1245
     47  CA       -27.5580   -1.0960   51.5030 C.3    68  ARG68       0.1563
     48  C        -27.4570   -0.7510   50.0340 C.2    68  ARG68       0.2260
     49  O        -28.1350   -1.3330   49.2060 O.2    68  ARG68      -0.2867
     50  CB       -28.9970   -1.3550   51.8940 C.3    68  ARG68       0.0307
     51  CG       -29.0710   -2.0170   53.2510 C.3    68  ARG68       0.0489
     52  CD       -30.4890   -2.2840   53.6480 C.3    68  ARG68       0.2205
     53  NE       -31.1560   -1.0500   54.0190 N.pl3  68  ARG68      -0.0865
     54  CZ       -32.3940   -1.0030   54.4940 C.cat  68  ARG68       0.5346
     55  NH1      -33.0760   -2.1310   54.6650 N.pl3  68  ARG68       0.1354
     56  NH2      -32.9380    0.1610   54.8100 N.pl3  68  ARG68       0.1354
     57  N        -49.6760   -7.4940   37.5160 N.3   217  TYR217     -0.1241
     58  CA       -48.6220   -8.3570   38.0750 C.3   217  TYR217      0.1605
     59  C        -47.2910   -8.0280   37.5120 C.2   217  TYR217      0.2264
     60  O        -46.5630   -8.9030   37.0820 O.2   217  TYR217     -0.2867
     61  CB       -48.9110   -9.8310   37.8120 C.3   217  TYR217      0.0534
     62  CG       -50.2490  -10.2160   38.3340 C.ar  217  TYR217     -0.0201
     63  CD1      -51.2800  -10.5860   37.4770 C.ar  217  TYR217     -0.0009
     64  CD2      -50.5220  -10.1190   39.6890 C.ar  217  TYR217     -0.0009
     65  CE1      -52.5310  -10.9110   37.9670 C.ar  217  TYR217      0.0417
     66  CE2      -51.7770  -10.4220   40.1880 C.ar  217  TYR217      0.0417
     67  CZ       -52.7710  -10.8190   39.3210 C.ar  217  TYR217      0.1957
     68  OH       -54.0040  -11.1150   39.8420 O.3   217  TYR217     -0.2866
     69  N        -42.6200   -2.7880   47.3290 N.3   225  VAL225     -0.1231
     70  CA       -42.9130   -2.4340   48.6770 C.3   225  VAL225      0.1692
     71  C        -42.3760   -3.5930   49.4890 C.2   225  VAL225      0.2592
     72  O        -42.8220   -4.7340   49.4090 O.2   225  VAL225     -0.2718
     73  CB       -44.3790   -2.0320   48.9820 C.3   225  VAL225      0.0266
     74  CG1      -45.1550   -1.7570   47.7170 C.3   225  VAL225      0.0020
     75  CG2      -45.1010   -3.0530   49.8260 C.3   225  VAL225      0.0020
     76  N        -41.3690   -3.2740   50.2600 N.am  226  ARG226     -0.1966
     77  CA       -40.6980   -4.2380   51.0960 C.3   226  ARG226      0.1729
     78  C        -41.5550   -4.6280   52.2810 C.2   226  ARG226      0.2616
     79  O        -41.7170   -5.8190   52.6230 O.2   226  ARG226     -0.2715
     80  CB       -39.3860   -3.6350   51.5470 C.3   226  ARG226      0.0348
     81  CG       -38.5060   -3.3590   50.3480 C.3   226  ARG226      0.0492
     82  CD       -37.1200   -2.9310   50.7370 C.3   226  ARG226      0.2205
     83  NE       -36.4090   -3.9630   51.5160 N.pl3 226  ARG226     -0.0865
     84  CZ       -36.1820   -3.9250   52.8350 C.cat 226  ARG226      0.5346
     85  NH1      -36.5840   -2.8930   53.5690 N.pl3 226  ARG226      0.1354
     86  NH2      -35.5450   -4.9230   53.4260 N.pl3 226  ARG226      0.1354
     87  N        -42.0970   -3.6100   52.9230 N.am  227  TYR227     -0.1960
     88  CA       -43.0050   -3.8180   54.0470 C.3   227  TYR227      0.1771
     89  C        -43.8870   -2.5970   54.2530 C.2   227  TYR227      0.2619
     90  O        -43.5700   -1.4750   53.8500 O.2   227  TYR227     -0.2715
     91  CB       -42.2550   -4.0890   55.3440 C.3   227  TYR227      0.0574
     92  CG       -41.4810   -2.8910   55.8220 C.ar  227  TYR227     -0.0198
     93  CD1      -40.1630   -2.7320   55.4760 C.ar  227  TYR227     -0.0009
     94  CD2      -42.0830   -1.8990   56.6090 C.ar  227  TYR227     -0.0009
     95  CE1      -39.4400   -1.6280   55.8920 C.ar  227  TYR227      0.0417
     96  CE2      -41.3790   -0.8000   57.0190 C.ar  227  TYR227      0.0417
     97  CZ       -40.0540   -0.6690   56.6650 C.ar  227  TYR227      0.1957
     98  OH       -39.3390    0.4230   57.1020 O.3   227  TYR227     -0.2866
     99  N        -45.0190   -2.8600   54.8700 N.am  228  LEU228     -0.1963
    100  CA       -45.8070   -1.8260   55.4650 C.3   228  LEU228      0.1728
    101  C        -46.0550   -2.1320   56.9530 C.2   228  LEU228      0.2616
    102  O        -46.7620   -3.0780   57.3210 O.2   228  LEU228     -0.2715
    103  CB       -47.1140   -1.6240   54.7180 C.3   228  LEU228      0.0311
    104  CG       -47.9400   -0.4560   55.2810 C.3   228  LEU228      0.0022
    105  CD1      -47.2870    0.9070   55.0670 C.3   228  LEU228      0.0001
    106  CD2      -49.3340   -0.4760   54.7040 C.3   228  LEU228      0.0001
    107  N        -45.4660   -1.2870   57.7890 N.am  229  LYS229     -0.1963
    108  CA       -45.6150   -1.3810   59.2220 C.3   229  LYS229      0.1728
    109  C        -46.8500   -0.6250   59.6870 C.2   229  LYS229      0.2616
    110  O        -47.0920    0.5220   59.2630 O.2   229  LYS229     -0.2715
    111  CB       -44.3740   -0.8420   59.9400 C.3   229  LYS229      0.0311
    112  CG       -44.3970   -1.0460   61.4480 C.3   229  LYS229      0.0038
    113  CD       -43.1760   -0.4610   62.1460 C.3   229  LYS229      0.0206
    114  CE       -42.2150   -1.5360   62.6270 C.3   229  LYS229      0.1093
    115  NZ       -42.6480   -2.1160   63.9330 N.3   229  LYS229     -0.1314
    116  N        -47.6130   -1.2910   60.5700 N.am  230  ILE230     -0.1977
    117  CA       -48.8330   -0.7530   61.1730 C.3   230  ILE230      0.1596
    118  C        -48.7510   -0.8320   62.6980 C.2   230  ILE230      0.2287
    119  O        -48.7380   -1.9210   63.2850 O.2   230  ILE230     -0.2864
    120  CB       -50.0970   -1.4900   60.7150 C.3   230  ILE230      0.0276
    121  CG1      -50.1990   -1.5520   59.1780 C.3   230  ILE230      0.0022
    122  CG2      -51.3200   -0.7670   61.2560 C.3   230  ILE230      0.0022
    123  CD1      -51.0870   -2.6620   58.6570 C.3   230  ILE230      0.0001
    124  N        -53.2690   -6.5240   58.4990 N.3   239  LEU239     -0.1231
    125  CA       -52.6240   -7.1070   57.2930 C.3   239  LEU239      0.1678
    126  C        -52.5330   -6.1310   56.1220 C.2   239  LEU239      0.2434
    127  O        -53.5500   -5.6130   55.6800 O.2   239  LEU239     -0.2733
    128  CB       -53.4070   -8.3230   56.7770 C.3   239  LEU239      0.0284
    129  CG       -53.7120   -9.4390   57.7820 C.3   239  LEU239      0.0019
    130  CD1      -54.7450  -10.4070   57.2290 C.3   239  LEU239      0.0001
    131  CD2      -52.4470  -10.1650   58.1960 C.3   239  LEU239      0.0001
    132  N        -51.3310   -5.9590   55.5570 N.am  240  PRO240     -0.2718
    133  CA       -51.1670   -5.2590   54.3010 C.3   240  PRO240      0.1535
    134  C        -51.0900   -6.1590   53.0650 C.2   240  PRO240      0.2599
    135  O        -50.5130   -7.2430   53.0950 O.2   240  PRO240     -0.2715
    136  CB       -49.8370   -4.5690   54.4990 C.3   240  PRO240      0.0310
    137  CG       -49.0740   -5.4170   55.4770 C.3   240  PRO240      0.0237
    138  CD       -50.0250   -6.4200   56.0460 C.3   240  PRO240      0.0939
    139  N        -51.6870   -5.6790   51.9910 N.am  241  TRP241     -0.1960
    140  CA       -51.7300   -6.3880   50.7320 C.3   241  TRP241      0.1771
    141  C        -51.2760   -5.5110   49.6210 C.2   241  TRP241      0.2620
    142  O        -51.5820   -4.3110   49.5970 O.2   241  TRP241     -0.2715
    143  CB       -53.1450   -6.7800   50.4390 C.3   241  TRP241      0.0590
    144  CG       -53.6340   -7.7300   51.4320 C.ar  241  TRP241      0.0006
    145  CD1      -54.3080   -7.4400   52.5960 C.ar  241  TRP241      0.0946
    146  CD2      -53.4380   -9.1690   51.4220 C.ar  241  TRP241      0.0152
    147  NE1      -54.5610   -8.5870   53.2960 N.ar  241  TRP241     -0.2442
    148  CE2      -54.0740   -9.6720   52.6220 C.ar  241  TRP241      0.0810
    149  CE3      -52.8480  -10.0570   50.5570 C.ar  241  TRP241      0.0012
    150  CZ2      -54.0930  -11.0210   52.9360 C.ar  241  TRP241      0.0191
    151  CZ3      -52.8770  -11.4330   50.8750 C.ar  241  TRP241      0.0001
    152  CH2      -53.4810  -11.8930   52.0450 C.ar  241  TRP241      0.0015
    153  N        -50.6110   -6.1100   48.6430 N.am  242  VAL242     -0.1963
    154  CA       -50.0280   -5.3060   47.5930 C.3   242  VAL242      0.1727
    155  C        -50.1490   -5.9060   46.2080 C.2   242  VAL242      0.2616
    156  O        -50.0490   -7.1100   46.0250 O.2   242  VAL242     -0.2715
    157  CB       -48.5460   -5.0510   47.8690 C.3   242  VAL242      0.0290
    158  CG1      -47.7880   -6.3710   47.9560 C.3   242  VAL242      0.0023
    159  CG2      -47.9650   -4.1890   46.7760 C.3   242  VAL242      0.0023
    160  N        -50.3590   -5.0390   45.2330 N.am  243  ARG243     -0.1963
    161  CA       -50.2430   -5.4510   43.8550 C.3   243  ARG243      0.1729
    162  C        -49.7200   -4.3440   42.9790 C.2   243  ARG243      0.2616
    163  O        -49.7190   -3.1780   43.3510 O.2   243  ARG243     -0.2715
    164  CB       -51.5540   -5.9610   43.3130 C.3   243  ARG243      0.0348
    165  CG       -52.5670   -4.8690   43.1260 C.3   243  ARG243      0.0492
    166  CD       -53.9040   -5.4820   42.8330 C.3   243  ARG243      0.2205
    167  NE       -54.8550   -4.4310   42.5660 N.pl3 243  ARG243     -0.0865
    168  CZ       -56.1160   -4.6320   42.2220 C.cat 243  ARG243      0.5346
    169  NH1      -56.6030   -5.8640   42.1280 N.pl3 243  ARG243      0.1354
    170  NH2      -56.8790   -3.5840   41.9680 N.pl3 243  ARG243      0.1354
    171  N        -49.2330   -4.7600   41.8200 N.am  244  TYR244     -0.1974
    172  CA       -48.4840   -3.9180   40.9120 C.3   244  TYR244      0.1639
    173  C        -49.1000   -4.0100   39.5240 C.2   244  TYR244      0.2290
    174  O        -49.1930   -5.0920   38.9060 O.2   244  TYR244     -0.2864
    175  CB       -47.0200   -4.3470   40.8240 C.3   244  TYR244      0.0560
    176  CG       -46.2860   -4.4740   42.1540 C.ar  244  TYR244     -0.0198
    177  CD1      -46.3980   -5.6390   42.9240 C.ar  244  TYR244     -0.0009
    178  CD2      -45.4510   -3.4580   42.6220 C.ar  244  TYR244     -0.0009
    179  CE1      -45.7370   -5.7640   44.1250 C.ar  244  TYR244      0.0417
    180  CE2      -44.7760   -3.5770   43.8310 C.ar  244  TYR244      0.0417
    181  CZ       -44.9220   -4.7390   44.5830 C.ar  244  TYR244      0.1957
    182  OH       -44.2490   -4.9120   45.7930 O.3   244  TYR244     -0.2866
@<TRIPOS>BOND
     1    60    59    2
     2    63    65   ar
     3    63    62   ar
     4    59    58    1
     5    57    58    1
     6    61    58    1
     7    61    62    1
     8    65    67   ar
     9    62    64   ar
    10   174   173    2
    11    67    68    1
    12    67    66   ar
    13   173   172    1
    14    64    66   ar
    15   175   172    1
    16   175   176    1
    17   172   171    1
    18   171   162   am
    19   170   168    1
    20   169   168    1
    21   176   178   ar
    22   176   177   ar
    23   168   167    2
    24   167   166    1
    25   178   180   ar
    26   166   165    1
    27   177   179   ar
    28   162   163    2
    29   162   161    1
    30    26    25   ar
    31   165   164    1
    32   164   161    1
    33    24    25    1
    34    24    21    1
    35   180   181   ar
    36   161   160    1
    37    22    23    2
    38    22    21    1
    39    25    27   ar
    40   179   181   ar
    41    21    20    1
    42   181   182    1
    43   160   155   am
    44    20    14   am
    45   156   155    2
    46   155   154    1
    47    15    14    2
    48    37    36    1
    49    14    13    1
    50   159   157    1
    51    34    35    1
    52    34    33    1
    53    36    35    2
    54    36    38    1
    55    69    70    1
    56   154   157    1
    57   154   153    1
    58    74    73    1
    59   157   158    1
    60    13    16    1
    61    13    12    1
    62    33    32    1
    63    16    17    1
    64   153   141   am
    65    70    73    1
    66    70    71    1
    67    12     3   am
    68    73    75    1
    69    49    48    2
    70     5     6    1
    71     5     2    1
    72    72    71    2
    73     3     4    2
    74     3     2    1
    75    71    76   am
    76    32    29    1
    77   142   141    2
    78   141   140    1
    79     8     6   ar
    80     8    10   ar
    81    28    29    1
    82    19    17    1
    83    17    18    1
    84     6     7   ar
    85    48    47    1
    86     2     1    1
    87    10    11   ar
    88    76    77    1
    89    29    30    1
    90    81    82    1
    91    81    80    1
    92   143   140    1
    93   143   144    1
    94   149   151   ar
    95   149   146   ar
    96   140   139    1
    97    82    83    1
    98     7     9   ar
    99   151   152   ar
   100    77    80    1
   101    77    78    1
   102    11     9   ar
   103   146   144   ar
   104   146   148   ar
   105   144   145   ar
   106    47    50    1
   107    47    46    1
   108    83    84    2
   109    30    31    2
   110    50    51    1
   111   139   134   am
   112   152   150   ar
   113    78    79    2
   114    78    87   am
   115   145   147   ar
   116   148   150   ar
   117   148   147   ar
   118    84    86    1
   119    84    85    1
   120    87    88    1
   121   134   135    2
   122   134   133    1
   123    51    52    1
   124    52    53    1
   125    90    89    2
   126    53    54    2
   127    88    89    1
   128    88    91    1
   129    39    40    1
   130    89    99   am
   131    44    43    1
   132   133   136    1
   133   133   132    1
   134    54    55    1
   135    54    56    1
   136   136   137    1
   137   106   104    1
   138   103   104    1
   139   103   100    1
   140    99   100    1
   141    41    40    1
   142    41    42    2
   143   105   104    1
   144    40    43    1
   145    91    92    1
   146   100   101    1
   147    93    92   ar
   148    93    95   ar
   149   137   138    1
   150    43    45    1
   151   132   138    1
   152   132   126   am
   153   127   126    2
   154    92    94   ar
   155    95    97   ar
   156   126   125    1
   157    94    96   ar
   158    97    96   ar
   159    97    98    1
   160   128   125    1
   161   128   129    1
   162   101   102    2
   163   101   107   am
   164   130   129    1
   165   125   124    1
   166   129   131    1
   167   107   108    1
   168   123   121    1
   169   121   120    1
   170   108   109    1
   171   108   111    1
   172   110   109    2
   173   109   116   am
   174   111   112    1
   175   116   117    1
   176   120   117    1
   177   120   122    1
   178   117   118    1
   179   112   113    1
   180   113   114    1
   181   114   115    1
   182   118   119    2
