@<TRIPOS>MOLECULE
tmp/4en4B07.pdb
 117 110 0 0 0
SMALL
GASTEIGER

@<TRIPOS>ATOM
      1  N         18.0650   22.8760   28.6200 N.3    10  SER10      -0.1217
      2  CA        18.2800   23.3470   29.9750 C.3    10  SER10       0.1889
      3  C         17.8250   22.3630   31.0080 C.2    10  SER10       0.2288
      4  O         16.9650   21.5190   30.7440 O.2    10  SER10      -0.2866
      5  CB        17.5390   24.6500   30.2020 C.3    10  SER10       0.2089
      6  OG        18.0390   25.6740   29.3580 O.3    10  SER10      -0.2183
      7  N         16.7960   22.2120   35.2660 N.3    12  VAL12      -0.1245
      8  CA        16.5290   22.9540   36.4920 C.3    12  VAL12       0.1561
      9  C         16.3800   21.9340   37.6310 C.2    12  VAL12       0.2260
     10  O         16.0110   20.7730   37.3900 O.2    12  VAL12      -0.2867
     11  CB        15.2350   23.8190   36.3880 C.3    12  VAL12       0.0252
     12  CG1       15.4510   24.9620   35.3710 C.3    12  VAL12       0.0019
     13  CG2       14.0330   22.9380   36.0030 C.3    12  VAL12       0.0019
     14  N         11.0620   22.3470   32.7520 N.3    17  VAL17      -0.1231
     15  CA        11.3090   23.1210   31.5250 C.3    17  VAL17       0.1692
     16  C         12.5280   22.4550   30.8790 C.2    17  VAL17       0.2592
     17  O         13.2360   21.6870   31.5430 O.2    17  VAL17      -0.2718
     18  CB        11.6180   24.6480   31.7980 C.3    17  VAL17       0.0266
     19  CG1       10.5270   25.2550   32.6670 C.3    17  VAL17       0.0020
     20  CG2       13.0100   24.8300   32.4410 C.3    17  VAL17       0.0020
     21  N         12.7700   22.7270   29.6010 N.am   18  GLY18      -0.1957
     22  CA        13.9060   22.1170   28.9440 C.3    18  GLY18       0.1869
     23  C         13.9310   20.6050   29.0850 C.2    18  GLY18       0.2309
     24  O         12.8920   19.9310   28.9970 O.2    18  GLY18      -0.2863
     25  N         22.3980   23.9160   30.7070 N.3    39  VAL39      -0.1245
     26  CA        22.4750   24.7190   31.9220 C.3    39  VAL39       0.1561
     27  C         21.8890   23.9890   33.1320 C.2    39  VAL39       0.2260
     28  O         21.0860   23.0570   32.9990 O.2    39  VAL39      -0.2867
     29  CB        21.7350   26.1010   31.8140 C.3    39  VAL39       0.0252
     30  CG1       21.8410   26.6470   30.4220 C.3    39  VAL39       0.0019
     31  CG2       20.2810   25.9850   32.2830 C.3    39  VAL39       0.0019
     32  N         20.1170   25.3100   36.5580 N.3    41  PHE41      -0.1241
     33  CA        19.6310   26.4140   37.3670 C.3    41  PHE41       0.1605
     34  C         18.7210   25.8560   38.4250 C.2    41  PHE41       0.2264
     35  O         18.2290   24.7450   38.3040 O.2    41  PHE41      -0.2867
     36  CB        18.8280   27.4240   36.5310 C.3    41  PHE41       0.0534
     37  CG        19.6550   28.2720   35.6020 C.ar   41  PHE41      -0.0203
     38  CD1       21.0300   28.0920   35.4850 C.ar   41  PHE41      -0.0042
     39  CD2       19.0390   29.2460   34.8150 C.ar   41  PHE41      -0.0042
     40  CE1       21.7820   28.8600   34.5990 C.ar   41  PHE41      -0.0003
     41  CE2       19.7790   30.0220   33.9210 C.ar   41  PHE41      -0.0003
     42  CZ        21.1570   29.8260   33.8150 C.ar   41  PHE41      -0.0000
     43  N         13.2760   27.7470   36.6890 N.3    44  HIS44      -0.1226
     44  CA        13.2080   28.5670   35.4820 C.3    44  HIS44       0.1752
     45  C         13.2240   30.0680   35.8210 C.2    44  HIS44       0.2597
     46  O         12.9520   30.4680   36.9630 O.2    44  HIS44      -0.2718
     47  CB        11.9990   28.1770   34.5910 C.3    44  HIS44       0.0759
     48  CG        10.6600   28.6000   35.1180 C.ar   44  HIS44       0.0818
     49  ND1       10.2990   29.9230   35.2580 N.ar   44  HIS44      -0.2268
     50  CD2        9.5850   27.8730   35.5150 C.ar   44  HIS44       0.1154
     51  CE1        9.0580   29.9950   35.7180 C.ar   44  HIS44       0.1986
     52  NE2        8.6020   28.7630   35.8840 N.ar   44  HIS44      -0.2212
     53  N         13.5740   30.8760   34.8200 N.am   45  THR45      -0.1939
     54  CA        13.7130   32.3230   34.9450 C.3    45  THR45       0.2028
     55  C         12.4580   33.1670   35.0830 C.2    45  THR45       0.2642
     56  O         12.5370   34.3890   35.0980 O.2    45  THR45      -0.2714
     57  CB        14.5420   32.8830   33.7780 C.3    45  THR45       0.1808
     58  OG1       13.8800   32.6050   32.5380 O.3    45  THR45      -0.2208
     59  CG2       15.9160   32.2410   33.7560 C.3    45  THR45       0.0379
     60  N         11.3050   32.5330   35.1910 N.am   46  GLY46      -0.1954
     61  CA        10.0800   33.2860   35.3740 C.3    46  GLY46       0.1869
     62  C          9.8390   33.4480   36.8660 C.2    46  GLY46       0.2309
     63  O          8.9010   34.1280   37.2930 O.2    46  GLY46      -0.2863
     64  N         15.6110   25.9520   23.6610 N.3    82  TYR82      -0.1241
     65  CA        16.1850   27.1920   24.1370 C.3    82  TYR82       0.1605
     66  C         17.7130   27.1060   24.2530 C.2    82  TYR82       0.2264
     67  O         18.2450   26.2820   24.9900 O.2    82  TYR82      -0.2867
     68  CB        15.5730   27.5380   25.4860 C.3    82  TYR82       0.0534
     69  CG        16.2610   28.6910   26.1620 C.ar   82  TYR82      -0.0201
     70  CD1       16.0090   30.0040   25.7720 C.ar   82  TYR82      -0.0009
     71  CD2       17.2290   28.4680   27.1440 C.ar   82  TYR82      -0.0009
     72  CE1       16.7130   31.0740   26.3390 C.ar   82  TYR82       0.0417
     73  CE2       17.9380   29.5250   27.7120 C.ar   82  TYR82       0.0417
     74  CZ        17.6770   30.8210   27.3070 C.ar   82  TYR82       0.1957
     75  OH        18.3870   31.8580   27.8660 O.3    82  TYR82      -0.2866
     76  N         20.9730   29.9580   24.5150 N.3    84  ARG84      -0.1245
     77  CA        21.2330   31.3860   24.7050 C.3    84  ARG84       0.1563
     78  C         22.5360   31.9150   24.1320 C.2    84  ARG84       0.2260
     79  O         22.7430   33.1200   24.0530 O.2    84  ARG84      -0.2867
     80  CB        21.2140   31.7100   26.1970 C.3    84  ARG84       0.0307
     81  CG        22.1820   30.8710   27.0130 C.3    84  ARG84       0.0489
     82  CD        22.2370   31.3690   28.4600 C.3    84  ARG84       0.2205
     83  NE        21.0120   31.0880   29.2170 N.pl3  84  ARG84      -0.0865
     84  CZ        20.5210   31.8780   30.1730 C.cat  84  ARG84       0.5346
     85  NH1       21.1460   33.0080   30.4890 N.pl3  84  ARG84       0.1354
     86  NH2       19.4110   31.5390   30.8220 N.pl3  84  ARG84       0.1354
     87  N         14.0200   36.8300   23.3820 N.3   125  TYR125     -0.1241
     88  CA        14.4200   36.3870   24.7190 C.3   125  TYR125      0.1605
     89  C         15.7860   35.7540   24.5790 C.2   125  TYR125      0.2264
     90  O         16.2870   35.1070   25.5000 O.2   125  TYR125     -0.2867
     91  CB        13.4940   35.2920   25.2660 C.3   125  TYR125      0.0534
     92  CG        12.0150   35.5660   25.2030 C.ar  125  TYR125     -0.0201
     93  CD1       11.5280   36.8720   25.1290 C.ar  125  TYR125     -0.0009
     94  CD2       11.0990   34.5250   25.3190 C.ar  125  TYR125     -0.0009
     95  CE1       10.1630   37.1370   25.1840 C.ar  125  TYR125      0.0417
     96  CE2        9.7350   34.7740   25.3770 C.ar  125  TYR125      0.0417
     97  CZ         9.2700   36.0870   25.3160 C.ar  125  TYR125      0.1957
     98  OH         7.9200   36.3630   25.4370 O.3   125  TYR125     -0.2866
     99  N          5.2840   27.4610   31.7890 N.3   229  VAL229     -0.1231
    100  CA         6.6270   27.4650   31.2620 C.3   229  VAL229      0.1692
    101  C          6.9480   25.9900   31.0870 C.2   229  VAL229      0.2592
    102  O          6.5170   25.1680   31.8870 O.2   229  VAL229     -0.2718
    103  CB         7.5660   28.1510   32.2490 C.3   229  VAL229      0.0266
    104  CG1        8.8790   28.4090   31.6040 C.3   229  VAL229      0.0020
    105  CG2        6.9410   29.4620   32.7200 C.3   229  VAL229      0.0020
    106  N          7.6690   25.6450   30.0300 N.am  230  GLY230     -0.1957
    107  CA         7.9780   24.2480   29.7720 C.3   230  GLY230      0.1869
    108  C          7.1130   23.5770   28.7070 C.2   230  GLY230      0.2309
    109  O          7.5740   22.6430   28.0600 O.2   230  GLY230     -0.2863
    110  N          8.5710   23.1500   25.2080 N.3   233  ASP233     -0.1239
    111  CA         9.5620   22.0750   25.2200 C.3   233  ASP233      0.1674
    112  C          8.8060   20.7280   25.1780 C.2   233  ASP233      0.2266
    113  O          9.1960   19.8030   24.4670 O.2   233  ASP233     -0.2867
    114  CB        10.4060   22.1430   26.4970 C.3   233  ASP233      0.1410
    115  CG        10.8370   23.5430   26.8230 C.2   233  ASP233      0.3668
    116  OD1       11.4390   24.2000   25.9460 O.co2 233  ASP233     -0.2456
    117  OD2       10.5630   23.9880   27.9600 O.co2 233  ASP233     -0.2456
@<TRIPOS>BOND
     1    87    88    1
     2    64    65    1
     3    79    78    2
     4    78    77    1
     5    65    66    1
     6    65    68    1
     7    66    67    2
     8   113   112    2
     9    76    77    1
    10    89    88    1
    11    89    90    2
    12    77    80    1
    13    88    91    1
    14    93    95   ar
    15    93    92   ar
    16   112   111    1
    17    95    97   ar
    18    92    91    1
    19    92    94   ar
    20   110   111    1
    21   111   114    1
    22    97    96   ar
    23    97    98    1
    24    94    96   ar
    25    68    69    1
    26    70    69   ar
    27    70    72   ar
    28   116   115   ar
    29    69    71   ar
    30    80    81    1
    31    72    74   ar
    32   114   115    1
    33   115   117   ar
    34    81    82    1
    35    71    73   ar
    36    74    73   ar
    37    74    75    1
    38   109   108    2
    39    82    83    1
    40     1     2    1
    41   108   107    1
    42    22    23    1
    43    22    21    1
    44    24    23    2
    45    83    84    2
    46     6     5    1
    47    21    16   am
    48   107   106    1
    49     2     5    1
    50     2     3    1
    51   106   101   am
    52    84    85    1
    53    84    86    1
    54    30    29    1
    55    25    26    1
    56     4     3    2
    57    16    15    1
    58    16    17    2
    59   101   100    1
    60   101   102    2
    61   100    99    1
    62   100   103    1
    63    15    18    1
    64    15    14    1
    65   104   103    1
    66    18    20    1
    67    18    19    1
    68    29    26    1
    69    29    31    1
    70    26    27    1
    71   103   105    1
    72    58    57    1
    73    28    27    2
    74    59    57    1
    75    57    54    1
    76    42    41   ar
    77    42    40   ar
    78    41    39   ar
    79    47    48    1
    80    47    44    1
    81    40    38   ar
    82    39    37   ar
    83    53    54    1
    84    53    45   am
    85    54    55    1
    86    55    56    2
    87    55    60   am
    88    48    49   ar
    89    48    50   ar
    90    60    61    1
    91    49    51   ar
    92     7     8    1
    93    12    11    1
    94    61    62    1
    95    44    45    1
    96    44    43    1
    97    38    37   ar
    98    50    52   ar
    99    37    36    1
   100    51    52   ar
   101    45    46    2
   102    13    11    1
   103    11     8    1
   104     8     9    1
   105    36    33    1
   106    32    33    1
   107    62    63    2
   108    33    34    1
   109    10     9    2
   110    35    34    2
