@<TRIPOS>MOLECULE
tmp/4en4B01.pdb
 143 136 0 0 0
SMALL
GASTEIGER

@<TRIPOS>ATOM
      1  N         18.0650   22.8760   28.6200 N.3    10  SER10      -0.1217
      2  CA        18.2800   23.3470   29.9750 C.3    10  SER10       0.1889
      3  C         17.8250   22.3630   31.0080 C.2    10  SER10       0.2288
      4  O         16.9650   21.5190   30.7440 O.2    10  SER10      -0.2866
      5  CB        17.5390   24.6500   30.2020 C.3    10  SER10       0.2089
      6  OG        18.0390   25.6740   29.3580 O.3    10  SER10      -0.2183
      7  N         16.7960   22.2120   35.2660 N.3    12  VAL12      -0.1245
      8  CA        16.5290   22.9540   36.4920 C.3    12  VAL12       0.1561
      9  C         16.3800   21.9340   37.6310 C.2    12  VAL12       0.2260
     10  O         16.0110   20.7730   37.3900 O.2    12  VAL12      -0.2867
     11  CB        15.2350   23.8190   36.3880 C.3    12  VAL12       0.0252
     12  CG1       15.4510   24.9620   35.3710 C.3    12  VAL12       0.0019
     13  CG2       14.0330   22.9380   36.0030 C.3    12  VAL12       0.0019
     14  N         11.0620   22.3470   32.7520 N.3    17  VAL17      -0.1231
     15  CA        11.3090   23.1210   31.5250 C.3    17  VAL17       0.1692
     16  C         12.5280   22.4550   30.8790 C.2    17  VAL17       0.2592
     17  O         13.2360   21.6870   31.5430 O.2    17  VAL17      -0.2718
     18  CB        11.6180   24.6480   31.7980 C.3    17  VAL17       0.0266
     19  CG1       10.5270   25.2550   32.6670 C.3    17  VAL17       0.0020
     20  CG2       13.0100   24.8300   32.4410 C.3    17  VAL17       0.0020
     21  N         12.7700   22.7270   29.6010 N.am   18  GLY18      -0.1957
     22  CA        13.9060   22.1170   28.9440 C.3    18  GLY18       0.1869
     23  C         13.9310   20.6050   29.0850 C.2    18  GLY18       0.2309
     24  O         12.8920   19.9310   28.9970 O.2    18  GLY18      -0.2863
     25  N         22.3980   23.9160   30.7070 N.3    39  VAL39      -0.1245
     26  CA        22.4750   24.7190   31.9220 C.3    39  VAL39       0.1561
     27  C         21.8890   23.9890   33.1320 C.2    39  VAL39       0.2260
     28  O         21.0860   23.0570   32.9990 O.2    39  VAL39      -0.2867
     29  CB        21.7350   26.1010   31.8140 C.3    39  VAL39       0.0252
     30  CG1       21.8410   26.6470   30.4220 C.3    39  VAL39       0.0019
     31  CG2       20.2810   25.9850   32.2830 C.3    39  VAL39       0.0019
     32  N         13.2760   27.7470   36.6890 N.3    44  HIS44      -0.1226
     33  CA        13.2080   28.5670   35.4820 C.3    44  HIS44       0.1752
     34  C         13.2240   30.0680   35.8210 C.2    44  HIS44       0.2597
     35  O         12.9520   30.4680   36.9630 O.2    44  HIS44      -0.2718
     36  CB        11.9990   28.1770   34.5910 C.3    44  HIS44       0.0759
     37  CG        10.6600   28.6000   35.1180 C.ar   44  HIS44       0.0818
     38  ND1       10.2990   29.9230   35.2580 N.ar   44  HIS44      -0.2268
     39  CD2        9.5850   27.8730   35.5150 C.ar   44  HIS44       0.1154
     40  CE1        9.0580   29.9950   35.7180 C.ar   44  HIS44       0.1986
     41  NE2        8.6020   28.7630   35.8840 N.ar   44  HIS44      -0.2212
     42  N         13.5740   30.8760   34.8200 N.am   45  THR45      -0.1939
     43  CA        13.7130   32.3230   34.9450 C.3    45  THR45       0.2028
     44  C         12.4580   33.1670   35.0830 C.2    45  THR45       0.2642
     45  O         12.5370   34.3890   35.0980 O.2    45  THR45      -0.2714
     46  CB        14.5420   32.8830   33.7780 C.3    45  THR45       0.1808
     47  OG1       13.8800   32.6050   32.5380 O.3    45  THR45      -0.2208
     48  CG2       15.9160   32.2410   33.7560 C.3    45  THR45       0.0379
     49  N         11.3050   32.5330   35.1910 N.am   46  GLY46      -0.1954
     50  CA        10.0800   33.2860   35.3740 C.3    46  GLY46       0.1869
     51  C          9.8390   33.4480   36.8660 C.2    46  GLY46       0.2309
     52  O          8.9010   34.1280   37.2930 O.2    46  GLY46      -0.2863
     53  N         15.6110   25.9520   23.6610 N.3    82  TYR82      -0.1241
     54  CA        16.1850   27.1920   24.1370 C.3    82  TYR82       0.1605
     55  C         17.7130   27.1060   24.2530 C.2    82  TYR82       0.2264
     56  O         18.2450   26.2820   24.9900 O.2    82  TYR82      -0.2867
     57  CB        15.5730   27.5380   25.4860 C.3    82  TYR82       0.0534
     58  CG        16.2610   28.6910   26.1620 C.ar   82  TYR82      -0.0201
     59  CD1       16.0090   30.0040   25.7720 C.ar   82  TYR82      -0.0009
     60  CD2       17.2290   28.4680   27.1440 C.ar   82  TYR82      -0.0009
     61  CE1       16.7130   31.0740   26.3390 C.ar   82  TYR82       0.0417
     62  CE2       17.9380   29.5250   27.7120 C.ar   82  TYR82       0.0417
     63  CZ        17.6770   30.8210   27.3070 C.ar   82  TYR82       0.1957
     64  OH        18.3870   31.8580   27.8660 O.3    82  TYR82      -0.2866
     65  N         20.9730   29.9580   24.5150 N.3    84  ARG84      -0.1245
     66  CA        21.2330   31.3860   24.7050 C.3    84  ARG84       0.1563
     67  C         22.5360   31.9150   24.1320 C.2    84  ARG84       0.2260
     68  O         22.7430   33.1200   24.0530 O.2    84  ARG84      -0.2867
     69  CB        21.2140   31.7100   26.1970 C.3    84  ARG84       0.0307
     70  CG        22.1820   30.8710   27.0130 C.3    84  ARG84       0.0489
     71  CD        22.2370   31.3690   28.4600 C.3    84  ARG84       0.2205
     72  NE        21.0120   31.0880   29.2170 N.pl3  84  ARG84      -0.0865
     73  CZ        20.5210   31.8780   30.1730 C.cat  84  ARG84       0.5346
     74  NH1       21.1460   33.0080   30.4890 N.pl3  84  ARG84       0.1354
     75  NH2       19.4110   31.5390   30.8220 N.pl3  84  ARG84       0.1354
     76  N         13.8190   28.4290   19.4510 N.3   113  VAL113     -0.1245
     77  CA        13.3780   29.4060   20.4470 C.3   113  VAL113      0.1561
     78  C         14.0930   30.7440   20.2680 C.2   113  VAL113      0.2260
     79  O         15.3300   30.8240   20.3230 O.2   113  VAL113     -0.2867
     80  CB        13.5550   28.8520   21.8880 C.3   113  VAL113      0.0252
     81  CG1       13.0120   29.8360   22.9110 C.3   113  VAL113      0.0019
     82  CG2       12.8010   27.5450   22.0170 C.3   113  VAL113      0.0019
     83  N          8.7390   35.4380   21.9550 N.3   116  ASP116     -0.1239
     84  CA         7.3140   35.2150   21.8490 C.3   116  ASP116      0.1674
     85  C          6.6140   36.5790   21.7880 C.2   116  ASP116      0.2266
     86  O          7.2720   37.6260   21.7460 O.2   116  ASP116     -0.2867
     87  CB         6.8480   34.4150   23.0670 C.3   116  ASP116      0.1410
     88  CG         5.5890   33.5920   22.7980 C.2   116  ASP116      0.3668
     89  OD1        4.7190   34.0120   22.0040 O.co2 116  ASP116     -0.2456
     90  OD2        5.4590   32.5160   23.4000 O.co2 116  ASP116     -0.2456
     91  N         14.0200   36.8300   23.3820 N.3   125  TYR125     -0.1241
     92  CA        14.4200   36.3870   24.7190 C.3   125  TYR125      0.1605
     93  C         15.7860   35.7540   24.5790 C.2   125  TYR125      0.2264
     94  O         16.2870   35.1070   25.5000 O.2   125  TYR125     -0.2867
     95  CB        13.4940   35.2920   25.2660 C.3   125  TYR125      0.0534
     96  CG        12.0150   35.5660   25.2030 C.ar  125  TYR125     -0.0201
     97  CD1       11.5280   36.8720   25.1290 C.ar  125  TYR125     -0.0009
     98  CD2       11.0990   34.5250   25.3190 C.ar  125  TYR125     -0.0009
     99  CE1       10.1630   37.1370   25.1840 C.ar  125  TYR125      0.0417
    100  CE2        9.7350   34.7740   25.3770 C.ar  125  TYR125      0.0417
    101  CZ         9.2700   36.0870   25.3160 C.ar  125  TYR125      0.1957
    102  OH         7.9200   36.3630   25.4370 O.3   125  TYR125     -0.2866
    103  N          2.2530   29.3630   31.5830 N.3   228  PHE228     -0.1227
    104  CA         2.9720   28.1480   31.8400 C.3   228  PHE228      0.1736
    105  C          4.3680   28.2400   31.2410 C.2   228  PHE228      0.2595
    106  O          4.6220   29.0090   30.3140 O.2   228  PHE228     -0.2718
    107  CB         2.1990   26.9780   31.2310 C.3   228  PHE228      0.0547
    108  CG         0.8070   26.8270   31.7860 C.ar  228  PHE228     -0.0202
    109  CD1        0.6030   26.3070   33.0580 C.ar  228  PHE228     -0.0042
    110  CD2       -0.3000   27.2310   31.0380 C.ar  228  PHE228     -0.0042
    111  CE1       -0.6910   26.1860   33.5870 C.ar  228  PHE228     -0.0003
    112  CE2       -1.5950   27.1170   31.5490 C.ar  228  PHE228     -0.0003
    113  CZ        -1.7890   26.5920   32.8350 C.ar  228  PHE228     -0.0000
    114  N          5.2840   27.4610   31.7890 N.am  229  VAL229     -0.1966
    115  CA         6.6270   27.4650   31.2620 C.3   229  VAL229      0.1727
    116  C          6.9480   25.9900   31.0870 C.2   229  VAL229      0.2617
    117  O          6.5170   25.1680   31.8870 O.2   229  VAL229     -0.2715
    118  CB         7.5660   28.1510   32.2490 C.3   229  VAL229      0.0290
    119  CG1        8.8790   28.4090   31.6040 C.3   229  VAL229      0.0023
    120  CG2        6.9410   29.4620   32.7200 C.3   229  VAL229      0.0023
    121  N          7.6690   25.6450   30.0300 N.am  230  GLY230     -0.1940
    122  CA         7.9780   24.2480   29.7720 C.3   230  GLY230      0.2014
    123  C          7.1130   23.5770   28.7070 C.2   230  GLY230      0.2640
    124  O          7.5740   22.6430   28.0600 O.2   230  GLY230     -0.2714
    125  N          5.8780   24.0550   28.5170 N.am  231  THR231     -0.1936
    126  CA         4.9340   23.5020   27.5360 C.3   231  THR231      0.2028
    127  C          5.3510   23.4810   26.0680 C.2   231  THR231      0.2643
    128  O          4.8660   22.6620   25.2880 O.2   231  THR231     -0.2714
    129  CB         3.6030   24.2200   27.6150 C.3   231  THR231      0.1808
    130  OG1        3.8470   25.6120   27.8060 O.3   231  THR231     -0.2208
    131  CG2        2.7590   23.6750   28.7800 C.3   231  THR231      0.0379
    132  N          6.2300   24.3800   25.6710 N.am  232  GLY232     -0.1939
    133  CA         6.6980   24.3850   24.2940 C.3   232  GLY232      0.2014
    134  C          7.7290   23.2820   24.1820 C.2   232  GLY232      0.2638
    135  O          7.7730   22.5610   23.1790 O.2   232  GLY232     -0.2714
    136  N          8.5710   23.1500   25.2080 N.am  233  ASP233     -0.1971
    137  CA         9.5620   22.0750   25.2200 C.3   233  ASP233      0.1709
    138  C          8.8060   20.7280   25.1780 C.2   233  ASP233      0.2293
    139  O          9.1960   19.8030   24.4670 O.2   233  ASP233     -0.2864
    140  CB        10.4060   22.1430   26.4970 C.3   233  ASP233      0.1436
    141  CG        10.8370   23.5430   26.8230 C.2   233  ASP233      0.3671
    142  OD1       11.4390   24.2000   25.9460 O.co2 233  ASP233     -0.2456
    143  OD2       10.5630   23.9880   27.9600 O.co2 233  ASP233     -0.2456
@<TRIPOS>BOND
     1    76    77    1
     2    78    79    2
     3    78    77    1
     4    77    80    1
     5    86    85    2
     6    85    84    1
     7    84    83    1
     8    84    87    1
     9    80    82    1
    10    80    81    1
    11    89    88   ar
    12    88    87    1
    13    88    90   ar
    14   135   134    2
    15    91    92    1
    16    53    54    1
    17    68    67    2
    18    67    66    1
    19    54    55    1
    20    54    57    1
    21   134   133    1
    22   134   136   am
    23    55    56    2
    24   133   132    1
    25   139   138    2
    26    65    66    1
    27    93    92    1
    28    93    94    2
    29    66    69    1
    30    92    95    1
    31    97    99   ar
    32    97    96   ar
    33   138   137    1
    34    99   101   ar
    35    96    95    1
    36    96    98   ar
    37   136   137    1
    38   137   140    1
    39   128   127    2
    40   101   100   ar
    41   101   102    1
    42    98   100   ar
    43    57    58    1
    44   132   127   am
    45    59    58   ar
    46    59    61   ar
    47   142   141   ar
    48   127   126    1
    49    58    60   ar
    50    69    70    1
    51    61    63   ar
    52   140   141    1
    53   141   143   ar
    54    70    71    1
    55    60    62   ar
    56    63    62   ar
    57    63    64    1
    58   126   129    1
    59   126   125    1
    60   129   130    1
    61   129   131    1
    62   124   123    2
    63    71    72    1
    64   125   123   am
    65     1     2    1
    66   123   122    1
    67    22    23    1
    68    22    21    1
    69    24    23    2
    70    72    73    2
    71     6     5    1
    72    21    16   am
    73   122   121    1
    74     2     5    1
    75     2     3    1
    76   121   116   am
    77    73    74    1
    78    73    75    1
    79   106   105    2
    80    30    29    1
    81    25    26    1
    82     4     3    2
    83    16    15    1
    84    16    17    2
    85   110   112   ar
    86   110   108   ar
    87   116   115    1
    88   116   117    2
    89   107   108    1
    90   107   104    1
    91   105   114   am
    92   105   104    1
    93   115   114    1
    94   115   118    1
    95    15    18    1
    96    15    14    1
    97   112   113   ar
    98   103   104    1
    99   119   118    1
   100   108   109   ar
   101    18    20    1
   102    18    19    1
   103    29    26    1
   104    29    31    1
   105    26    27    1
   106   118   120    1
   107    47    46    1
   108   113   111   ar
   109    28    27    2
   110   109   111   ar
   111    48    46    1
   112    46    43    1
   113    36    37    1
   114    36    33    1
   115    42    43    1
   116    42    34   am
   117    43    44    1
   118    44    45    2
   119    44    49   am
   120    37    38   ar
   121    37    39   ar
   122    49    50    1
   123    38    40   ar
   124     7     8    1
   125    12    11    1
   126    50    51    1
   127    33    34    1
   128    33    32    1
   129    39    41   ar
   130    40    41   ar
   131    34    35    2
   132    13    11    1
   133    11     8    1
   134     8     9    1
   135    51    52    2
   136    10     9    2
