@<TRIPOS>MOLECULE
tmp/4en6B01.pdb
 102 100 0 0 0
SMALL
GASTEIGER

@<TRIPOS>ATOM
      1  N         47.5170   67.8870    5.9040 N.3   257  ARG257     -0.1245
      2  CA        48.3300   66.6800    6.1020 C.3   257  ARG257      0.1563
      3  C         49.5530   66.9790    6.9760 C.2   257  ARG257      0.2260
      4  O         50.3630   67.8520    6.6550 O.2   257  ARG257     -0.2867
      5  CB        48.7910   66.1100    4.7570 C.3   257  ARG257      0.0307
      6  CG        49.1270   64.6250    4.8060 C.3   257  ARG257      0.0489
      7  CD        49.8420   64.1610    3.5440 C.3   257  ARG257      0.2205
      8  NE        50.0450   62.7120    3.5380 N.pl3 257  ARG257     -0.0865
      9  CZ        49.0700   61.8200    3.3760 C.cat 257  ARG257      0.5346
     10  NH1       47.8150   62.2250    3.2010 N.pl3 257  ARG257      0.1354
     11  NH2       49.3450   60.5210    3.3980 N.pl3 257  ARG257      0.1354
     12  N         52.4370   65.4410    7.5620 N.3   259  ASP259     -0.1239
     13  CA        53.7820   65.2860    7.0190 C.3   259  ASP259      0.1674
     14  C         54.0540   66.0330    5.7150 C.2   259  ASP259      0.2266
     15  O         54.9510   65.6590    4.9600 O.2   259  ASP259     -0.2867
     16  CB        54.0930   63.8000    6.8230 C.3   259  ASP259      0.1410
     17  CG        53.0370   63.0860    6.0050 C.2   259  ASP259      0.3668
     18  OD1       52.1220   63.7590    5.4890 O.co2 259  ASP259     -0.2456
     19  OD2       53.1240   61.8460    5.8760 O.co2 259  ASP259     -0.2456
     20  N         57.9890   69.8640   -0.2970 N.3   308  ILE308     -0.1245
     21  CA        59.3610   69.3560   -0.4050 C.3   308  ILE308      0.1561
     22  C         59.3550   67.8290   -0.4350 C.2   308  ILE308      0.2260
     23  O         58.9320   67.1840    0.5200 O.2   308  ILE308     -0.2867
     24  CB        60.2520   69.8060    0.7760 C.3   308  ILE308      0.0252
     25  CG1       60.5580   71.3010    0.6830 C.3   308  ILE308      0.0019
     26  CG2       61.5580   69.0320    0.7590 C.3   308  ILE308      0.0019
     27  CD1       59.4400   72.1760    1.1440 C.3   308  ILE308      0.0001
     28  N         60.6960   64.0260   -0.2560 N.3   310  ASP310     -0.1225
     29  CA        61.6440   63.2480    0.5370 C.3   310  ASP310      0.1805
     30  C         61.8050   61.8090    0.0310 C.2   310  ASP310      0.2597
     31  O         60.9380   61.2900   -0.6740 O.2   310  ASP310     -0.2718
     32  CB        61.1520   63.2100    1.9840 C.3   310  ASP310      0.1424
     33  CG        59.6860   62.7750    2.0850 C.2   310  ASP310      0.3668
     34  OD1       58.8110   63.5200    1.5840 O.co2 310  ASP310     -0.2456
     35  OD2       59.4060   61.6900    2.6500 O.co2 310  ASP310     -0.2456
     36  N         62.9110   61.1730    0.4190 N.am  311  ASN311     -0.1974
     37  CA        63.2180   59.7930    0.0380 C.3   311  ASN311      0.1688
     38  C         63.2370   59.5850   -1.4680 C.2   311  ASN311      0.2292
     39  O         62.5230   58.7350   -1.9950 O.2   311  ASN311     -0.2864
     40  CB        62.2090   58.8360    0.6690 C.3   311  ASN311      0.1181
     41  CG        61.9590   59.1440    2.1290 C.2   311  ASN311      0.2629
     42  OD1       62.8960   59.3780    2.8940 O.2   311  ASN311     -0.2716
     43  ND2       60.6910   59.1410    2.5290 N.am  311  ASN311     -0.0877
     44  N         58.8230   54.2310   -8.3010 N.3   317  THR317     -0.1203
     45  CA        57.8030   55.1580   -7.8250 C.3   317  THR317      0.1994
     46  C         58.1610   55.9560   -6.5790 C.2   317  THR317      0.2618
     47  O         58.9230   55.5080   -5.7200 O.2   317  THR317     -0.2717
     48  CB        56.4650   54.4290   -7.5360 C.3   317  THR317      0.1784
     49  OG1       56.6720   53.4200   -6.5390 O.3   317  THR317     -0.2211
     50  CG2       55.9090   53.7920   -8.8060 C.3   317  THR317      0.0376
     51  N         57.5880   57.1520   -6.5060 N.am  318  HIS318     -0.1961
     52  CA        57.7670   58.0650   -5.3850 C.3   318  HIS318      0.1787
     53  C         56.4620   58.8370   -5.2860 C.2   318  HIS318      0.2620
     54  O         56.3410   59.9460   -5.8030 O.2   318  HIS318     -0.2715
     55  CB        58.9330   59.0220   -5.6390 C.3   318  HIS318      0.0785
     56  CG        60.2630   58.3400   -5.6970 C.ar  318  HIS318      0.0821
     57  ND1       60.5980   57.4470   -6.6860 N.ar  318  HIS318     -0.2267
     58  CD2       61.3300   58.4010   -4.8610 C.ar  318  HIS318      0.1154
     59  CE1       61.8190   56.9810   -6.4610 C.ar  318  HIS318      0.1986
     60  NE2       62.2790   57.5440   -5.3640 N.ar  318  HIS318     -0.2212
     61  N         55.4830   58.2210   -4.6330 N.am  319  TYR319     -0.1960
     62  CA        54.1590   58.7990   -4.4590 C.3   319  TYR319      0.1771
     63  C         54.0530   59.8080   -3.3300 C.2   319  TYR319      0.2620
     64  O         54.6840   59.6630   -2.2890 O.2   319  TYR319     -0.2715
     65  CB        53.1430   57.6860   -4.2250 C.3   319  TYR319      0.0574
     66  CG        52.9310   56.8170   -5.4350 C.ar  319  TYR319     -0.0198
     67  CD1       52.5560   57.3810   -6.6530 C.ar  319  TYR319     -0.0009
     68  CD2       53.0960   55.4330   -5.3680 C.ar  319  TYR319     -0.0009
     69  CE1       52.3400   56.5940   -7.7770 C.ar  319  TYR319      0.0417
     70  CE2       52.8810   54.6290   -6.4900 C.ar  319  TYR319      0.0417
     71  CZ        52.5040   55.2210   -7.6950 C.ar  319  TYR319      0.1957
     72  OH        52.2730   54.4520   -8.8160 O.3   319  TYR319     -0.2866
     73  N         53.2340   60.8290   -3.5500 N.am  320  TYR320     -0.1960
     74  CA        53.0010   61.8750   -2.5630 C.3   320  TYR320      0.1771
     75  C         51.5270   62.2730   -2.6000 C.2   320  TYR320      0.2620
     76  O         51.0770   62.9530   -3.5260 O.2   320  TYR320     -0.2715
     77  CB        53.8810   63.0820   -2.8690 C.3   320  TYR320      0.0574
     78  CG        55.3510   62.7550   -2.8480 C.ar  320  TYR320     -0.0198
     79  CD1       56.0090   62.4920   -1.6450 C.ar  320  TYR320     -0.0009
     80  CD2       56.0790   62.6690   -4.0290 C.ar  320  TYR320     -0.0009
     81  CE1       57.3620   62.1490   -1.6210 C.ar  320  TYR320      0.0417
     82  CE2       57.4330   62.3260   -4.0190 C.ar  320  TYR320      0.0417
     83  CZ        58.0660   62.0680   -2.8110 C.ar  320  TYR320      0.1957
     84  OH        59.3970   61.7280   -2.7980 O.3   320  TYR320     -0.2866
     85  N         50.7770   61.8210   -1.5990 N.am  321  THR321     -0.1937
     86  CA        49.3560   62.1230   -1.5030 C.3   321  THR321      0.2028
     87  C         49.1540   63.4800   -0.8340 C.2   321  THR321      0.2642
     88  O         49.6930   63.7410    0.2400 O.2   321  THR321     -0.2714
     89  CB        48.6200   61.0340   -0.7010 C.3   321  THR321      0.1808
     90  OG1       48.6620   59.8030   -1.4300 O.3   321  THR321     -0.2208
     91  CG2       47.1740   61.4250   -0.4540 C.3   321  THR321      0.0379
     92  N         48.3840   64.3430   -1.4900 N.am  322  ARG322     -0.1977
     93  CA        48.1040   65.6810   -0.9780 C.3   322  ARG322      0.1597
     94  C         46.6750   66.0850   -1.3170 C.2   322  ARG322      0.2287
     95  O         46.0890   65.5780   -2.2740 O.2   322  ARG322     -0.2864
     96  CB        49.0670   66.6970   -1.5980 C.3   322  ARG322      0.0334
     97  CG        50.5360   66.4720   -1.2710 C.3   322  ARG322      0.0492
     98  CD        50.8690   66.8820    0.1530 C.3   322  ARG322      0.2205
     99  NE        52.3010   66.7880    0.4230 N.pl3 322  ARG322     -0.0865
    100  CZ        52.9340   65.6760    0.7960 C.cat 322  ARG322      0.5346
    101  NH1       52.2690   64.5390    0.9620 N.pl3 322  ARG322      0.1354
    102  NH2       54.2440   65.6980    0.9860 N.pl3 322  ARG322      0.1354
@<TRIPOS>BOND
     1    72    71    1
     2    50    48    1
     3    44    45    1
     4    45    48    1
     5    45    46    1
     6    69    71   ar
     7    69    67   ar
     8    71    70   ar
     9    48    49    1
    10    57    59   ar
    11    57    56   ar
    12    67    66   ar
    13    46    51   am
    14    46    47    2
    15    51    52    1
    16    70    68   ar
    17    59    60   ar
    18    54    53    2
    19    56    55    1
    20    56    58   ar
    21    55    52    1
    22    66    68   ar
    23    66    65    1
    24    52    53    1
    25    60    58   ar
    26    53    61   am
    27    61    62    1
    28    62    65    1
    29    62    63    1
    30    80    82   ar
    31    80    78   ar
    32    82    83   ar
    33    73    63   am
    34    73    74    1
    35    76    75    2
    36    63    64    2
    37    77    78    1
    38    77    74    1
    39    78    79   ar
    40    83    84    1
    41    83    81   ar
    42    75    74    1
    43    75    85   am
    44    95    94    2
    45    39    38    2
    46    79    81   ar
    47    85    86    1
    48    96    97    1
    49    96    93    1
    50    86    87    1
    51    86    89    1
    52    92    93    1
    53    92    87   am
    54    38    37    1
    55    90    89    1
    56    94    93    1
    57    97    98    1
    58    87    88    2
    59    89    91    1
    60    31    30    2
    61    22    21    1
    62    22    23    2
    63    21    20    1
    64    21    24    1
    65    28    29    1
    66    30    36   am
    67    30    29    1
    68    37    36    1
    69    37    40    1
    70    98    99    1
    71    99   100    2
    72    29    32    1
    73    40    41    1
    74    25    24    1
    75    25    27    1
    76    26    24    1
    77   100   101    1
    78   100   102    1
    79    34    33   ar
    80    32    33    1
    81    33    35   ar
    82    41    43   am
    83    41    42    2
    84    10     9    1
    85     9    11    1
    86     9     8    2
    87     8     7    1
    88     7     6    1
    89     5     6    1
    90     5     2    1
    91    15    14    2
    92    18    17   ar
    93    14    13    1
    94    19    17   ar
    95     1     2    1
    96    17    16    1
    97     2     3    1
    98     4     3    2
    99    16    13    1
   100    13    12    1
