@<TRIPOS>MOLECULE
tmp/4en7B02.pdb
 98 94 0 0 0
SMALL
GASTEIGER

@<TRIPOS>ATOM
      1  N         37.8070   72.7420    8.4820 N.3     9  GLY9       -0.1210
      2  CA        37.2440   73.9260    9.1010 C.3     9  GLY9        0.1956
      3  C         35.7540   74.0660    8.8800 C.2     9  GLY9        0.2611
      4  O         35.0860   73.1220    8.4430 O.2     9  GLY9       -0.2717
      5  N         35.2430   75.2570    9.1870 N.am   10  LEU10      -0.1979
      6  CA        33.8260   75.5670    9.0490 C.3    10  LEU10       0.1596
      7  C         33.5180   76.3760    7.7920 C.2    10  LEU10       0.2287
      8  O         34.2540   77.2910    7.4080 O.2    10  LEU10      -0.2864
      9  CB        33.3400   76.3360   10.2720 C.3    10  LEU10       0.0297
     10  CG        33.4650   75.6230   11.6130 C.3    10  LEU10       0.0022
     11  CD1       32.9190   76.5230   12.7100 C.3    10  LEU10       0.0001
     12  CD2       32.7130   74.3090   11.5660 C.3    10  LEU10       0.0001
     13  N         26.2900   71.1940   19.7370 N.3    61  ILE61      -0.1231
     14  CA        27.2290   72.1830   19.2250 C.3    61  ILE61       0.1692
     15  C         26.5740   73.0490   18.1400 C.2    61  ILE61       0.2592
     16  O         26.4470   74.2670   18.3050 O.2    61  ILE61      -0.2718
     17  CB        28.4960   71.5060   18.6590 C.3    61  ILE61       0.0266
     18  CG1       29.4250   72.5680   18.0710 C.3    61  ILE61       0.0019
     19  CG2       28.1240   70.4750   17.6100 C.3    61  ILE61       0.0020
     20  CD1       30.6500   71.9880   17.3990 C.3    61  ILE61       0.0001
     21  N         26.1630   72.4220   17.0380 N.am   62  PHE62      -0.1976
     22  CA        25.5060   73.1430   15.9600 C.3    62  PHE62       0.1639
     23  C         24.0530   73.4370   16.3200 C.2    62  PHE62       0.2290
     24  O         23.1230   72.9150   15.6990 O.2    62  PHE62      -0.2864
     25  CB        25.5640   72.3430   14.6590 C.3    62  PHE62       0.0560
     26  CG        26.8380   72.5260   13.8920 C.ar   62  PHE62      -0.0200
     27  CD1       27.8780   73.2870   14.4140 C.ar   62  PHE62      -0.0042
     28  CD2       26.9900   71.9550   12.6330 C.ar   62  PHE62      -0.0042
     29  CE1       29.0520   73.4800   13.6930 C.ar   62  PHE62      -0.0003
     30  CE2       28.1610   72.1390   11.9010 C.ar   62  PHE62      -0.0003
     31  CZ        29.1950   72.9060   12.4330 C.ar   62  PHE62      -0.0000
     32  N         24.0250   78.9200   17.3800 N.3    66  TYR66      -0.1241
     33  CA        25.3960   78.7780   16.9130 C.3    66  TYR66       0.1605
     34  C         25.4330   78.9390   15.3980 C.2    66  TYR66       0.2264
     35  O         26.2690   79.6770   14.8540 O.2    66  TYR66      -0.2867
     36  CB        25.9510   77.4070   17.2960 C.3    66  TYR66       0.0534
     37  CG        27.4050   77.2110   16.9160 C.ar   66  TYR66      -0.0201
     38  CD1       28.4300   77.6420   17.7580 C.ar   66  TYR66      -0.0009
     39  CD2       27.7570   76.6140   15.7030 C.ar   66  TYR66      -0.0009
     40  CE1       29.7640   77.4840   17.4020 C.ar   66  TYR66       0.0417
     41  CE2       29.0890   76.4560   15.3380 C.ar   66  TYR66       0.0417
     42  CZ        30.0830   76.8920   16.1920 C.ar   66  TYR66       0.1957
     43  OH        31.3980   76.7430   15.8370 O.3    66  TYR66      -0.2866
     44  N         30.9830   71.2210    9.1220 N.3   114  ASN114     -0.1240
     45  CA        32.2750   71.0790    9.7750 C.3   114  ASN114      0.1653
     46  C         32.9800   70.1060    8.8480 C.2   114  ASN114      0.2266
     47  O         32.7120   68.9060    8.8780 O.2   114  ASN114     -0.2867
     48  CB        32.1320   70.4730   11.1720 C.3   114  ASN114      0.1155
     49  CG        33.4740   70.0470   11.7580 C.2   114  ASN114      0.2627
     50  OD1       34.4980   70.6880   11.5180 O.2   114  ASN114     -0.2716
     51  ND2       33.4690   68.9650   12.5340 N.am  114  ASN114     -0.0877
     52  N         36.0540   68.0230    7.6360 N.3   116  GLN116     -0.1245
     53  CA        37.2930   67.4180    8.1160 C.3   116  GLN116      0.1566
     54  C         37.8550   66.3400    7.1900 C.2   116  GLN116      0.2260
     55  O         37.2530   65.2760    7.0100 O.2   116  GLN116     -0.2867
     56  CB        37.0950   66.8190    9.5160 C.3   116  GLN116      0.0367
     57  CG        36.8560   67.8230   10.6460 C.3   116  GLN116      0.0905
     58  CD        37.9390   68.8960   10.7450 C.2   116  GLN116      0.2608
     59  OE1       39.1300   68.6180   10.5770 O.2   116  GLN116     -0.2717
     60  NE2       37.5270   70.1290   11.0330 N.am  116  GLN116     -0.0878
     61  N         29.8170   67.2410   10.6720 N.3   122  ASP122     -0.1239
     62  CA        28.6880   67.9050   11.3060 C.3   122  ASP122      0.1674
     63  C         28.0110   68.7730   10.2640 C.2   122  ASP122      0.2266
     64  O         28.6650   69.2800    9.3530 O.2   122  ASP122     -0.2867
     65  CB        29.1640   68.7470   12.4870 C.3   122  ASP122      0.1410
     66  CG        29.7550   67.9020   13.5960 C.2   122  ASP122      0.3668
     67  OD1       29.0160   67.0640   14.1620 O.co2 122  ASP122     -0.2456
     68  OD2       30.9600   68.0740   13.8960 O.co2 122  ASP122     -0.2456
     69  N         37.3960   79.5030   12.5130 N.3   171  ASN171     -0.1226
     70  CA        36.8940   78.5210   13.4580 C.3   171  ASN171      0.1770
     71  C         36.8350   79.2760   14.7810 C.2   171  ASN171      0.2439
     72  O         37.8630   79.6900   15.3130 O.2   171  ASN171     -0.2733
     73  CB        37.8370   77.3340   13.5830 C.3   171  ASN171      0.1168
     74  CG        37.2570   76.2400   14.4440 C.2   171  ASN171      0.2627
     75  OD1       36.7440   76.5030   15.5310 O.2   171  ASN171     -0.2716
     76  ND2       37.3300   75.0060   13.9650 N.am  171  ASN171     -0.0877
     77  N         35.6250   79.4630   15.3310 N.am  172  PRO172     -0.2718
     78  CA        35.4490   80.1890   16.5920 C.3   172  PRO172      0.1535
     79  C         36.1260   79.5930   17.8270 C.2   172  PRO172      0.2599
     80  O         36.2620   80.2770   18.8410 O.2   172  PRO172     -0.2715
     81  CB        33.9290   80.2630   16.7260 C.3   172  PRO172      0.0310
     82  CG        33.4940   78.9600   16.1290 C.3   172  PRO172      0.0237
     83  CD        34.3490   78.8710   14.8850 C.3   172  PRO172      0.0939
     84  N         36.5510   78.3340   17.7430 N.am  173  SER173     -0.1936
     85  CA        37.2050   77.6840   18.8760 C.3   173  SER173      0.2055
     86  C         38.7300   77.7750   18.8040 C.2   173  SER173      0.2642
     87  O         39.4320   77.2880   19.6920 O.2   173  SER173     -0.2714
     88  CB        36.7830   76.2130   18.9770 C.3   173  SER173      0.2130
     89  OG        37.2920   75.4510   17.8950 O.3   173  SER173     -0.2179
     90  N         39.2390   78.3940   17.7430 N.am  174  GLU174     -0.1976
     91  CA        40.6770   78.5680   17.5790 C.3   174  GLU174      0.1602
     92  C         40.9460   80.0610   17.6940 C.2   174  GLU174      0.2287
     93  O         40.3510   80.8650   16.9780 O.2   174  GLU174     -0.2864
     94  CB        41.1230   78.0160   16.2240 C.3   174  GLU174      0.0415
     95  CG        40.7190   76.5590   16.0520 C.3   174  GLU174      0.1163
     96  CD        41.2360   75.9320   14.7780 C.2   174  GLU174      0.3649
     97  OE1       41.3310   76.6450   13.7560 O.co2 174  GLU174     -0.2457
     98  OE2       41.5250   74.7150   14.7980 O.co2 174  GLU174     -0.2457
@<TRIPOS>BOND
     1    55    54    2
     2    54    53    1
     3     8     7    2
     4    52    53    1
     5     7     6    1
     6    53    56    1
     7     4     3    2
     8     1     2    1
     9    46    47    2
    10    46    45    1
    11     3     2    1
    12     3     5   am
    13     6     5    1
    14     6     9    1
    15    44    45    1
    16    64    63    2
    17    56    57    1
    18    45    48    1
    19    63    62    1
    20     9    10    1
    21    59    58    2
    22    57    58    1
    23    61    62    1
    24    58    60   am
    25    48    49    1
    26    62    65    1
    27    50    49    2
    28    12    10    1
    29    10    11    1
    30    49    51   am
    31    30    31   ar
    32    30    28   ar
    33    31    29   ar
    34    65    66    1
    35    69    70    1
    36    28    26   ar
    37    70    73    1
    38    70    71    1
    39    73    74    1
    40    66    68   ar
    41    66    67   ar
    42    29    27   ar
    43    97    96   ar
    44    26    27   ar
    45    26    25    1
    46    76    74   am
    47    74    75    2
    48    25    22    1
    49    96    98   ar
    50    96    95    1
    51    71    72    2
    52    71    77   am
    53    35    34    2
    54    83    77    1
    55    83    82    1
    56    77    78    1
    57    41    39   ar
    58    41    42   ar
    59    34    33    1
    60    24    23    2
    61    39    37   ar
    62    43    42    1
    63    22    23    1
    64    22    21    1
    65    95    94    1
    66    82    81    1
    67    42    40   ar
    68    94    91    1
    69    78    81    1
    70    78    79    1
    71    33    36    1
    72    33    32    1
    73    37    36    1
    74    37    38   ar
    75    93    92    2
    76    21    15   am
    77    20    18    1
    78    40    38   ar
    79    91    92    1
    80    91    90    1
    81    19    17    1
    82    84    79   am
    83    84    85    1
    84    90    86   am
    85    79    80    2
    86    89    88    1
    87    18    17    1
    88    15    16    2
    89    15    14    1
    90    17    14    1
    91    86    85    1
    92    86    87    2
    93    85    88    1
    94    14    13    1
