@<TRIPOS>MOLECULE
tmp/4en7B01.pdb
 104 101 0 0 0
SMALL
GASTEIGER

@<TRIPOS>ATOM
      1  N         47.4450   68.0690    5.9490 N.3   257  ARG257     -0.1245
      2  CA        48.2620   66.8640    6.1210 C.3   257  ARG257      0.1563
      3  C         49.4930   67.1210    7.0000 C.2   257  ARG257      0.2260
      4  O         50.2870   68.0300    6.7360 O.2   257  ARG257     -0.2867
      5  CB        48.7140   66.3230    4.7610 C.3   257  ARG257      0.0307
      6  CG        49.1600   64.8680    4.8030 C.3   257  ARG257      0.0489
      7  CD        49.7980   64.4200    3.4970 C.3   257  ARG257      0.2205
      8  NE        50.0180   62.9740    3.4720 N.pl3 257  ARG257     -0.0865
      9  CZ        49.0490   62.0660    3.3830 C.cat 257  ARG257      0.5346
     10  NH1       47.7810   62.4460    3.3030 N.pl3 257  ARG257      0.1354
     11  NH2       49.3440   60.7720    3.3910 N.pl3 257  ARG257      0.1354
     12  N         52.5120   65.5220    7.6000 N.3   259  ASP259     -0.1239
     13  CA        53.8640   65.4470    7.0510 C.3   259  ASP259      0.1674
     14  C         54.1010   66.1680    5.7290 C.2   259  ASP259      0.2266
     15  O         54.9890   65.7880    4.9640 O.2   259  ASP259     -0.2867
     16  CB        54.2760   63.9800    6.9030 C.3   259  ASP259      0.1410
     17  CG        53.2750   63.1700    6.0980 C.2   259  ASP259      0.3668
     18  OD1       52.2680   63.7490    5.6360 O.co2 259  ASP259     -0.2456
     19  OD2       53.4940   61.9500    5.9250 O.co2 259  ASP259     -0.2456
     20  N         55.8300   68.6170    4.4440 N.3   261  LYS261     -0.1245
     21  CA        56.9120   69.5740    4.6230 C.3   261  LYS261      0.1561
     22  C         56.7640   70.5810    3.4820 C.2   261  LYS261      0.2260
     23  O         56.7480   70.2000    2.3060 O.2   261  LYS261     -0.2867
     24  CB        58.2620   68.8610    4.5550 C.3   261  LYS261      0.0271
     25  CG        59.4340   69.7210    4.9900 C.3   261  LYS261      0.0035
     26  CD        60.6980   68.8980    5.1540 C.3   261  LYS261      0.0206
     27  CE        61.8130   69.7270    5.7850 C.3   261  LYS261      0.1093
     28  NZ        62.9930   68.8920    6.1600 N.3   261  LYS261     -0.1314
     29  N         58.0230   69.9950   -0.2790 N.3   308  ILE308     -0.1245
     30  CA        59.3920   69.4930   -0.4260 C.3   308  ILE308      0.1561
     31  C         59.3890   67.9630   -0.4360 C.2   308  ILE308      0.2260
     32  O         58.9830   67.3330    0.5350 O.2   308  ILE308     -0.2867
     33  CB        60.3250   69.9670    0.7200 C.3   308  ILE308      0.0252
     34  CG1       60.5520   71.4770    0.6470 C.3   308  ILE308      0.0019
     35  CG2       61.6730   69.2700    0.6090 C.3   308  ILE308      0.0019
     36  CD1       59.4560   72.2790    1.2640 C.3   308  ILE308      0.0001
     37  N         60.8210   64.1970   -0.2480 N.3   310  ASP310     -0.1225
     38  CA        61.8390   63.4700    0.4990 C.3   310  ASP310      0.1805
     39  C         61.9130   61.9950    0.0810 C.2   310  ASP310      0.2597
     40  O         60.9930   61.4800   -0.5560 O.2   310  ASP310     -0.2718
     41  CB        61.5180   63.5660    1.9920 C.3   310  ASP310      0.1424
     42  CG        60.0910   63.1070    2.3120 C.2   310  ASP310      0.3668
     43  OD1       59.1270   63.7350    1.8070 O.co2 310  ASP310     -0.2456
     44  OD2       59.9300   62.1160    3.0620 O.co2 310  ASP310     -0.2456
     45  N         63.0050   61.3250    0.4550 N.am  311  ASN311     -0.1974
     46  CA        63.2320   59.9110    0.1330 C.3   311  ASN311      0.1688
     47  C         63.2910   59.6710   -1.3720 C.2   311  ASN311      0.2292
     48  O         62.6670   58.7470   -1.8940 O.2   311  ASN311     -0.2864
     49  CB        62.1350   59.0360    0.7440 C.3   311  ASN311      0.1181
     50  CG        61.9530   59.2860    2.2280 C.2   311  ASN311      0.2629
     51  OD1       62.9230   59.5070    2.9550 O.2   311  ASN311     -0.2716
     52  ND2       60.7060   59.2410    2.6890 N.am  311  ASN311     -0.0877
     53  N         57.5830   57.2490   -6.4870 N.3   318  HIS318     -0.1226
     54  CA        57.7530   58.1630   -5.3630 C.3   318  HIS318      0.1752
     55  C         56.4570   58.9530   -5.2620 C.2   318  HIS318      0.2596
     56  O         56.3480   60.0590   -5.7820 O.2   318  HIS318     -0.2718
     57  CB        58.9380   59.1020   -5.6000 C.3   318  HIS318      0.0759
     58  CG        60.2500   58.3940   -5.6960 C.ar  318  HIS318      0.0818
     59  ND1       60.5720   57.5640   -6.7500 N.ar  318  HIS318     -0.2268
     60  CD2       61.3020   58.3450   -4.8460 C.ar  318  HIS318      0.1154
     61  CE1       61.7640   57.0370   -6.5440 C.ar  318  HIS318      0.1986
     62  NE2       62.2290   57.4930   -5.3950 N.ar  318  HIS318     -0.2212
     63  N         55.4720   58.3530   -4.6040 N.am  319  TYR319     -0.1962
     64  CA        54.1610   58.9600   -4.4300 C.3   319  TYR319      0.1771
     65  C         54.0880   59.9670   -3.2930 C.2   319  TYR319      0.2620
     66  O         54.7430   59.8150   -2.2630 O.2   319  TYR319     -0.2715
     67  CB        53.1140   57.8720   -4.1970 C.3   319  TYR319      0.0574
     68  CG        52.9220   56.9560   -5.3770 C.ar  319  TYR319     -0.0198
     69  CD1       52.6040   57.4690   -6.6360 C.ar  319  TYR319     -0.0009
     70  CD2       53.0430   55.5740   -5.2370 C.ar  319  TYR319     -0.0009
     71  CE1       52.4070   56.6270   -7.7320 C.ar  319  TYR319      0.0417
     72  CE2       52.8500   54.7170   -6.3270 C.ar  319  TYR319      0.0417
     73  CZ        52.5300   55.2530   -7.5720 C.ar  319  TYR319      0.1957
     74  OH        52.3260   54.4230   -8.6510 O.3   319  TYR319     -0.2866
     75  N         53.2670   60.9920   -3.4990 N.am  320  TYR320     -0.1960
     76  CA        53.0450   62.0500   -2.5210 C.3   320  TYR320      0.1771
     77  C         51.5730   62.4520   -2.5770 C.2   320  TYR320      0.2620
     78  O         51.1320   63.1100   -3.5240 O.2   320  TYR320     -0.2715
     79  CB        53.9330   63.2500   -2.8400 C.3   320  TYR320      0.0574
     80  CG        55.4020   62.9180   -2.8220 C.ar  320  TYR320     -0.0198
     81  CD1       56.1300   62.9390   -1.6320 C.ar  320  TYR320     -0.0009
     82  CD2       56.0570   62.5310   -3.9870 C.ar  320  TYR320     -0.0009
     83  CE1       57.4820   62.5820   -1.6050 C.ar  320  TYR320      0.0417
     84  CE2       57.4030   62.1690   -3.9710 C.ar  320  TYR320      0.0417
     85  CZ        58.1080   62.1960   -2.7800 C.ar  320  TYR320      0.1957
     86  OH        59.4350   61.8340   -2.7710 O.3   320  TYR320     -0.2866
     87  N         50.8160   62.0300   -1.5680 N.am  321  THR321     -0.1937
     88  CA        49.3940   62.3390   -1.4830 C.3   321  THR321      0.2028
     89  C         49.1730   63.6830   -0.7970 C.2   321  THR321      0.2642
     90  O         49.6380   63.9070    0.3170 O.2   321  THR321     -0.2714
     91  CB        48.6490   61.2470   -0.7050 C.3   321  THR321      0.1808
     92  OG1       48.6770   60.0330   -1.4580 O.3   321  THR321     -0.2208
     93  CG2       47.2190   61.6490   -0.4480 C.3   321  THR321      0.0379
     94  N         48.4630   64.5760   -1.4780 N.am  322  ARG322     -0.1977
     95  CA        48.1770   65.9050   -0.9440 C.3   322  ARG322      0.1597
     96  C         46.7270   66.3020   -1.2450 C.2   322  ARG322      0.2287
     97  O         46.1070   65.7550   -2.1620 O.2   322  ARG322     -0.2864
     98  CB        49.1330   66.9320   -1.5690 C.3   322  ARG322      0.0334
     99  CG        50.6090   66.7040   -1.2680 C.3   322  ARG322      0.0492
    100  CD        50.9800   67.2110    0.1160 C.3   322  ARG322      0.2205
    101  NE        52.3820   66.9570    0.4490 N.pl3 322  ARG322     -0.0865
    102  CZ        52.8720   65.7660    0.7890 C.cat 322  ARG322      0.5346
    103  NH1       52.0780   64.7030    0.8520 N.pl3 322  ARG322      0.1354
    104  NH2       54.1640   65.6380    1.0600 N.pl3 322  ARG322      0.1354
@<TRIPOS>BOND
     1    74    73    1
     2    71    73   ar
     3    71    69   ar
     4    73    72   ar
     5    59    61   ar
     6    59    58   ar
     7    69    68   ar
     8    61    62   ar
     9    53    54    1
    10    72    70   ar
    11    56    55    2
    12    58    57    1
    13    58    60   ar
    14    57    54    1
    15    62    60   ar
    16    68    70   ar
    17    68    67    1
    18    54    55    1
    19    55    63   am
    20    63    64    1
    21    64    67    1
    22    64    65    1
    23    82    84   ar
    24    82    80   ar
    25    84    85   ar
    26    78    77    2
    27    75    65   am
    28    75    76    1
    29    65    66    2
    30    79    80    1
    31    79    76    1
    32    80    81   ar
    33    85    86    1
    34    85    83   ar
    35    77    76    1
    36    77    87   am
    37    97    96    2
    38    48    47    2
    39    81    83   ar
    40    98    99    1
    41    98    95    1
    42    87    88    1
    43    88    89    1
    44    88    91    1
    45    94    95    1
    46    94    89   am
    47    92    91    1
    48    47    46    1
    49    99   100    1
    50    96    95    1
    51    89    90    2
    52    91    93    1
    53    40    39    2
    54    31    30    1
    55    31    32    2
    56    30    29    1
    57    30    33    1
    58    37    38    1
    59    39    45   am
    60    39    38    1
    61   100   101    1
    62    46    45    1
    63    46    49    1
    64   101   102    2
    65    38    41    1
    66    35    33    1
    67    34    33    1
    68    34    36    1
    69    49    50    1
    70   102   103    1
    71   102   104    1
    72    43    42   ar
    73    41    42    1
    74    50    52   am
    75    50    51    2
    76    23    22    2
    77    42    44   ar
    78    10     9    1
    79     9    11    1
    80     9     8    2
    81     8     7    1
    82    22    21    1
    83     7     6    1
    84    20    21    1
    85    24    21    1
    86    24    25    1
    87     5     6    1
    88     5     2    1
    89    15    14    2
    90    25    26    1
    91    26    27    1
    92    18    17   ar
    93    14    13    1
    94    27    28    1
    95    19    17   ar
    96     1     2    1
    97    17    16    1
    98     2     3    1
    99     4     3    2
   100    16    13    1
   101    13    12    1
