@<TRIPOS>MOLECULE
tmp/4en8B01.pdb
 133 129 0 0 0
SMALL
GASTEIGER

@<TRIPOS>ATOM
      1  N         39.2090   67.1610    6.6560 N.3   117  ASN117     -0.1240
      2  CA        39.8890   66.1930    5.7900 C.3   117  ASN117      0.1653
      3  C         39.0130   65.6920    4.6510 C.2   117  ASN117      0.2266
      4  O         38.8410   64.4830    4.4730 O.2   117  ASN117     -0.2867
      5  CB        40.3890   65.0000    6.6140 C.3   117  ASN117      0.1155
      6  CG        41.2660   65.4290    7.7740 C.2   117  ASN117      0.2627
      7  OD1       42.3140   66.0540    7.5790 O.2   117  ASN117     -0.2716
      8  ND2       40.8380   65.1060    8.9940 N.am  117  ASN117     -0.0877
      9  N         47.8940   68.8160    6.0780 N.3   257  ARG257     -0.1231
     10  CA        48.7740   67.6520    6.2380 C.3   257  ARG257      0.1694
     11  C         50.0170   67.9480    7.0860 C.2   257  ARG257      0.2593
     12  O         50.7960   68.8520    6.7740 O.2   257  ARG257     -0.2718
     13  CB        49.2150   67.1280    4.8740 C.3   257  ARG257      0.0321
     14  CG        49.8060   65.7360    4.9450 C.3   257  ARG257      0.0489
     15  CD        50.4430   65.3310    3.6330 C.3   257  ARG257      0.2205
     16  NE        50.6920   63.8930    3.5760 N.pl3 257  ARG257     -0.0865
     17  CZ        49.7500   62.9900    3.3210 C.cat 257  ARG257      0.5346
     18  NH1       48.5060   63.3870    3.0960 N.pl3 257  ARG257      0.1354
     19  NH2       50.0400   61.6940    3.3030 N.pl3 257  ARG257      0.1354
     20  N         50.2040   67.1540    8.1360 N.am  258  SER258     -0.1938
     21  CA        51.3130   67.3250    9.0740 C.3   258  SER258      0.2055
     22  C         52.7360   67.2340    8.5320 C.2   258  SER258      0.2643
     23  O         53.5470   68.1260    8.7710 O.2   258  SER258     -0.2714
     24  CB        51.1670   66.3310   10.2270 C.3   258  SER258      0.2130
     25  OG        49.8910   66.4470   10.8330 O.3   258  SER258     -0.2179
     26  N         53.0480   66.1520    7.8270 N.am  259  ASP259     -0.1971
     27  CA        54.3900   65.9570    7.2820 C.3   259  ASP259      0.1709
     28  C         54.7420   66.8750    6.1100 C.2   259  ASP259      0.2293
     29  O         55.9070   66.9920    5.7380 O.2   259  ASP259     -0.2864
     30  CB        54.5730   64.4970    6.8510 C.3   259  ASP259      0.1436
     31  CG        53.4020   63.9790    6.0330 C.2   259  ASP259      0.3671
     32  OD1       53.0060   64.6490    5.0550 O.co2 259  ASP259     -0.2456
     33  OD2       52.8750   62.8960    6.3650 O.co2 259  ASP259     -0.2456
     34  N         56.2740   69.1910    4.5000 N.3   261  LYS261     -0.1245
     35  CA        57.3280   70.1710    4.7150 C.3   261  LYS261      0.1561
     36  C         57.1920   71.1640    3.5650 C.2   261  LYS261      0.2260
     37  O         57.2330   70.7750    2.3990 O.2   261  LYS261     -0.2867
     38  CB        58.6900   69.4770    4.6830 C.3   261  LYS261      0.0271
     39  CG        59.8440   70.3410    5.1550 C.3   261  LYS261      0.0035
     40  CD        61.1290   69.5290    5.2330 C.3   261  LYS261      0.0206
     41  CE        62.2950   70.3660    5.7490 C.3   261  LYS261      0.1093
     42  NZ        63.5570   69.5660    5.8270 N.3   261  LYS261     -0.1314
     43  N         58.5350   70.6820   -0.2280 N.3   308  ILE308     -0.1245
     44  CA        59.9080   70.1890   -0.3790 C.3   308  ILE308      0.1561
     45  C         59.8910   68.6630   -0.3530 C.2   308  ILE308      0.2260
     46  O         59.4790   68.0700    0.6390 O.2   308  ILE308     -0.2867
     47  CB        60.8330   70.6540    0.7610 C.3   308  ILE308      0.0252
     48  CG1       61.0460   72.1640    0.7050 C.3   308  ILE308      0.0019
     49  CG2       62.1690   69.9370    0.6510 C.3   308  ILE308      0.0019
     50  CD1       60.0510   72.9340    1.4970 C.3   308  ILE308      0.0001
     51  N         61.1240   64.7870   -0.0510 N.3   310  ASP310     -0.1225
     52  CA        62.0530   63.9820    0.7440 C.3   310  ASP310      0.1805
     53  C         62.2250   62.5630    0.1980 C.2   310  ASP310      0.2597
     54  O         61.3440   62.0480   -0.4950 O.2   310  ASP310     -0.2718
     55  CB        61.5430   63.8930    2.1870 C.3   310  ASP310      0.1424
     56  CG        60.0630   63.4770    2.2670 C.2   310  ASP310      0.3668
     57  OD1       59.1950   64.3090    1.9070 O.co2 310  ASP310     -0.2456
     58  OD2       59.7670   62.3270    2.6790 O.co2 310  ASP310     -0.2456
     59  N         63.3540   61.9340    0.5360 N.am  311  ASN311     -0.1974
     60  CA        63.6770   60.5650    0.1130 C.3   311  ASN311      0.1688
     61  C         63.7550   60.3820   -1.3970 C.2   311  ASN311      0.2292
     62  O         63.0870   59.5150   -1.9640 O.2   311  ASN311     -0.2864
     63  CB        62.6610   59.5680    0.6780 C.3   311  ASN311      0.1181
     64  CG        62.4830   59.7060    2.1750 C.2   311  ASN311      0.2629
     65  OD1       63.4610   59.8440    2.9170 O.2   311  ASN311     -0.2716
     66  ND2       61.2310   59.6610    2.6330 N.am  311  ASN311     -0.0877
     67  N         59.4210   54.8520   -8.1240 N.3   317  THR317     -0.1203
     68  CA        58.3530   55.7470   -7.7060 C.3   317  THR317      0.1994
     69  C         58.6680   56.5340   -6.4450 C.2   317  THR317      0.2618
     70  O         59.3460   56.0440   -5.5410 O.2   317  THR317     -0.2717
     71  CB        57.0440   54.9710   -7.4600 C.3   317  THR317      0.1784
     72  OG1       57.2520   53.9960   -6.4280 O.3   317  THR317     -0.2211
     73  CG2       56.5850   54.2800   -8.7380 C.3   317  THR317      0.0376
     74  N         58.1620   57.7640   -6.4070 N.am  318  HIS318     -0.1961
     75  CA        58.3210   58.6680   -5.2730 C.3   318  HIS318      0.1787
     76  C         57.0120   59.4410   -5.1730 C.2   318  HIS318      0.2620
     77  O         56.8680   60.5080   -5.7620 O.2   318  HIS318     -0.2715
     78  CB        59.4870   59.6340   -5.5020 C.3   318  HIS318      0.0785
     79  CG        60.8180   58.9570   -5.5900 C.ar  318  HIS318      0.0821
     80  ND1       61.1830   58.1670   -6.6590 N.ar  318  HIS318     -0.2267
     81  CD2       61.8580   58.9180   -4.7230 C.ar  318  HIS318      0.1154
     82  CE1       62.3880   57.6710   -6.4470 C.ar  318  HIS318      0.1986
     83  NE2       62.8200   58.1100   -5.2780 N.ar  318  HIS318     -0.2212
     84  N         56.0560   58.8840   -4.4390 N.am  319  TYR319     -0.1960
     85  CA        54.7470   59.5020   -4.2830 C.3   319  TYR319      0.1771
     86  C         54.6580   60.5470   -3.1850 C.2   319  TYR319      0.2620
     87  O         55.4230   60.5310   -2.2240 O.2   319  TYR319     -0.2715
     88  CB        53.6940   58.4270   -4.0190 C.3   319  TYR319      0.0574
     89  CG        53.5320   57.4430   -5.1520 C.ar  319  TYR319     -0.0198
     90  CD1       53.2990   57.8840   -6.4570 C.ar  319  TYR319     -0.0009
     91  CD2       53.5940   56.0690   -4.9190 C.ar  319  TYR319     -0.0009
     92  CE1       53.1310   56.9820   -7.5030 C.ar  319  TYR319      0.0417
     93  CE2       53.4250   55.1550   -5.9550 C.ar  319  TYR319      0.0417
     94  CZ        53.1940   55.6180   -7.2450 C.ar  319  TYR319      0.1957
     95  OH        53.0260   54.7130   -8.2720 O.3   319  TYR319     -0.2866
     96  N         53.6970   61.4510   -3.3430 N.am  320  TYR320     -0.1960
     97  CA        53.4420   62.5150   -2.3800 C.3   320  TYR320      0.1771
     98  C         51.9620   62.8930   -2.4320 C.2   320  TYR320      0.2620
     99  O         51.5110   63.5420   -3.3790 O.2   320  TYR320     -0.2715
    100  CB        54.2960   63.7350   -2.7070 C.3   320  TYR320      0.0574
    101  CG        55.7750   63.4480   -2.6920 C.ar  320  TYR320     -0.0198
    102  CD1       56.4650   63.3040   -1.4900 C.ar  320  TYR320     -0.0009
    103  CD2       56.4840   63.2970   -3.8790 C.ar  320  TYR320     -0.0009
    104  CE1       57.8310   63.0170   -1.4730 C.ar  320  TYR320      0.0417
    105  CE2       57.8480   63.0060   -3.8720 C.ar  320  TYR320      0.0417
    106  CZ        58.5120   62.8720   -2.6680 C.ar  320  TYR320      0.1957
    107  OH        59.8590   62.6120   -2.6640 O.3   320  TYR320     -0.2866
    108  N         51.2080   62.4690   -1.4230 N.am  321  THR321     -0.1937
    109  CA        49.7870   62.7780   -1.3530 C.3   321  THR321      0.2028
    110  C         49.5970   64.1370   -0.6790 C.2   321  THR321      0.2642
    111  O         50.2090   64.4140    0.3510 O.2   321  THR321     -0.2714
    112  CB        49.0340   61.7030   -0.5530 C.3   321  THR321      0.1808
    113  OG1       49.1160   60.4510   -1.2420 O.3   321  THR321     -0.2208
    114  CG2       47.5820   62.0940   -0.3770 C.3   321  THR321      0.0379
    115  N         48.7590   64.9860   -1.2690 N.am  322  ARG322     -0.1977
    116  CA        48.4930   66.3180   -0.7230 C.3   322  ARG322      0.1597
    117  C         47.0920   66.7770   -1.1320 C.2   322  ARG322      0.2287
    118  O         46.5470   66.2990   -2.1270 O.2   322  ARG322     -0.2864
    119  CB        49.5200   67.3230   -1.2530 C.3   322  ARG322      0.0334
    120  CG        50.9670   67.0270   -0.8970 C.3   322  ARG322      0.0492
    121  CD        51.3240   67.5310    0.4840 C.3   322  ARG322      0.2205
    122  NE        52.7610   67.4330    0.7320 N.pl3 322  ARG322     -0.0865
    123  CZ        53.4040   66.3010    1.0100 C.cat 322  ARG322      0.5346
    124  NH1       52.7460   65.1530    1.0910 N.pl3 322  ARG322      0.1354
    125  NH2       54.7150   66.3140    1.1860 N.pl3 322  ARG322      0.1354
    126  N         42.3360   64.5580   -2.8400 N.3   411  ASN411     -0.1240
    127  CA        43.7960   64.5930   -2.8490 C.3   411  ASN411      0.1653
    128  C         44.3800   64.3770   -4.2350 C.2   411  ASN411      0.2266
    129  O         43.8100   63.6620   -5.0630 O.2   411  ASN411     -0.2867
    130  CB        44.3550   63.5130   -1.9210 C.3   411  ASN411      0.1155
    131  CG        44.4580   63.9650   -0.4830 C.2   411  ASN411      0.2627
    132  OD1       44.3010   63.1640    0.4320 O.2   411  ASN411     -0.2716
    133  ND2       44.7480   65.2450   -0.2740 N.am  411  ASN411     -0.0877
@<TRIPOS>BOND
     1    73    71    1
     2    95    94    1
     3    67    68    1
     4    68    71    1
     5    68    69    1
     6    92    94   ar
     7    92    90   ar
     8    71    72    1
     9    94    93   ar
    10    80    82   ar
    11    80    79   ar
    12    90    89   ar
    13    82    83   ar
    14    69    74   am
    15    69    70    2
    16    74    75    1
    17    93    91   ar
    18    77    76    2
    19    79    78    1
    20    79    81   ar
    21    78    75    1
    22    83    81   ar
    23    75    76    1
    24    76    84   am
    25    89    91   ar
    26    89    88    1
    27   129   128    2
    28    84    85    1
    29    85    88    1
    30    85    86    1
    31   128   127    1
    32   103   105   ar
    33   103   101   ar
    34   105   106   ar
    35    99    98    2
    36    96    86   am
    37    96    97    1
    38    86    87    2
    39   127   126    1
    40   127   130    1
    41   100   101    1
    42   100    97    1
    43   101   102   ar
    44   106   107    1
    45   106   104   ar
    46    98    97    1
    47    98   108   am
    48   118   117    2
    49    62    61    2
    50   130   131    1
    51   102   104   ar
    52   108   109    1
    53    61    60    1
    54   109   110    1
    55   109   112    1
    56   115   116    1
    57   115   110   am
    58   119   120    1
    59   119   116    1
    60   113   112    1
    61   117   116    1
    62   120   121    1
    63   110   111    2
    64   112   114    1
    65    54    53    2
    66   131   133   am
    67   131   132    2
    68    44    45    1
    69    44    43    1
    70    44    47    1
    71    45    46    2
    72    51    52    1
    73    60    59    1
    74    60    63    1
    75    53    59   am
    76    53    52    1
    77   121   122    1
    78    49    47    1
    79    63    64    1
    80    48    47    1
    81    48    50    1
    82   122   123    2
    83    52    55    1
    84   123   124    1
    85   123   125    1
    86    57    56   ar
    87    64    66   am
    88    64    65    2
    89    55    56    1
    90    56    58   ar
    91    37    36    2
    92    18    17    1
    93    19    17    1
    94    17    16    2
    95    36    35    1
    96    16    15    1
    97    15    14    1
    98     4     3    2
    99    34    35    1
   100     3     2    1
   101    38    35    1
   102    38    39    1
   103    13    14    1
   104    13    10    1
   105    32    31   ar
   106    39    40    1
   107    40    41    1
   108    29    28    2
   109    41    42    1
   110     2     5    1
   111     2     1    1
   112    31    33   ar
   113    31    30    1
   114     9    10    1
   115    28    27    1
   116    10    11    1
   117     5     6    1
   118    12    11    2
   119    30    27    1
   120    11    20   am
   121    27    26    1
   122     7     6    2
   123     6     8   am
   124    26    22   am
   125    20    21    1
   126    22    23    2
   127    22    21    1
   128    21    24    1
   129    24    25    1
