@<TRIPOS>MOLECULE
tmp/4en9B01.pdb
 141 137 0 0 0
SMALL
GASTEIGER

@<TRIPOS>ATOM
      1  N         40.4790   71.8060    6.4420 N.3     8  ASN8       -0.1240
      2  CA        39.5660   71.5180    7.5410 C.3     8  ASN8        0.1653
      3  C         39.0570   72.8370    8.0990 C.2     8  ASN8        0.2266
      4  O         39.7430   73.8570    8.0220 O.2     8  ASN8       -0.2867
      5  CB        40.2700   70.7620    8.6680 C.3     8  ASN8        0.1155
      6  CG        40.8330   69.4380    8.2270 C.2     8  ASN8        0.2627
      7  OD1       40.2640   68.7530    7.3820 O.2     8  ASN8       -0.2716
      8  ND2       41.9530   69.0550    8.8210 N.am    8  ASN8       -0.0877
      9  N         39.0810   66.5120    7.0410 N.3   117  ASN117     -0.1240
     10  CA        39.8020   65.5640    6.1930 C.3   117  ASN117      0.1653
     11  C         38.9820   64.9860    5.0470 C.2   117  ASN117      0.2266
     12  O         38.9350   63.7690    4.8590 O.2   117  ASN117     -0.2867
     13  CB        40.3790   64.4300    7.0520 C.3   117  ASN117      0.1155
     14  CG        41.2600   64.9510    8.1810 C.2   117  ASN117      0.2627
     15  OD1       42.2100   65.7060    7.9540 O.2   117  ASN117     -0.2716
     16  ND2       40.9420   64.5550    9.4060 N.am  117  ASN117     -0.0877
     17  N         46.6220   70.5650    5.5090 N.3   256  ASN256     -0.1225
     18  CA        46.4140   70.1780    6.9040 C.3   256  ASN256      0.1785
     19  C         47.3730   69.0330    7.2650 C.2   256  ASN256      0.2597
     20  O         47.8520   68.9430    8.4020 O.2   256  ASN256     -0.2718
     21  CB        44.9760   69.6910    7.1440 C.3   256  ASN256      0.1169
     22  CG        43.9440   70.7960    7.0170 C.2   256  ASN256      0.2627
     23  OD1       43.3270   70.9740    5.9620 O.2   256  ASN256     -0.2716
     24  ND2       43.7510   71.5470    8.0980 N.am  256  ASN256     -0.0877
     25  N         47.6400   68.1670    6.2850 N.am  257  ARG257     -0.1966
     26  CA        48.5020   66.9940    6.4570 C.3   257  ARG257      0.1729
     27  C         49.7640   67.2290    7.2970 C.2   257  ARG257      0.2617
     28  O         50.6510   67.9970    6.9220 O.2   257  ARG257     -0.2715
     29  CB        48.8900   66.4250    5.0890 C.3   257  ARG257      0.0348
     30  CG        49.4100   64.9990    5.1580 C.3   257  ARG257      0.0492
     31  CD        49.9480   64.5260    3.8240 C.3   257  ARG257      0.2205
     32  NE        50.5770   63.2100    3.9300 N.pl3 257  ARG257     -0.0865
     33  CZ        49.9170   62.0540    3.9620 C.cat 257  ARG257      0.5346
     34  NH1       48.5910   62.0350    3.8920 N.pl3 257  ARG257      0.1354
     35  NH2       50.5910   60.9150    4.0670 N.pl3 257  ARG257      0.1354
     36  N         49.8320   66.5300    8.4260 N.am  258  SER258     -0.1936
     37  CA        50.9320   66.6310    9.3850 C.3   258  SER258      0.2055
     38  C         52.3700   66.5480    8.8750 C.2   258  SER258      0.2643
     39  O         53.1770   67.4200    9.1800 O.2   258  SER258     -0.2714
     40  CB        50.7530   65.5750   10.4790 C.3   258  SER258      0.2130
     41  OG        49.5170   65.7330   11.1480 O.3   258  SER258     -0.2179
     42  N         52.7010   65.5000    8.1270 N.am  259  ASP259     -0.1971
     43  CA        54.0670   65.3290    7.6350 C.3   259  ASP259      0.1709
     44  C         54.4320   66.1370    6.3890 C.2   259  ASP259      0.2293
     45  O         55.5680   66.0850    5.9240 O.2   259  ASP259     -0.2864
     46  CB        54.3550   63.8420    7.3810 C.3   259  ASP259      0.1436
     47  CG        53.3330   63.1880    6.4600 C.2   259  ASP259      0.3671
     48  OD1       53.0140   63.7750    5.4060 O.co2 259  ASP259     -0.2456
     49  OD2       52.8570   62.0760    6.7820 O.co2 259  ASP259     -0.2456
     50  N         56.0250   68.4950    4.8290 N.3   261  LYS261     -0.1245
     51  CA        57.0510   69.5150    4.9970 C.3   261  LYS261      0.1561
     52  C         56.9030   70.4800    3.8180 C.2   261  LYS261      0.2260
     53  O         56.8760   70.0500    2.6620 O.2   261  LYS261     -0.2867
     54  CB        58.4380   68.8680    5.0080 C.3   261  LYS261      0.0271
     55  CG        59.5490   69.8220    5.3940 C.3   261  LYS261      0.0035
     56  CD        60.8950   69.1200    5.4870 C.3   261  LYS261      0.0206
     57  CE        62.0010   70.1080    5.8710 C.3   261  LYS261      0.1093
     58  NZ        63.3480   69.4730    5.9150 N.3   261  LYS261     -0.1314
     59  N         58.1180   69.7890   -0.0960 N.3   308  ILE308     -0.1245
     60  CA        59.4950   69.3180   -0.2030 C.3   308  ILE308      0.1561
     61  C         59.5180   67.7890   -0.1670 C.2   308  ILE308      0.2260
     62  O         59.1930   67.1850    0.8520 O.2   308  ILE308     -0.2867
     63  CB        60.3430   69.8670    0.9500 C.3   308  ILE308      0.0252
     64  CG1       60.2970   71.3940    0.9250 C.3   308  ILE308      0.0019
     65  CG2       61.7760   69.3640    0.8280 C.3   308  ILE308      0.0019
     66  CD1       61.0000   72.0440    2.0870 C.3   308  ILE308      0.0001
     67  N         60.7980   63.9580    0.0580 N.3   310  ASP310     -0.1225
     68  CA        61.7550   63.1890    0.8460 C.3   310  ASP310      0.1805
     69  C         61.9920   61.7830    0.2810 C.2   310  ASP310      0.2597
     70  O         61.1470   61.2430   -0.4340 O.2   310  ASP310     -0.2718
     71  CB        61.2320   63.0660    2.2840 C.3   310  ASP310      0.1424
     72  CG        59.7410   62.6870    2.3390 C.2   310  ASP310      0.3668
     73  OD1       58.8970   63.5470    1.9900 O.co2 310  ASP310     -0.2456
     74  OD2       59.4080   61.5370    2.7200 O.co2 310  ASP310     -0.2456
     75  N         63.1400   61.1960    0.6200 N.am  311  ASN311     -0.1974
     76  CA        63.4960   59.8470    0.1780 C.3   311  ASN311      0.1688
     77  C         63.5170   59.6910   -1.3370 C.2   311  ASN311      0.2292
     78  O         62.7640   58.8930   -1.9020 O.2   311  ASN311     -0.2864
     79  CB        62.5270   58.8220    0.7710 C.3   311  ASN311      0.1181
     80  CG        62.2700   59.0530    2.2430 C.2   311  ASN311      0.2629
     81  OD1       63.1950   59.3200    3.0130 O.2   311  ASN311     -0.2716
     82  ND2       61.0090   58.9450    2.6470 N.am  311  ASN311     -0.0877
     83  N         58.8810   54.0510   -8.0010 N.3   317  THR317     -0.1203
     84  CA        57.8550   55.0060   -7.6010 C.3   317  THR317      0.1994
     85  C         58.1550   55.7430   -6.3030 C.2   317  THR317      0.2618
     86  O         58.7130   55.1750   -5.3630 O.2   317  THR317     -0.2717
     87  CB        56.4840   54.3120   -7.4290 C.3   317  THR317      0.1784
     88  OG1       56.5800   53.3220   -6.3960 O.3   317  THR317     -0.2211
     89  CG2       56.0410   53.6590   -8.7360 C.3   317  THR317      0.0376
     90  N         57.7680   57.0160   -6.2750 N.am  318  HIS318     -0.1961
     91  CA        57.9300   57.8790   -5.1070 C.3   318  HIS318      0.1787
     92  C         56.6480   58.6920   -4.9880 C.2   318  HIS318      0.2620
     93  O         56.5480   59.7970   -5.5150 O.2   318  HIS318     -0.2715
     94  CB        59.1350   58.8050   -5.2750 C.3   318  HIS318      0.0785
     95  CG        60.4400   58.0790   -5.3510 C.ar  318  HIS318      0.0821
     96  ND1       60.8640   57.4230   -6.4890 N.ar  318  HIS318     -0.2267
     97  CD2       61.4030   57.8750   -4.4200 C.ar  318  HIS318      0.1154
     98  CE1       62.0300   56.8490   -6.2540 C.ar  318  HIS318      0.1986
     99  NE2       62.3800   57.1080   -5.0060 N.ar  318  HIS318     -0.2212
    100  N         55.6680   58.1230   -4.2930 N.am  319  TYR319     -0.1960
    101  CA        54.3630   58.7500   -4.1150 C.3   319  TYR319      0.1771
    102  C         54.2500   59.7870   -3.0040 C.2   319  TYR319      0.2620
    103  O         54.9710   59.7360   -2.0060 O.2   319  TYR319     -0.2715
    104  CB        53.3090   57.6680   -3.8970 C.3   319  TYR319      0.0574
    105  CG        53.1290   56.7590   -5.0870 C.ar  319  TYR319     -0.0198
    106  CD1       52.8660   57.2840   -6.3520 C.ar  319  TYR319     -0.0009
    107  CD2       53.1840   55.3740   -4.9460 C.ar  319  TYR319     -0.0009
    108  CE1       52.6550   56.4530   -7.4510 C.ar  319  TYR319      0.0417
    109  CE2       52.9730   54.5300   -6.0390 C.ar  319  TYR319      0.0417
    110  CZ        52.7070   55.0780   -7.2890 C.ar  319  TYR319      0.1957
    111  OH        52.4800   54.2560   -8.3730 O.3   319  TYR319     -0.2866
    112  N         53.3240   60.7240   -3.1970 N.am  320  TYR320     -0.1960
    113  CA        53.0580   61.7940   -2.2390 C.3   320  TYR320      0.1771
    114  C         51.5770   62.1680   -2.3020 C.2   320  TYR320      0.2620
    115  O         51.1130   62.7370   -3.2940 O.2   320  TYR320     -0.2715
    116  CB        53.9150   63.0110   -2.5680 C.3   320  TYR320      0.0574
    117  CG        55.3920   62.7060   -2.5740 C.ar  320  TYR320     -0.0198
    118  CD1       56.1280   62.6950   -1.3860 C.ar  320  TYR320     -0.0009
    119  CD2       56.0470   62.3710   -3.7590 C.ar  320  TYR320     -0.0009
    120  CE1       57.4800   62.3550   -1.3800 C.ar  320  TYR320      0.0417
    121  CE2       57.3960   62.0270   -3.7620 C.ar  320  TYR320      0.0417
    122  CZ        58.1040   62.0200   -2.5720 C.ar  320  TYR320      0.1957
    123  OH        59.4310   61.6720   -2.5750 O.3   320  TYR320     -0.2866
    124  N         50.8410   61.8320   -1.2460 N.am  321  THR321     -0.1937
    125  CA        49.4140   62.1240   -1.1600 C.3   321  THR321      0.2028
    126  C         49.1910   63.4710   -0.4800 C.2   321  THR321      0.2642
    127  O         49.6340   63.6820    0.6490 O.2   321  THR321     -0.2714
    128  CB        48.6830   61.0460   -0.3470 C.3   321  THR321      0.1808
    129  OG1       48.9670   59.7590   -0.9020 O.3   321  THR321     -0.2208
    130  CG2       47.1820   61.2910   -0.3630 C.3   321  THR321      0.0379
    131  N         48.5030   64.3780   -1.1680 N.am  322  ARG322     -0.1977
    132  CA        48.2220   65.7100   -0.6310 C.3   322  ARG322      0.1597
    133  C         46.7940   66.1350   -0.9900 C.2   322  ARG322      0.2287
    134  O         46.2510   65.6830   -2.0010 O.2   322  ARG322     -0.2864
    135  CB        49.2130   66.7240   -1.2100 C.3   322  ARG322      0.0334
    136  CG        50.6790   66.4460   -0.9010 C.3   322  ARG322      0.0492
    137  CD        51.0390   66.8930    0.4990 C.3   322  ARG322      0.2205
    138  NE        52.4700   66.7690    0.7640 N.pl3 322  ARG322     -0.0865
    139  CZ        53.0750   65.6480    1.1510 C.cat 322  ARG322      0.5346
    140  NH1       52.3850   64.5280    1.3290 N.pl3 322  ARG322      0.1354
    141  NH2       54.3830   65.6490    1.3650 N.pl3 322  ARG322      0.1354
@<TRIPOS>BOND
     1    89    87    1
     2   111   110    1
     3    83    84    1
     4    84    87    1
     5    84    85    1
     6   108   110   ar
     7   108   106   ar
     8    87    88    1
     9   110   109   ar
    10    96    98   ar
    11    96    95   ar
    12   106   105   ar
    13    85    90   am
    14    85    86    2
    15    90    91    1
    16    98    99   ar
    17   109   107   ar
    18    93    92    2
    19    95    94    1
    20    95    97   ar
    21    94    91    1
    22    91    92    1
    23   105   107   ar
    24   105   104    1
    25    99    97   ar
    26    92   100   am
    27   100   101    1
    28   101   104    1
    29   101   102    1
    30   121   119   ar
    31   121   122   ar
    32   119   117   ar
    33   115   114    2
    34   112   102   am
    35   112   113    1
    36   102   103    2
    37   123   122    1
    38   117   116    1
    39   117   118   ar
    40   122   120   ar
    41   116   113    1
    42   114   113    1
    43   114   124   am
    44   134   133    2
    45    78    77    2
    46   118   120   ar
    47    77    76    1
    48   124   125    1
    49   135   136    1
    50   135   132    1
    51   131   132    1
    52   131   126   am
    53   125   126    1
    54   125   128    1
    55   133   132    1
    56   129   128    1
    57   136   137    1
    58   126   127    2
    59    70    69    2
    60   130   128    1
    61    60    61    1
    62    60    59    1
    63    60    63    1
    64    61    62    2
    65    67    68    1
    66    76    75    1
    67    76    79    1
    68    69    75   am
    69    69    68    1
    70   137   138    1
    71   138   139    2
    72    79    80    1
    73    65    63    1
    74    68    71    1
    75    64    63    1
    76    64    66    1
    77   139   140    1
    78   139   141    1
    79    73    72   ar
    80    80    82   am
    81    80    81    2
    82    71    72    1
    83    72    74   ar
    84    53    52    2
    85    52    51    1
    86    31    32    1
    87    31    30    1
    88    34    33    1
    89    32    33    2
    90    33    35    1
    91    50    51    1
    92    12    11    2
    93    51    54    1
    94    54    55    1
    95    11    10    1
    96    29    30    1
    97    29    26    1
    98    55    56    1
    99    48    47   ar
   100    56    57    1
   101    17    18    1
   102    57    58    1
   103    45    44    2
   104    23    22    2
   105    10     9    1
   106    10    13    1
   107    25    26    1
   108    25    19   am
   109    44    43    1
   110     1     2    1
   111    26    27    1
   112    47    49   ar
   113    47    46    1
   114    18    21    1
   115    18    19    1
   116    28    27    2
   117    22    21    1
   118    22    24   am
   119    13    14    1
   120    19    20    2
   121    27    36   am
   122    46    43    1
   123     7     6    2
   124     2     3    1
   125     2     5    1
   126    43    42    1
   127    15    14    2
   128     4     3    2
   129    42    38   am
   130    14    16   am
   131     6     5    1
   132     6     8   am
   133    36    37    1
   134    38    39    2
   135    38    37    1
   136    37    40    1
   137    40    41    1
