@<TRIPOS>MOLECULE
tmp/4endA02.pdb
 95 93 0 0 0
SMALL
GASTEIGER

@<TRIPOS>ATOM
      1  N        -14.4200  -14.0640    2.5000 N.3    91  ASP91      -0.1225
      2  CA       -14.5570  -13.1330    1.3890 C.3    91  ASP91       0.1805
      3  C        -15.2460  -11.9250    1.9820 C.2    91  ASP91       0.2598
      4  O        -15.9070  -12.0330    3.0090 O.2    91  ASP91      -0.2718
      5  CB       -15.4170  -13.8700    0.3000 C.3    91  ASP91       0.1424
      6  CG       -15.3470  -13.2620   -1.0660 C.2    91  ASP91       0.3668
      7  OD1      -14.8970  -12.0660   -1.2100 O.co2  91  ASP91      -0.2456
      8  OD2      -15.8250  -13.9270   -2.0170 O.co2  91  ASP91      -0.2456
      9  N        -15.1290  -10.7560    1.3520 N.am   92  SER92      -0.1938
     10  CA       -15.8390   -9.5840    1.8460 C.3    92  SER92       0.2055
     11  C        -15.9060   -8.5370    0.7230 C.2    92  SER92       0.2643
     12  O        -15.2450   -8.6830   -0.3310 O.2    92  SER92      -0.2714
     13  CB       -15.1540   -8.9670    3.0670 C.3    92  SER92       0.2130
     14  OG       -13.9120   -8.3560    2.6890 O.3    92  SER92      -0.2179
     15  N        -16.7290   -7.5190    0.9470 N.am   93  ASN93      -0.1957
     16  CA       -16.9820   -6.5560   -0.1130 C.3    93  ASN93       0.1819
     17  C        -16.6790   -5.1700    0.3850 C.2    93  ASN93       0.2621
     18  O        -16.3570   -4.9830    1.5700 O.2    93  ASN93      -0.2715
     19  CB       -18.4270   -6.7050   -0.6890 C.3    93  ASN93       0.1195
     20  CG       -19.5110   -6.4330    0.3140 C.2    93  ASN93       0.2630
     21  OD1      -19.2610   -5.8710    1.3810 O.2    93  ASN93      -0.2716
     22  ND2      -20.7820   -6.7830   -0.0490 N.am   93  ASN93      -0.0877
     23  N        -16.7950   -4.1800   -0.4880 N.am   94  TYR94      -0.1974
     24  CA       -16.4860   -2.8090   -0.0810 C.3    94  TYR94       0.1639
     25  C        -17.4030   -2.2130    0.9980 C.2    94  TYR94       0.2290
     26  O        -16.9180   -1.4260    1.7920 O.2    94  TYR94      -0.2864
     27  CB       -16.4400   -1.8790   -1.3070 C.3    94  TYR94       0.0560
     28  CG       -15.1430   -1.8460   -2.0270 C.ar   94  TYR94      -0.0198
     29  CD1      -14.0950   -0.9950   -1.6110 C.ar   94  TYR94      -0.0009
     30  CD2      -14.9580   -2.6980   -3.1640 C.ar   94  TYR94      -0.0009
     31  CE1      -12.8930   -0.9790   -2.3240 C.ar   94  TYR94       0.0417
     32  CE2      -13.7910   -2.6980   -3.8590 C.ar   94  TYR94       0.0417
     33  CZ       -12.7600   -1.8480   -3.4630 C.ar   94  TYR94       0.1957
     34  OH       -11.5980   -1.8520   -4.1880 O.3    94  TYR94      -0.2866
     35  N        -18.5160  -13.0630    4.2160 N.3    99  TYR99      -0.1241
     36  CA       -19.2610  -14.2720    3.8300 C.3    99  TYR99       0.1605
     37  C        -18.2280  -15.2300    3.3680 C.2    99  TYR99       0.2264
     38  O        -17.0480  -14.8700    3.2720 O.2    99  TYR99      -0.2867
     39  CB       -20.3350  -13.9720    2.6930 C.3    99  TYR99       0.0534
     40  CG       -19.8470  -12.9250    1.6610 C.ar   99  TYR99      -0.0201
     41  CD1      -19.0870  -13.3150    0.5900 C.ar   99  TYR99      -0.0009
     42  CD2      -20.1210  -11.5680    1.8270 C.ar   99  TYR99      -0.0009
     43  CE1      -18.6060  -12.4030   -0.3290 C.ar   99  TYR99       0.0417
     44  CE2      -19.6780  -10.6450    0.9150 C.ar   99  TYR99       0.0417
     45  CZ       -18.9120  -11.0690   -0.1550 C.ar   99  TYR99       0.1957
     46  OH       -18.4160  -10.1610   -1.0430 O.3    99  TYR99      -0.2866
     47  N        -17.3790  -17.9220    0.0770 N.3   101  LEU101     -0.1245
     48  CA       -17.7390  -18.3060   -1.2970 C.3   101  LEU101      0.1561
     49  C        -16.7430  -19.3370   -1.7880 C.2   101  LEU101      0.2260
     50  O        -15.5970  -19.4040   -1.3380 O.2   101  LEU101     -0.2867
     51  CB       -17.7240  -17.0390   -2.2220 C.3   101  LEU101      0.0270
     52  CG       -18.9990  -16.1660   -2.3150 C.3   101  LEU101      0.0019
     53  CD1      -18.8120  -14.9150   -3.2620 C.3   101  LEU101      0.0001
     54  CD2      -20.2530  -17.0040   -2.7420 C.3   101  LEU101      0.0001
     55  N        -12.5930  -18.0650   -6.1520 N.3   104  ASN104     -0.1240
     56  CA       -12.6450  -17.5760   -7.5680 C.3   104  ASN104      0.1653
     57  C        -11.3800  -16.8130   -8.0020 C.2   104  ASN104      0.2266
     58  O        -11.3300  -16.2140   -9.1070 O.2   104  ASN104     -0.2867
     59  CB       -13.8890  -16.6850   -7.7860 C.3   104  ASN104      0.1155
     60  CG       -13.9240  -15.4550   -6.8400 C.2   104  ASN104      0.2627
     61  OD1      -12.9060  -14.8300   -6.5850 O.2   104  ASN104     -0.2716
     62  ND2      -15.1390  -15.0820   -6.3820 N.am  104  ASN104     -0.0877
     63  N        -10.1520  -13.9960   -6.9740 N.3   106  GLY106     -0.1210
     64  CA       -10.1520  -12.5360   -7.0380 C.3   106  GLY106      0.1956
     65  C         -9.6440  -12.0190   -5.7000 C.2   106  GLY106      0.2612
     66  O         -9.4650  -12.7810   -4.7110 O.2   106  GLY106     -0.2717
     67  N         -9.3390  -10.7350   -5.6730 N.am  107  ASN107     -0.1960
     68  CA        -8.6750  -10.1510   -4.5320 C.3   107  ASN107      0.1819
     69  C         -9.4940   -9.9430   -3.3010 C.2   107  ASN107      0.2621
     70  O         -8.9090   -9.7740   -2.2400 O.2   107  ASN107     -0.2715
     71  CB        -8.0100   -8.8350   -4.9380 C.3   107  ASN107      0.1195
     72  CG        -6.5570   -9.0520   -5.2220 C.2   107  ASN107      0.2630
     73  OD1       -5.8000   -9.5090   -4.3440 O.2   107  ASN107     -0.2716
     74  ND2       -6.1650   -8.8410   -6.4760 N.am  107  ASN107     -0.0877
     75  N        -10.8330   -9.9810   -3.4200 N.am  108  TYR108     -0.1960
     76  CA       -11.6760   -9.8530   -2.2540 C.3   108  TYR108      0.1771
     77  C        -11.5000  -11.1000   -1.3350 C.2   108  TYR108      0.2619
     78  O        -11.9260  -11.0580   -0.1620 O.2   108  TYR108     -0.2715
     79  CB       -13.1270   -9.8780   -2.7430 C.3   108  TYR108      0.0574
     80  CG       -13.4820   -8.6090   -3.5620 C.ar  108  TYR108     -0.0198
     81  CD1      -13.4430   -8.6360   -4.9300 C.ar  108  TYR108     -0.0009
     82  CD2      -13.8080   -7.4110   -2.9110 C.ar  108  TYR108     -0.0009
     83  CE1      -13.7760   -7.5160   -5.7020 C.ar  108  TYR108      0.0417
     84  CE2      -14.1260   -6.2570   -3.6410 C.ar  108  TYR108      0.0417
     85  CZ       -14.1390   -6.3690   -5.0600 C.ar  108  TYR108      0.1957
     86  OH       -14.4480   -5.2730   -5.8130 O.3   108  TYR108     -0.2866
     87  N        -11.0290  -12.2110   -1.9330 N.am  109  GLN109     -0.1977
     88  CA       -10.8150  -13.4750   -1.2100 C.3   109  GLN109      0.1601
     89  C         -9.4100  -13.6000   -0.6360 C.2   109  GLN109      0.2287
     90  O         -9.0740  -14.6240   -0.0490 O.2   109  GLN109     -0.2864
     91  CB       -11.0830  -14.6580   -2.1330 C.3   109  GLN109      0.0394
     92  CG       -12.5540  -14.7690   -2.3910 C.3   109  GLN109      0.0908
     93  CD       -12.9620  -15.9080   -3.2710 C.2   109  GLN109      0.2608
     94  OE1      -12.1530  -16.4990   -3.9390 O.2   109  GLN109     -0.2717
     95  NE2      -14.2720  -16.2230   -3.2640 N.am  109  GLN109     -0.0878
@<TRIPOS>BOND
     1    58    57    2
     2    57    56    1
     3    59    56    1
     4    59    60    1
     5    56    55    1
     6    64    63    1
     7    64    65    1
     8    60    61    2
     9    60    62   am
    10    74    72   am
    11    86    85    1
    12    83    85   ar
    13    83    81   ar
    14    65    67   am
    15    65    66    2
    16    67    68    1
    17    72    71    1
    18    72    73    2
    19    85    84   ar
    20    71    68    1
    21    81    80   ar
    22    68    69    1
    23    34    33    1
    24    94    93    2
    25    32    33   ar
    26    32    30   ar
    27    84    82   ar
    28    80    82   ar
    29    80    79    1
    30    33    31   ar
    31    75    69   am
    32    75    76    1
    33    69    70    2
    34    93    95   am
    35    93    92    1
    36    53    52    1
    37    30    28   ar
    38    79    76    1
    39    54    52    1
    40    92    91    1
    41    31    29   ar
    42    52    51    1
    43    76    77    1
    44    51    48    1
    45    91    88    1
    46    28    29   ar
    47    28    27    1
    48     8     6   ar
    49    87    77   am
    50    87    88    1
    51    49    50    2
    52    49    48    1
    53    77    78    2
    54    27    24    1
    55    48    47    1
    56    88    89    1
    57     7     6   ar
    58     6     5    1
    59    46    45    1
    60    19    16    1
    61    19    20    1
    62    89    90    2
    63    23    24    1
    64    23    17   am
    65    12    11    2
    66    43    45   ar
    67    43    41   ar
    68    45    44   ar
    69    16    17    1
    70    16    15    1
    71    24    25    1
    72    22    20   am
    73     5     2    1
    74    20    21    2
    75    17    18    2
    76    41    40   ar
    77    11    15   am
    78    11    10    1
    79    44    42   ar
    80    25    26    2
    81     9    10    1
    82     9     3   am
    83     2     3    1
    84     2     1    1
    85    40    42   ar
    86    40    39    1
    87    10    13    1
    88     3     4    2
    89    14    13    1
    90    39    36    1
    91    38    37    2
    92    37    36    1
    93    36    35    1
