@<TRIPOS>MOLECULE
tmp/4endA00.pdb
 81 78 0 0 0
SMALL
GASTEIGER

@<TRIPOS>ATOM
      1  N        -16.4410  -18.3400   12.3870 N.3    53  ASP53      -0.1225
      2  CA       -17.2260  -19.5500   12.1560 C.3    53  ASP53       0.1805
      3  C        -18.0230  -19.3080   10.8540 C.2    53  ASP53       0.2598
      4  O        -18.1870  -18.1900   10.4490 O.2    53  ASP53      -0.2718
      5  CB       -18.1750  -19.7390   13.3330 C.3    53  ASP53       0.1424
      6  CG       -18.7600  -21.1830   13.4800 C.2    53  ASP53       0.3668
      7  OD1      -19.3160  -21.4570   14.5880 O.co2  53  ASP53      -0.2456
      8  OD2      -18.7120  -22.0270   12.5540 O.co2  53  ASP53      -0.2456
      9  N        -18.4550  -20.3430   10.1850 N.am   54  SER54      -0.1938
     10  CA       -19.2290  -20.1700    8.9450 C.3    54  SER54       0.2055
     11  C        -19.9440  -21.4980    8.5930 C.2    54  SER54       0.2643
     12  O        -19.6160  -22.5940    9.1470 O.2    54  SER54      -0.2714
     13  CB       -18.3130  -19.7230    7.7750 C.3    54  SER54       0.2130
     14  OG       -17.5420  -20.8010    7.2930 O.3    54  SER54      -0.2179
     15  N        -20.9370  -21.4040    7.6950 N.am   55  ASN55      -0.1971
     16  CA       -21.7250  -22.5710    7.3690 C.3    55  ASN55       0.1688
     17  C        -21.7150  -22.7770    5.8450 C.2    55  ASN55       0.2292
     18  O        -21.0920  -22.0110    5.0850 O.2    55  ASN55      -0.2864
     19  CB       -23.1510  -22.4670    7.9450 C.3    55  ASN55       0.1181
     20  CG       -23.9330  -21.2790    7.3660 C.2    55  ASN55       0.2629
     21  OD1      -23.5640  -20.7760    6.3140 O.2    55  ASN55      -0.2716
     22  ND2      -24.9990  -20.8540    8.0350 N.am   55  ASN55      -0.0877
     23  N        -19.8800  -15.6340   11.0410 N.3    61  TYR61      -0.1241
     24  CA       -20.3230  -15.1910   12.3400 C.3    61  TYR61       0.1605
     25  C        -19.2630  -15.6370   13.3430 C.2    61  TYR61       0.2264
     26  O        -18.3410  -16.3720   13.0040 O.2    61  TYR61      -0.2867
     27  CB       -21.7240  -15.7530   12.7020 C.3    61  TYR61       0.0534
     28  CG       -21.9120  -17.1400   12.2780 C.ar   61  TYR61      -0.0201
     29  CD1      -21.6180  -18.2140   13.1390 C.ar   61  TYR61      -0.0009
     30  CD2      -22.3420  -17.4260   10.9830 C.ar   61  TYR61      -0.0009
     31  CE1      -21.7830  -19.5070   12.7230 C.ar   61  TYR61       0.0417
     32  CE2      -22.5440  -18.7290   10.5680 C.ar   61  TYR61       0.0417
     33  CZ       -22.2640  -19.7680   11.4390 C.ar   61  TYR61       0.1957
     34  OH       -22.4340  -21.0680   10.9890 O.3    61  TYR61      -0.2866
     35  N        -18.9870  -17.5920   17.1670 N.3    63  LEU63      -0.1245
     36  CA       -19.6300  -18.3430   18.2570 C.3    63  LEU63       0.1561
     37  C        -18.5800  -18.7390   19.2950 C.2    63  LEU63       0.2260
     38  O        -17.4210  -18.9060   18.9930 O.2    63  LEU63      -0.2867
     39  CB       -20.3320  -19.6110   17.6990 C.3    63  LEU63       0.0270
     40  CG       -21.6540  -19.4370   16.9780 C.3    63  LEU63       0.0019
     41  CD1      -22.0410  -20.7420   16.3900 C.3    63  LEU63       0.0001
     42  CD2      -22.5990  -18.9960   18.0740 C.3    63  LEU63       0.0001
     43  N        -16.3570  -24.3130   19.8870 N.3    66  ASN66      -0.1240
     44  CA       -17.0850  -25.5520   20.2860 C.3    66  ASN66       0.1653
     45  C        -16.4530  -26.7970   19.7650 C.2    66  ASN66       0.2266
     46  O        -17.0650  -27.8460   19.8320 O.2    66  ASN66      -0.2867
     47  CB       -18.5230  -25.5430   19.7710 C.3    66  ASN66       0.1155
     48  CG       -18.5980  -25.3150   18.2650 C.2    66  ASN66       0.2627
     49  OD1      -17.7010  -25.7230   17.4890 O.2    66  ASN66      -0.2716
     50  ND2      -19.5960  -24.5740   17.8680 N.am   66  ASN66      -0.0877
     51  N        -15.9400  -27.8770   16.6970 N.3    68  GLY68      -0.1210
     52  CA       -16.3630  -28.3170   15.3760 C.3    68  GLY68       0.1956
     53  C        -15.4470  -27.7950   14.2830 C.2    68  GLY68       0.2613
     54  O        -14.7610  -26.7910   14.4830 O.2    68  GLY68      -0.2717
     55  N        -15.3950  -28.4620   13.1390 N.am   69  SER69      -0.1938
     56  CA       -14.4840  -27.9920   12.0690 C.3    69  SER69       0.2055
     57  C        -15.0410  -26.8140   11.2570 C.2    69  SER69       0.2643
     58  O        -14.3100  -26.2290   10.5200 O.2    69  SER69      -0.2714
     59  CB       -14.1210  -29.1140   11.1320 C.3    69  SER69       0.2130
     60  OG       -15.2960  -29.7070   10.7320 O.3    69  SER69      -0.2179
     61  N        -16.2790  -26.3710   11.4860 N.am   70  TYR70      -0.1959
     62  CA       -16.7620  -25.0780   10.9090 C.3    70  TYR70       0.1771
     63  C        -15.9810  -23.9340   11.4630 C.2    70  TYR70       0.2619
     64  O        -15.8850  -22.8790   10.8730 O.2    70  TYR70      -0.2715
     65  CB       -18.2470  -24.8580   11.1970 C.3    70  TYR70       0.0574
     66  CG       -19.2230  -25.8340   10.5180 C.ar   70  TYR70      -0.0198
     67  CD1      -19.6710  -25.6070    9.1980 C.ar   70  TYR70      -0.0009
     68  CD2      -19.7190  -26.9490   11.2070 C.ar   70  TYR70      -0.0009
     69  CE1      -20.5800  -26.4660    8.5770 C.ar   70  TYR70       0.0417
     70  CE2      -20.6390  -27.8250   10.6040 C.ar   70  TYR70       0.0417
     71  CZ       -21.0760  -27.5680    9.3000 C.ar   70  TYR70       0.1957
     72  OH       -21.9820  -28.4170    8.7080 O.3    70  TYR70      -0.2866
     73  N        -15.3420  -24.1630   12.6010 N.am   71  GLN71      -0.1977
     74  CA       -14.6030  -23.1200   13.2630 C.3    71  GLN71       0.1601
     75  C        -13.1040  -23.2800   12.9990 C.2    71  GLN71       0.2287
     76  O        -12.2880  -22.5760   13.6180 O.2    71  GLN71      -0.2864
     77  CB       -14.8690  -23.1720   14.7790 C.3    71  GLN71       0.0394
     78  CG       -16.3400  -22.6900   15.0870 C.3    71  GLN71       0.0908
     79  CD       -16.6300  -22.6930   16.5370 C.2    71  GLN71       0.2608
     80  OE1      -15.8500  -23.2190   17.3370 O.2    71  GLN71      -0.2717
     81  NE2      -17.7490  -22.1380   16.8970 N.am   71  GLN71      -0.0878
@<TRIPOS>BOND
     1    18    17    2
     2    17    16    1
     3    21    20    2
     4    14    13    1
     5    20    19    1
     6    20    22   am
     7    16    15    1
     8    16    19    1
     9    15    11   am
    10    13    10    1
    11    69    67   ar
    12    69    71   ar
    13    11    10    1
    14    11    12    2
    15    72    71    1
    16    10     9    1
    17    67    66   ar
    18    71    70   ar
    19     9     3   am
    20     4     3    2
    21    66    65    1
    22    66    68   ar
    23    58    57    2
    24    32    30   ar
    25    32    33   ar
    26    70    68   ar
    27    60    59    1
    28     3     2    1
    29    64    63    2
    30    62    65    1
    31    62    63    1
    32    62    61    1
    33    30    28   ar
    34    34    33    1
    35    23    24    1
    36    59    56    1
    37    57    61   am
    38    57    56    1
    39    33    31   ar
    40    63    73   am
    41    56    55    1
    42     2     1    1
    43     2     5    1
    44    28    27    1
    45    28    29   ar
    46    24    27    1
    47    24    25    1
    48     8     6   ar
    49    73    74    1
    50    31    29   ar
    51    75    74    1
    52    75    76    2
    53    26    25    2
    54    55    53   am
    55    74    77    1
    56     5     6    1
    57     6     7   ar
    58    53    54    2
    59    53    52    1
    60    77    78    1
    61    78    79    1
    62    52    51    1
    63    41    40    1
    64    79    81   am
    65    79    80    2
    66    40    39    1
    67    40    42    1
    68    35    36    1
    69    49    48    2
    70    39    36    1
    71    50    48   am
    72    36    37    1
    73    48    47    1
    74    38    37    2
    75    45    46    2
    76    45    44    1
    77    47    44    1
    78    43    44    1
