@<TRIPOS>MOLECULE
tmp/4endA01.pdb
 95 93 0 0 0
SMALL
GASTEIGER

@<TRIPOS>ATOM
      1  N        -13.4500   -7.9500   11.6230 N.3    15  ASP15      -0.1225
      2  CA       -13.8950   -7.3800   12.8590 C.3    15  ASP15       0.1805
      3  C        -15.1810   -8.1270   13.2980 C.2    15  ASP15       0.2598
      4  O        -15.8920   -8.7150   12.4660 O.2    15  ASP15      -0.2718
      5  CB       -14.2480   -5.9170   12.5160 C.3    15  ASP15       0.1424
      6  CG       -14.3350   -5.0140   13.7020 C.2    15  ASP15       0.3668
      7  OD1      -14.3590   -3.7520   13.4880 O.co2  15  ASP15      -0.2456
      8  OD2      -14.4810   -5.5010   14.8440 O.co2  15  ASP15      -0.2456
      9  N        -15.4830   -8.0930   14.5970 N.am   16  SER16      -0.1938
     10  CA       -16.6750   -8.7600   15.0600 C.3    16  SER16       0.2055
     11  C        -17.0740   -8.2330   16.3910 C.2    16  SER16       0.2643
     12  O        -16.3070   -7.5390   17.0870 O.2    16  SER16      -0.2714
     13  CB       -16.4940  -10.2910   15.1090 C.3    16  SER16       0.2130
     14  OG       -15.6060  -10.6680   16.1380 O.3    16  SER16      -0.2179
     15  N        -18.2890   -8.5730   16.7880 N.am   17  ASN17      -0.1957
     16  CA       -18.8100   -8.0440   18.0270 C.3    17  ASN17       0.1819
     17  C        -19.2760   -9.1740   18.9880 C.2    17  ASN17       0.2621
     18  O        -19.2670  -10.3450   18.6600 O.2    17  ASN17      -0.2715
     19  CB       -19.9480   -7.0200   17.7040 C.3    17  ASN17       0.1195
     20  CG       -21.1510   -7.6590   17.0070 C.2    17  ASN17       0.2630
     21  OD1      -21.3300   -8.8790   17.0110 O.2    17  ASN17      -0.2716
     22  ND2      -21.9640   -6.8300   16.3720 N.am   17  ASN17      -0.0877
     23  N        -19.8030   -8.7970   20.1260 N.am   18  TYR18      -0.1974
     24  CA       -20.2710   -9.8030   21.1040 C.3    18  TYR18       0.1639
     25  C        -21.5580  -10.4620   20.7040 C.2    18  TYR18       0.2290
     26  O        -21.8640  -11.5360   21.1970 O.2    18  TYR18      -0.2864
     27  CB       -20.4900   -9.1420   22.4550 C.3    18  TYR18       0.0560
     28  CG       -19.2140   -8.8660   23.1770 C.ar   18  TYR18      -0.0198
     29  CD1      -18.5720   -9.8900   23.8790 C.ar   18  TYR18      -0.0009
     30  CD2      -18.6600   -7.5820   23.2040 C.ar   18  TYR18      -0.0009
     31  CE1      -17.3850   -9.6540   24.5750 C.ar   18  TYR18       0.0417
     32  CE2      -17.4990   -7.3390   23.9160 C.ar   18  TYR18       0.0417
     33  CZ       -16.8950   -8.3740   24.6150 C.ar   18  TYR18       0.1957
     34  OH       -15.7360   -8.1720   25.3110 O.3    18  TYR18      -0.2866
     35  N        -17.8420   -8.7060   10.2010 N.3    23  TYR23      -0.1241
     36  CA       -17.9030   -7.6870    9.1460 C.3    23  TYR23       0.1605
     37  C        -16.4660   -7.1440    8.9590 C.2    23  TYR23       0.2264
     38  O        -15.5250   -7.5850    9.6660 O.2    23  TYR23      -0.2867
     39  CB       -18.8950   -6.5570    9.5380 C.3    23  TYR23       0.0534
     40  CG       -18.8100   -6.1810   11.0220 C.ar   23  TYR23      -0.0201
     41  CD1      -19.6990   -6.8000   11.9900 C.ar   23  TYR23      -0.0009
     42  CD2      -17.8840   -5.2370   11.4800 C.ar   23  TYR23      -0.0009
     43  CE1      -19.5920   -6.4940   13.3600 C.ar   23  TYR23       0.0417
     44  CE2      -17.7760   -4.9310   12.8190 C.ar   23  TYR23       0.0417
     45  CZ       -18.6310   -5.5700   13.7600 C.ar   23  TYR23       0.1957
     46  OH       -18.5580   -5.2840   15.0770 O.3    23  TYR23      -0.2866
     47  N        -14.2830   -3.3970    8.6860 N.3    25  LEU25      -0.1245
     48  CA       -14.3850   -1.9400    8.9230 C.3    25  LEU25       0.1561
     49  C        -13.0090   -1.3270    8.6790 C.2    25  LEU25       0.2260
     50  O        -11.9870   -2.0050    8.9140 O.2    25  LEU25      -0.2867
     51  CB       -14.7940   -1.6550   10.4030 C.3    25  LEU25       0.0270
     52  CG       -16.2810   -1.6000   10.7460 C.3    25  LEU25       0.0019
     53  CD1      -16.4760   -1.3390   12.2480 C.3    25  LEU25       0.0001
     54  CD2      -17.0260   -0.5690    9.8550 C.3    25  LEU25       0.0001
     55  N         -9.6820    0.9600   13.2190 N.3    28  ASN28      -0.1240
     56  CA       -10.0510    1.9850   14.2200 C.3    28  ASN28       0.1653
     57  C         -9.2830    1.8240   15.5190 C.2    28  ASN28       0.2266
     58  O         -9.5370    2.4830   16.5180 O.2    28  ASN28      -0.2867
     59  CB       -11.5360    1.9620   14.4740 C.3    28  ASN28       0.1155
     60  CG       -12.0170    0.6220   15.0390 C.2    28  ASN28       0.2627
     61  OD1      -11.2140   -0.1670   15.5540 O.2    28  ASN28      -0.2716
     62  ND2      -13.3360    0.3520   14.9230 N.am   28  ASN28      -0.0877
     63  N         -9.1660   -0.6030   17.5840 N.3    30  GLY30      -0.1210
     64  CA        -9.8330   -1.3010   18.6840 C.3    30  GLY30       0.1956
     65  C         -9.4400   -2.7740   18.7120 C.2    30  GLY30       0.2612
     66  O         -9.0160   -3.3650   17.7120 O.2    30  GLY30      -0.2717
     67  N         -9.6000   -3.3950   19.8540 N.am   31  ASN31      -0.1960
     68  CA        -9.3360   -4.8270   19.9210 C.3    31  ASN31       0.1819
     69  C        -10.2530   -5.7880   19.2240 C.2    31  ASN31       0.2621
     70  O         -9.9290   -6.9630   19.0730 O.2    31  ASN31      -0.2715
     71  CB        -9.1990   -5.2590   21.3650 C.3    31  ASN31       0.1195
     72  CG        -7.8330   -5.6320   21.6380 C.2    31  ASN31       0.2630
     73  OD1       -7.3810   -6.6710   21.2020 O.2    31  ASN31      -0.2716
     74  ND2       -7.0790   -4.7100   22.2470 N.am   31  ASN31      -0.0877
     75  N        -11.4140   -5.3150   18.8130 N.am   32  TYR32      -0.1960
     76  CA       -12.3570   -6.1530   18.0710 C.3    32  TYR32       0.1771
     77  C        -11.8150   -6.4810   16.6740 C.2    32  TYR32       0.2619
     78  O        -12.2990   -7.4120   16.0000 O.2    32  TYR32      -0.2715
     79  CB       -13.6930   -5.4150   17.9240 C.3    32  TYR32       0.0574
     80  CG       -14.5020   -5.1700   19.2040 C.ar   32  TYR32      -0.0198
     81  CD1      -15.4520   -6.0950   19.6540 C.ar   32  TYR32      -0.0009
     82  CD2      -14.3590   -3.9480   19.9260 C.ar   32  TYR32      -0.0009
     83  CE1      -16.2250   -5.8520   20.8350 C.ar   32  TYR32       0.0417
     84  CE2      -15.1360   -3.6800   21.0770 C.ar   32  TYR32       0.0417
     85  CZ       -16.0540   -4.6300   21.5160 C.ar   32  TYR32       0.1957
     86  OH       -16.8610   -4.3870   22.6240 O.3    32  TYR32      -0.2866
     87  N        -10.7730   -5.7520   16.2580 N.am   33  GLN33      -0.1977
     88  CA       -10.1140   -5.9340   14.9440 C.3    33  GLN33       0.1601
     89  C         -8.8110   -6.7480   15.0460 C.2    33  GLN33       0.2287
     90  O         -8.0420   -6.8060   14.0740 O.2    33  GLN33      -0.2864
     91  CB        -9.8600   -4.5390   14.2920 C.3    33  GLN33       0.0394
     92  CG       -11.1690   -3.8340   13.9750 C.3    33  GLN33       0.0908
     93  CD       -10.9730   -2.5470   13.2270 C.2    33  GLN33       0.2608
     94  OE1       -9.8900   -1.9590   13.2330 O.2    33  GLN33      -0.2717
     95  NE2      -12.0230   -2.1120   12.5520 N.am   33  GLN33      -0.0878
@<TRIPOS>BOND
     1    49    50    2
     2    49    48    1
     3    47    48    1
     4    48    51    1
     5    37    36    1
     6    37    38    2
     7    36    39    1
     8    36    35    1
     9    39    40    1
    10    54    52    1
    11    51    52    1
    12    52    53    1
    13    40    42   ar
    14    40    41   ar
    15    42    44   ar
    16     1     2    1
    17    41    43   ar
    18     4     3    2
    19     5     2    1
    20     5     6    1
    21    95    93   am
    22    44    45   ar
    23     2     3    1
    24    55    56    1
    25    93    94    2
    26    93    92    1
    27     3     9   am
    28    43    45   ar
    29     7     6   ar
    30     6     8   ar
    31    45    46    1
    32    92    91    1
    33    90    89    2
    34    56    59    1
    35    56    57    1
    36    91    88    1
    37    59    60    1
    38     9    10    1
    39    62    60   am
    40    88    89    1
    41    88    87    1
    42    60    61    2
    43    10    13    1
    44    10    11    1
    45    13    14    1
    46    57    58    2
    47    78    77    2
    48    87    77   am
    49    22    20   am
    50    11    15   am
    51    11    12    2
    52    77    76    1
    53    15    16    1
    54    20    21    2
    55    20    19    1
    56    63    64    1
    57    19    16    1
    58    66    65    2
    59    79    76    1
    60    79    80    1
    61    16    17    1
    62    76    75    1
    63    18    17    2
    64    64    65    1
    65    65    67   am
    66    75    69   am
    67    17    23   am
    68    70    69    2
    69    80    81   ar
    70    80    82   ar
    71    69    68    1
    72    81    83   ar
    73    67    68    1
    74    68    71    1
    75    82    84   ar
    76    23    24    1
    77    25    24    1
    78    25    26    2
    79    83    85   ar
    80    84    85   ar
    81    24    27    1
    82    73    72    2
    83    71    72    1
    84    85    86    1
    85    72    74   am
    86    27    28    1
    87    28    30   ar
    88    28    29   ar
    89    30    32   ar
    90    29    31   ar
    91    32    33   ar
    92    31    33   ar
    93    33    34    1
