@<TRIPOS>MOLECULE
tmp/4eneB00.pdb
 118 116 0 0 0
SMALL
GASTEIGER

@<TRIPOS>ATOM
      1  N        -41.8550   24.2330   30.8650 N.3     8  GLN8       -0.1245
      2  CA       -41.1160   23.1760   31.5400 C.3     8  GLN8        0.1566
      3  C        -40.2750   22.3310   30.5590 C.2     8  GLN8        0.2260
      4  O        -39.1100   22.0600   30.8180 O.2     8  GLN8       -0.2867
      5  CB       -42.0730   22.2980   32.3520 C.3     8  GLN8        0.0367
      6  CG       -42.8030   23.0330   33.4760 C.3     8  GLN8        0.0905
      7  CD       -43.8420   22.1620   34.1810 C.2     8  GLN8        0.2608
      8  OE1      -44.8390   21.7460   33.5790 O.2     8  GLN8       -0.2717
      9  NE2      -43.6070   21.8780   35.4580 N.am    8  GLN8       -0.0878
     10  N        -37.1090   23.7080   29.7450 N.3    11  GLU11      -0.1231
     11  CA       -36.2080   23.8270   30.8940 C.3    11  GLU11       0.1699
     12  C        -35.8710   22.4730   31.5170 C.2    11  GLU11       0.2592
     13  O        -35.3920   22.4080   32.6490 O.2    11  GLU11      -0.2718
     14  CB       -36.8250   24.7320   31.9770 C.3    11  GLU11       0.0402
     15  CG       -36.8920   26.2090   31.6140 C.3    11  GLU11       0.1161
     16  CD       -35.5180   26.8170   31.3860 C.2    11  GLU11       0.3649
     17  OE1      -35.2360   27.2230   30.2360 O.co2  11  GLU11      -0.2457
     18  OE2      -34.7270   26.8880   32.3570 O.co2  11  GLU11      -0.2457
     19  N        -36.1320   21.3980   30.7840 N.am   12  ARG12      -0.1966
     20  CA       -35.9420   20.0500   31.3100 C.3    12  ARG12       0.1729
     21  C        -34.4610   19.7180   31.4900 C.2    12  ARG12       0.2616
     22  O        -33.6210   20.1570   30.6970 O.2    12  ARG12      -0.2715
     23  CB       -36.5960   19.0330   30.3770 C.3    12  ARG12       0.0348
     24  CG       -36.5970   17.6230   30.9120 C.3    12  ARG12       0.0492
     25  CD       -37.7440   16.8480   30.3220 C.3    12  ARG12       0.2205
     26  NE       -37.4460   16.3040   29.0030 N.pl3  12  ARG12      -0.0865
     27  CZ       -36.8650   15.1240   28.8010 C.cat  12  ARG12       0.5346
     28  NH1      -36.5000   14.3740   29.8350 N.pl3  12  ARG12       0.1354
     29  NH2      -36.6440   14.6940   27.5660 N.pl3  12  ARG12       0.1354
     30  N        -34.1510   18.9540   32.5390 N.am   13  ASP13      -0.1957
     31  CA       -32.7860   18.4740   32.7940 C.3    13  ASP13       0.1840
     32  C        -31.7630   19.5960   32.9810 C.2    13  ASP13       0.2622
     33  O        -30.7790   19.6690   32.2560 O.2    13  ASP13      -0.2715
     34  CB       -32.3220   17.5260   31.6750 C.3    13  ASP13       0.1450
     35  CG       -31.0870   16.7240   32.0560 C.2    13  ASP13       0.3671
     36  OD1      -30.1270   16.6750   31.2470 O.co2  13  ASP13      -0.2456
     37  OD2      -31.0840   16.1330   33.1600 O.co2  13  ASP13      -0.2456
     38  N        -31.9950   20.4640   33.9600 N.am   14  LYS14      -0.1963
     39  CA       -31.0210   21.4940   34.3140 C.3    14  LYS14       0.1728
     40  C        -30.6970   21.4450   35.8070 C.2    14  LYS14       0.2617
     41  O        -30.8710   22.4200   36.5360 O.2    14  LYS14      -0.2715
     42  CB       -31.5050   22.8890   33.8980 C.3    14  LYS14       0.0311
     43  CG       -31.5590   23.0920   32.3830 C.3    14  LYS14       0.0038
     44  CD       -32.2140   24.4100   31.9870 C.3    14  LYS14       0.0206
     45  CE       -31.2070   25.5420   31.9380 C.3    14  LYS14       0.1093
     46  NZ       -31.8300   26.8150   31.4700 N.3    14  LYS14      -0.1314
     47  N        -30.2320   20.2880   36.2580 N.am   15  THR15      -0.1937
     48  CA       -29.7740   20.1400   37.6250 C.3    15  THR15       0.2013
     49  C        -28.7030   21.1930   37.9230 C.2    15  THR15       0.2484
     50  O        -27.7620   21.3770   37.1420 O.2    15  THR15      -0.2729
     51  CB       -29.1810   18.7430   37.8630 C.3    15  THR15       0.1807
     52  OG1      -30.0680   17.7450   37.3450 O.3    15  THR15      -0.2208
     53  CG2      -28.9530   18.5000   39.3450 C.3    15  THR15       0.0379
     54  N        -28.8600   21.9030   39.0510 N.am   16  PRO16      -0.2726
     55  CA       -27.9070   22.9050   39.5520 C.3    16  PRO16       0.1402
     56  C        -26.5030   22.3360   39.7230 C.2    16  PRO16       0.2269
     57  O        -26.3290   21.3270   40.4100 O.2    16  PRO16      -0.2865
     58  CB       -28.4820   23.2690   40.9300 C.3    16  PRO16       0.0296
     59  CG       -29.9540   23.0210   40.7930 C.3    16  PRO16       0.0237
     60  CD       -30.0770   21.8250   39.8850 C.3    16  PRO16       0.0939
     61  N        -34.7840   19.6970   46.5750 N.3   156  GLU156     -0.1245
     62  CA       -34.0310   18.9700   45.5700 C.3   156  GLU156      0.1567
     63  C        -32.7680   18.4120   46.2160 C.2   156  GLU156      0.2260
     64  O        -32.6110   17.2000   46.3350 O.2   156  GLU156     -0.2867
     65  CB       -33.6920   19.8630   44.3760 C.3   156  GLU156      0.0388
     66  CG       -33.4990   19.0830   43.0910 C.3   156  GLU156      0.1160
     67  CD       -33.2150   19.9650   41.8820 C.2   156  GLU156      0.3649
     68  OE1      -33.2540   19.4340   40.7490 O.co2 156  GLU156     -0.2457
     69  OE2      -32.9510   21.1780   42.0580 O.co2 156  GLU156     -0.2457
     70  N        -44.6540   13.0290   43.0260 N.3   194  TYR194     -0.1227
     71  CA       -43.4850   13.5420   42.3280 C.3   194  TYR194      0.1736
     72  C        -42.3540   13.9280   43.2830 C.2   194  TYR194      0.2596
     73  O        -42.5990   14.2850   44.4360 O.2   194  TYR194     -0.2718
     74  CB       -43.9030   14.7500   41.4970 C.3   194  TYR194      0.0548
     75  CG       -42.8480   15.2970   40.5680 C.ar  194  TYR194     -0.0200
     76  CD1      -42.5610   14.6700   39.3640 C.ar  194  TYR194     -0.0009
     77  CD2      -42.1590   16.4650   40.8780 C.ar  194  TYR194     -0.0009
     78  CE1      -41.6080   15.1870   38.4920 C.ar  194  TYR194      0.0417
     79  CE2      -41.2000   16.9890   40.0140 C.ar  194  TYR194      0.0417
     80  CZ       -40.9280   16.3460   38.8240 C.ar  194  TYR194      0.1957
     81  OH       -39.9770   16.8600   37.9600 O.3   194  TYR194     -0.2866
     82  N        -41.1110   13.8350   42.8100 N.am  195  THR195     -0.1939
     83  CA       -39.9580   14.3140   43.5800 C.3   195  THR195      0.2028
     84  C        -38.9570   15.0490   42.7160 C.2   195  THR195      0.2642
     85  O        -38.9550   14.9260   41.4830 O.2   195  THR195     -0.2714
     86  CB       -39.2150   13.1920   44.3010 C.3   195  THR195      0.1808
     87  OG1      -39.3580   11.9720   43.5590 O.3   195  THR195     -0.2208
     88  CG2      -39.7670   13.0230   45.7160 C.3   195  THR195      0.0379
     89  N        -38.0950   15.8150   43.3680 N.am  196  LEU196     -0.1963
     90  CA       -37.1270   16.6120   42.6320 C.3   196  LEU196      0.1728
     91  C        -35.7620   15.9350   42.5760 C.2   196  LEU196      0.2616
     92  O        -34.7840   16.5390   42.1340 O.2   196  LEU196     -0.2715
     93  CB       -37.0320   18.0150   43.2280 C.3   196  LEU196      0.0311
     94  CG       -38.2780   18.8520   42.9270 C.3   196  LEU196      0.0022
     95  CD1      -38.4270   20.0190   43.9140 C.3   196  LEU196      0.0001
     96  CD2      -38.2740   19.3220   41.4630 C.3   196  LEU196      0.0001
     97  N        -35.7140   14.6810   43.0220 N.am  197  ILE197     -0.1963
     98  CA       -34.5310   13.8460   42.8590 C.3   197  ILE197      0.1727
     99  C        -33.9840   13.9580   41.4410 C.2   197  ILE197      0.2617
    100  O        -34.6840   13.6620   40.4720 O.2   197  ILE197     -0.2715
    101  CB       -34.8500   12.3760   43.1140 C.3   197  ILE197      0.0290
    102  CG1      -35.5930   12.2100   44.4480 C.3   197  ILE197      0.0022
    103  CG2      -33.5730   11.5680   43.0530 C.3   197  ILE197      0.0023
    104  CD1      -35.7350   10.7700   44.9180 C.3   197  ILE197      0.0001
    105  N        -32.7380   14.4010   41.3200 N.am  198  SER198     -0.1936
    106  CA       -32.1010   14.5310   40.0110 C.3   198  SER198      0.2055
    107  C        -31.4310   13.2120   39.6000 C.2   198  SER198      0.2642
    108  O        -30.5800   12.6860   40.3260 O.2   198  SER198     -0.2714
    109  CB       -31.0750   15.6680   40.0370 C.3   198  SER198      0.2130
    110  OG       -30.2500   15.6490   38.8880 O.3   198  SER198     -0.2179
    111  N        -31.8150   12.6760   38.4460 N.am  199  ILE199     -0.1977
    112  CA       -31.3140   11.3750   38.0090 C.3   199  ILE199      0.1596
    113  C        -29.8480   11.4720   37.6060 C.2   199  ILE199      0.2287
    114  O        -29.0500   10.5910   37.9090 O.2   199  ILE199     -0.2864
    115  CB       -32.1530   10.8090   36.8450 C.3   199  ILE199      0.0276
    116  CG1      -33.4370   10.1850   37.3770 C.3   199  ILE199      0.0022
    117  CG2      -31.3790    9.7500   36.0670 C.3   199  ILE199      0.0022
    118  CD1      -34.3490    9.6410   36.2810 C.3   199  ILE199      0.0001
@<TRIPOS>BOND
     1    29    27    1
     2    27    26    2
     3    27    28    1
     4    26    25    1
     5    10    11    1
     6    17    16   ar
     7    25    24    1
     8    23    24    1
     9    23    20    1
    10     3     4    2
    11     3     2    1
    12    22    21    2
    13    19    20    1
    14    19    12   am
    15     1     2    1
    16    11    12    1
    17    11    14    1
    18    36    35   ar
    19    20    21    1
    20    16    15    1
    21    16    18   ar
    22    46    45    1
    23    21    30   am
    24    12    13    2
    25     2     5    1
    26    15    14    1
    27    34    35    1
    28    34    31    1
    29    45    44    1
    30    44    43    1
    31    35    37   ar
    32    33    32    2
    33     5     6    1
    34    43    42    1
    35    30    31    1
    36    31    32    1
    37    32    38   am
    38     6     7    1
    39     8     7    2
    40    42    39    1
    41    38    39    1
    42     7     9   am
    43    39    40    1
    44    40    47   am
    45    40    41    2
    46   117   115    1
    47    47    48    1
    48   118   116    1
    49   115   116    1
    50   115   112    1
    51    50    49    2
    52    52    51    1
    53   113   114    2
    54   113   112    1
    55    48    51    1
    56    48    49    1
    57    51    53    1
    58    49    54   am
    59    81    80    1
    60   112   111    1
    61   111   107   am
    62    78    80   ar
    63    78    76   ar
    64    80    79   ar
    65   110   109    1
    66    54    55    1
    67    54    60    1
    68    76    75   ar
    69    55    56    1
    70    55    58    1
    71   107   106    1
    72   107   108    2
    73    56    57    2
    74    60    59    1
    75   106   109    1
    76   106   105    1
    77    79    77   ar
    78   100    99    2
    79    75    77   ar
    80    75    74    1
    81    68    67   ar
    82    59    58    1
    83   105    99   am
    84    99    98    1
    85    96    94    1
    86    85    84    2
    87    74    71    1
    88    67    69   ar
    89    67    66    1
    90    92    91    2
    91    71    70    1
    92    71    72    1
    93    91    90    1
    94    91    97   am
    95    90    93    1
    96    90    89    1
    97    84    89   am
    98    84    83    1
    99    82    72   am
   100    82    83    1
   101    98    97    1
   102    98   101    1
   103    94    93    1
   104    94    95    1
   105   103   101    1
   106    66    65    1
   107   101   102    1
   108    72    73    2
   109    87    86    1
   110    83    86    1
   111    86    88    1
   112    65    62    1
   113   102   104    1
   114    62    63    1
   115    62    61    1
   116    63    64    2
