@<TRIPOS>MOLECULE
tmp/4eneB01.pdb
 86 82 0 0 0
SMALL
GASTEIGER

@<TRIPOS>ATOM
      1  N        -37.0280  -21.0950   23.0850 N.3   233  LEU233     -0.1231
      2  CA       -38.3850  -20.5880   23.2580 C.3   233  LEU233      0.1693
      3  C        -39.3370  -21.5990   23.8890 C.2   233  LEU233      0.2592
      4  O        -40.2120  -21.2210   24.6660 O.2   233  LEU233     -0.2718
      5  CB       -38.9600  -20.1200   21.9240 C.3   233  LEU233      0.0284
      6  CG       -38.2250  -18.9250   21.3320 C.3   233  LEU233      0.0019
      7  CD1      -38.6200  -18.6930   19.8720 C.3   233  LEU233      0.0001
      8  CD2      -38.4980  -17.7020   22.1660 C.3   233  LEU233      0.0001
      9  N        -39.1870  -22.8750   23.5470 N.am  234  ASN234     -0.1974
     10  CA       -40.1480  -23.8800   24.0060 C.3   234  ASN234      0.1688
     11  C        -39.8540  -24.3030   25.4410 C.2   234  ASN234      0.2292
     12  O        -40.4820  -25.2110   25.9950 O.2   234  ASN234     -0.2864
     13  CB       -40.2110  -25.0830   23.0530 C.3   234  ASN234      0.1181
     14  CG       -39.0410  -26.0280   23.2100 C.2   234  ASN234      0.2629
     15  OD1      -37.9610  -25.6430   23.6640 O.2   234  ASN234     -0.2716
     16  ND2      -39.2490  -27.2830   22.8320 N.am  234  ASN234     -0.0877
     17  N        -39.4780  -21.6410   27.7670 N.3   236  LEU236     -0.1231
     18  CA       -39.8790  -20.4860   28.5550 C.3   236  LEU236      0.1693
     19  C        -40.9490  -20.7860   29.6120 C.2   236  LEU236      0.2592
     20  O        -40.8610  -20.3090   30.7460 O.2   236  LEU236     -0.2718
     21  CB       -40.3050  -19.3340   27.6480 C.3   236  LEU236      0.0284
     22  CG       -39.1300  -18.7900   26.8470 C.3   236  LEU236      0.0019
     23  CD1      -39.4940  -17.5030   26.1620 C.3   236  LEU236      0.0001
     24  CD2      -37.9250  -18.5890   27.7320 C.3   236  LEU236      0.0001
     25  N        -41.9380  -21.5860   29.2420 N.am  237  TRP237     -0.1976
     26  CA       -43.0450  -21.8810   30.1250 C.3   237  TRP237      0.1640
     27  C        -42.5530  -22.4450   31.4590 C.2   237  TRP237      0.2290
     28  O        -43.2130  -22.2960   32.4820 O.2   237  TRP237     -0.2864
     29  CB       -44.0380  -22.8430   29.4550 C.3   237  TRP237      0.0576
     30  CG       -43.5200  -24.2320   29.2720 C.ar  237  TRP237      0.0006
     31  CD1      -42.5990  -24.6520   28.3520 C.ar  237  TRP237      0.0946
     32  CD2      -43.9010  -25.3950   30.0100 C.ar  237  TRP237      0.0152
     33  NE1      -42.3770  -26.0030   28.4780 N.ar  237  TRP237     -0.2442
     34  CE2      -43.1640  -26.4820   29.4920 C.ar  237  TRP237      0.0810
     35  CE3      -44.7840  -25.6230   31.0690 C.ar  237  TRP237      0.0012
     36  CZ2      -43.2900  -27.7770   29.9920 C.ar  237  TRP237      0.0191
     37  CZ3      -44.9060  -26.9110   31.5660 C.ar  237  TRP237      0.0001
     38  CH2      -44.1590  -27.9700   31.0280 C.ar  237  TRP237      0.0015
     39  N        -41.8060  -19.5790   33.7750 N.3   240  LEU240     -0.1245
     40  CA       -43.0460  -19.0110   34.2670 C.3   240  LEU240      0.1561
     41  C        -43.5190  -19.7920   35.4800 C.2   240  LEU240      0.2260
     42  O        -43.9740  -19.2140   36.4710 O.2   240  LEU240     -0.2867
     43  CB       -44.1130  -19.0610   33.1900 C.3   240  LEU240      0.0270
     44  CG       -45.5070  -18.6430   33.6470 C.3   240  LEU240      0.0019
     45  CD1      -45.4090  -17.3870   34.4780 C.3   240  LEU240      0.0001
     46  CD2      -46.4260  -18.4180   32.4550 C.3   240  LEU240      0.0001
     47  N        -35.3370  -31.2100   26.3590 N.3   366  TYR366     -0.1241
     48  CA       -35.0740  -29.7670   26.4300 C.3   366  TYR366      0.1605
     49  C        -33.5920  -29.4530   26.5530 C.2   366  TYR366      0.2264
     50  O        -33.1640  -28.3190   26.3190 O.2   366  TYR366     -0.2867
     51  CB       -35.8430  -29.1080   27.5640 C.3   366  TYR366      0.0534
     52  CG       -37.3180  -28.9620   27.3150 C.ar  366  TYR366     -0.0201
     53  CD1      -38.2050  -28.8570   28.3720 C.ar  366  TYR366     -0.0009
     54  CD2      -37.8280  -28.9240   26.0270 C.ar  366  TYR366     -0.0009
     55  CE1      -39.5590  -28.7200   28.1640 C.ar  366  TYR366      0.0417
     56  CE2      -39.1950  -28.7880   25.8070 C.ar  366  TYR366      0.0417
     57  CZ       -40.0510  -28.6890   26.8820 C.ar  366  TYR366      0.1957
     58  OH       -41.4020  -28.5470   26.6900 O.3   366  TYR366     -0.2866
     59  N        -39.1740  -13.4130   33.0440 N.3   411  ILE411     -0.1245
     60  CA       -40.4210  -14.1610   33.1460 C.3   411  ILE411      0.1561
     61  C        -40.6070  -14.7300   34.5360 C.2   411  ILE411      0.2260
     62  O        -41.7120  -14.7560   35.0680 O.2   411  ILE411     -0.2867
     63  CB       -40.4890  -15.2990   32.0870 C.3   411  ILE411      0.0252
     64  CG1      -40.7450  -14.7130   30.6890 C.3   411  ILE411      0.0019
     65  CG2      -41.5490  -16.3210   32.4340 C.3   411  ILE411      0.0019
     66  CD1      -40.7040  -15.7350   29.5730 C.3   411  ILE411      0.0001
     67  N        -41.3240  -11.5820   36.7510 N.3   414  LEU414     -0.1231
     68  CA       -42.6720  -11.0510   36.6110 C.3   414  LEU414      0.1693
     69  C        -43.6980  -11.9900   37.2160 C.2   414  LEU414      0.2592
     70  O        -44.5880  -11.5690   37.9310 O.2   414  LEU414     -0.2718
     71  CB       -42.9980  -10.8000   35.1490 C.3   414  LEU414      0.0284
     72  CG       -43.4490   -9.3630   34.9390 C.3   414  LEU414      0.0019
     73  CD1      -42.3520   -8.4270   35.3900 C.3   414  LEU414      0.0001
     74  CD2      -43.7850   -9.1310   33.4870 C.3   414  LEU414      0.0001
     75  N        -43.5620  -13.2710   36.9230 N.am  415  GLY415     -0.1957
     76  CA       -44.4250  -14.2720   37.5070 C.3   415  GLY415      0.1869
     77  C        -44.3770  -14.2210   39.0240 C.2   415  GLY415      0.2309
     78  O        -45.3890  -14.4360   39.6920 O.2   415  GLY415     -0.2863
     79  N        -46.2150  -11.0490   40.1880 N.3   418  LEU418     -0.1245
     80  CA       -47.6320  -11.1640   39.8570 C.3   418  LEU418      0.1561
     81  C        -48.3610  -12.0720   40.8210 C.2   418  LEU418      0.2260
     82  O        -49.4780  -11.7860   41.2020 O.2   418  LEU418     -0.2867
     83  CB       -47.8250  -11.7070   38.4370 C.3   418  LEU418      0.0270
     84  CG       -47.7930  -10.7160   37.2770 C.3   418  LEU418      0.0019
     85  CD1      -47.9250  -11.4550   35.9440 C.3   418  LEU418      0.0001
     86  CD2      -48.8860   -9.6810   37.4150 C.3   418  LEU418      0.0001
@<TRIPOS>BOND
     1     7     6    1
     2     6     5    1
     3     6     8    1
     4     5     2    1
     5    16    14   am
     6    13    14    1
     7    13    10    1
     8     1     2    1
     9    14    15    2
    10     2     3    1
    11     9     3   am
    12     9    10    1
    13     3     4    2
    14    10    11    1
    15    11    12    2
    16    56    54   ar
    17    56    57   ar
    18    54    52   ar
    19    23    22    1
    20    50    49    2
    21    47    48    1
    22    48    49    1
    23    48    51    1
    24    58    57    1
    25    22    21    1
    26    22    24    1
    27    57    55   ar
    28    52    51    1
    29    52    53   ar
    30    21    18    1
    31    17    18    1
    32    55    53   ar
    33    31    33   ar
    34    31    30   ar
    35    33    34   ar
    36    18    19    1
    37    25    19   am
    38    25    26    1
    39    30    29    1
    40    30    32   ar
    41    29    26    1
    42    34    36   ar
    43    34    32   ar
    44    66    64    1
    45    19    20    2
    46    36    38   ar
    47    32    35   ar
    48    26    27    1
    49    64    63    1
    50    38    37   ar
    51    35    37   ar
    52    27    28    2
    53    63    65    1
    54    63    60    1
    55    46    44    1
    56    59    60    1
    57    60    61    1
    58    43    44    1
    59    43    40    1
    60    74    72    1
    61    44    45    1
    62    39    40    1
    63    40    41    1
    64    61    62    2
    65    72    71    1
    66    72    73    1
    67    71    68    1
    68    41    42    2
    69    85    84    1
    70    68    67    1
    71    68    69    1
    72    75    69   am
    73    75    76    1
    74    69    70    2
    75    84    86    1
    76    84    83    1
    77    76    77    1
    78    83    80    1
    79    77    78    2
    80    80    79    1
    81    80    81    1
    82    81    82    2
