@<TRIPOS>MOLECULE
tmp/4engA01.pdb
 123 119 0 0 0
SMALL
GASTEIGER

@<TRIPOS>ATOM
      1  N         11.0000    7.7460   14.6860 N.3     6  THR6       -0.1203
      2  CA         9.6330    7.7830   15.1470 C.3     6  THR6        0.1994
      3  C          9.0130    6.4210   14.7930 C.2     6  THR6        0.2618
      4  O          9.7110    5.5030   14.3370 O.2     6  THR6       -0.2717
      5  CB         8.7650    8.9270   14.5810 C.3     6  THR6        0.1784
      6  OG1        8.8680    8.9750   13.1410 O.3     6  THR6       -0.2211
      7  CG2        9.2370   10.2750   15.1450 C.3     6  THR6        0.0376
      8  N          7.7330    6.2280   15.0400 N.am    7  ARG7       -0.1965
      9  CA         7.0830    4.9390   14.7360 C.3     7  ARG7        0.1729
     10  C          5.7620    5.2390   14.0420 C.2     7  ARG7        0.2616
     11  O          5.1480    6.2830   14.3430 O.2     7  ARG7       -0.2715
     12  CB         6.9110    4.1410   16.0280 C.3     7  ARG7        0.0348
     13  CG         6.1550    4.8740   17.1390 C.3     7  ARG7        0.0492
     14  CD         5.9720    3.9930   18.3700 C.3     7  ARG7        0.2205
     15  NE         5.2480    4.6970   19.4360 N.pl3   7  ARG7       -0.0865
     16  CZ         5.7480    5.5350   20.3360 C.cat   7  ARG7        0.5346
     17  NH1        7.0240    5.8800   20.3630 N.pl3   7  ARG7        0.1354
     18  NH2        4.9470    6.0980   21.2590 N.pl3   7  ARG7        0.1354
     19  N          5.3100    4.4010   13.1060 N.am    8  TYR8       -0.1974
     20  CA         4.0430    4.6770   12.4320 C.3     8  TYR8        0.1639
     21  C          3.4300    3.4090   11.8250 C.2     8  TYR8        0.2290
     22  O          4.1540    2.4700   11.5360 O.2     8  TYR8       -0.2864
     23  CB         4.2070    5.6840   11.2870 C.3     8  TYR8        0.0560
     24  CG         4.4390    5.1210    9.9030 C.ar    8  TYR8       -0.0198
     25  CD1        5.6990    4.6690    9.5170 C.ar    8  TYR8       -0.0009
     26  CD2        3.3880    4.9680    9.0050 C.ar    8  TYR8       -0.0009
     27  CE1        5.9170    4.1260    8.2600 C.ar    8  TYR8        0.0417
     28  CE2        3.5930    4.4430    7.7460 C.ar    8  TYR8        0.0417
     29  CZ         4.8500    4.0210    7.3800 C.ar    8  TYR8        0.1957
     30  OH         5.0410    3.4680    6.1280 O.3     8  TYR8       -0.2866
     31  N          5.9470   15.3090    6.6290 N.3   114  ASP114     -0.1225
     32  CA         6.2710   15.7480    7.9630 C.3   114  ASP114      0.1805
     33  C          7.5910   15.2210    8.5080 C.2   114  ASP114      0.2597
     34  O          7.9080   15.4960    9.6740 O.2   114  ASP114     -0.2718
     35  CB         5.1750   15.3600    8.9780 C.3   114  ASP114      0.1424
     36  CG         4.6760   13.9380    8.9590 C.2   114  ASP114      0.3668
     37  OD1        4.9710   13.2060    7.9870 O.co2 114  ASP114     -0.2456
     38  OD2        3.9540   13.5020    9.9070 O.co2 114  ASP114     -0.2456
     39  N          8.3580   14.4800    7.7170 N.am  115  LEU115     -0.1979
     40  CA         9.6200   13.9500    8.2070 C.3   115  LEU115      0.1596
     41  C         10.7300   14.9990    8.1900 C.2   115  LEU115      0.2287
     42  O         10.8590   15.7460    7.2170 O.2   115  LEU115     -0.2864
     43  CB        10.0320   12.7450    7.3590 C.3   115  LEU115      0.0297
     44  CG         9.0620   11.5550    7.3890 C.3   115  LEU115      0.0022
     45  CD1        9.7400   10.3240    6.7620 C.3   115  LEU115      0.0001
     46  CD2        8.6350   11.1960    8.8010 C.3   115  LEU115      0.0001
     47  N         15.5440   11.2700    9.0540 N.3   119  HIS119     -0.1241
     48  CA        14.4530   10.8170    9.9120 C.3   119  HIS119      0.1621
     49  C         13.8870    9.5060    9.3830 C.2   119  HIS119      0.2264
     50  O         13.4950    9.3950    8.2170 O.2   119  HIS119     -0.2867
     51  CB        13.4080   11.9330    9.9650 C.3   119  HIS119      0.0745
     52  CG        12.2260   11.6890   10.8400 C.ar  119  HIS119      0.0817
     53  ND1       11.3490   12.6810   11.2440 N.ar  119  HIS119     -0.2268
     54  CD2       11.7580   10.5490   11.3890 C.ar  119  HIS119      0.1154
     55  CE1       10.3960   12.1350   11.9860 C.ar  119  HIS119      0.1986
     56  NE2       10.6230   10.8320   12.0930 N.ar  119  HIS119     -0.2212
     57  N         11.0460    6.7570    9.9970 N.3   121  ASP121     -0.1239
     58  CA         9.7470    6.4820   10.6310 C.3   121  ASP121      0.1674
     59  C          9.5260    4.9760   10.5180 C.2   121  ASP121      0.2266
     60  O          9.2110    4.4480    9.4360 O.2   121  ASP121     -0.2867
     61  CB         8.6900    7.3320    9.9670 C.3   121  ASP121      0.1410
     62  CG         7.4020    7.6240   10.6880 C.2   121  ASP121      0.3668
     63  OD1        7.2870    7.4030   11.9140 O.co2 121  ASP121     -0.2456
     64  OD2        6.4610    8.1350   10.0480 O.co2 121  ASP121     -0.2456
     65  N          1.8400    2.0420   16.0090 N.3   127  GLY127     -0.1210
     66  CA         2.7450    3.1460   16.3330 C.3   127  GLY127      0.1956
     67  C          2.1570    4.5050   15.9800 C.2   127  GLY127      0.2612
     68  O          2.7360    5.4980   16.4310 O.2   127  GLY127     -0.2717
     69  N          0.9960    4.5750   15.3340 N.am  128  GLY128     -0.1942
     70  CA         0.3460    5.8630   15.0920 C.3   128  GLY128      0.2014
     71  C          0.0440    6.0850   13.6160 C.2   128  GLY128      0.2639
     72  O          1.0040    5.9770   12.8330 O.2   128  GLY128     -0.2714
     73  N         -1.1930    6.4390   13.2770 N.am  129  VAL129     -0.1963
     74  CA        -1.5080    6.6900   11.8680 C.3   129  VAL129      0.1727
     75  C         -0.9180    8.0040   11.3850 C.2   129  VAL129      0.2617
     76  O         -0.5000    8.0870   10.2220 O.2   129  VAL129     -0.2715
     77  CB        -3.0000    6.6170   11.4990 C.3   129  VAL129      0.0290
     78  CG1       -3.5360    5.2090   11.7760 C.3   129  VAL129      0.0023
     79  CG2       -3.8240    7.6570   12.2470 C.3   129  VAL129      0.0023
     80  N         -0.8580    9.0340   12.2200 N.am  130  GLY130     -0.1940
     81  CA        -0.2740   10.3120   11.8100 C.3   130  GLY130      0.2014
     82  C         -1.2120   11.1090   10.9210 C.2   130  GLY130      0.2638
     83  O         -2.4240   11.1690   11.1780 O.2   130  GLY130     -0.2714
     84  N         -0.7090   11.6490    9.8170 N.am  131  ILE131     -0.1977
     85  CA        -1.5250   12.4970    8.9560 C.3   131  ILE131      0.1596
     86  C         -2.7040   11.7790    8.3300 C.2   131  ILE131      0.2287
     87  O         -3.8280   12.2920    8.3200 O.2   131  ILE131     -0.2864
     88  CB        -0.6260   13.1320    7.8600 C.3   131  ILE131      0.0276
     89  CG1        0.3730   14.1040    8.5120 C.3   131  ILE131      0.0022
     90  CG2       -1.4430   13.8090    6.7790 C.3   131  ILE131      0.0022
     91  CD1        1.2830   14.8140    7.5320 C.3   131  ILE131      0.0001
     92  N         -0.7010   10.2690   17.0200 N.3   147  TYR147     -0.1227
     93  CA         0.7580   10.2680   16.9380 C.3   147  TYR147      0.1736
     94  C          1.2480    9.4510   18.1290 C.2   147  TYR147      0.2596
     95  O          0.9720    9.8330   19.2720 O.2   147  TYR147     -0.2718
     96  CB         1.3490   11.6840   16.9420 C.3   147  TYR147      0.0548
     97  CG         1.0560   12.4390   15.6630 C.ar  147  TYR147     -0.0200
     98  CD1       -0.2210   12.9540   15.4460 C.ar  147  TYR147     -0.0009
     99  CD2        1.9980   12.6190   14.6660 C.ar  147  TYR147     -0.0009
    100  CE1       -0.5360   13.6260   14.2790 C.ar  147  TYR147      0.0417
    101  CE2        1.7060   13.3010   13.5040 C.ar  147  TYR147      0.0417
    102  CZ         0.4400   13.7950   13.3110 C.ar  147  TYR147      0.1957
    103  OH         0.0930   14.4790   12.1690 O.3   147  TYR147     -0.2866
    104  N          1.8780    8.3000   17.8830 N.am  148  GLY148     -0.1957
    105  CA         2.3420    7.4910   19.0120 C.3   148  GLY148      0.1869
    106  C          1.5430    6.2200   19.2230 C.2   148  GLY148      0.2309
    107  O          2.1500    5.2250   19.6490 O.2   148  GLY148     -0.2863
    108  N         11.3240    4.6580   23.0890 N.3   178  ASP178     -0.1225
    109  CA        10.6210    5.8530   22.6230 C.3   178  ASP178      0.1805
    110  C         11.4950    6.7150   21.7230 C.2   178  ASP178      0.2597
    111  O         12.3980    7.3950   22.1950 O.2   178  ASP178     -0.2718
    112  CB        10.1450    6.6860   23.8110 C.3   178  ASP178      0.1424
    113  CG         9.1650    7.7720   23.4210 C.2   178  ASP178      0.3668
    114  OD1        8.7180    7.8610   22.2590 O.co2 178  ASP178     -0.2456
    115  OD2        8.8250    8.5590   24.3310 O.co2 178  ASP178     -0.2456
    116  N         11.2600    6.6280   20.4230 N.am  179  ASN179     -0.1974
    117  CA        12.0010    7.3610   19.4250 C.3   179  ASN179      0.1688
    118  C         13.5020    7.3330   19.6530 C.2   179  ASN179      0.2292
    119  O         14.1480    8.3880   19.7360 O.2   179  ASN179     -0.2864
    120  CB        11.5010    8.8130   19.4090 C.3   179  ASN179      0.1181
    121  CG        10.0370    9.0230   19.1010 C.2   179  ASN179      0.2629
    122  OD1        9.3510    8.1800   18.5200 O.2   179  ASN179     -0.2716
    123  ND2        9.4860   10.1830   19.4740 N.am  179  ASN179     -0.0877
@<TRIPOS>BOND
     1    30    29    1
     2    31    32    1
     3    45    44    1
     4    90    88    1
     5    42    41    2
     6    43    44    1
     7    43    40    1
     8    29    28   ar
     9    29    27   ar
    10    44    46    1
    11    91    89    1
    12    39    40    1
    13    39    33   am
    14    28    26   ar
    15    88    89    1
    16    88    85    1
    17    32    33    1
    18    32    35    1
    19    37    36   ar
    20    41    40    1
    21    50    49    2
    22    27    25   ar
    23    87    86    2
    24    86    85    1
    25    33    34    2
    26    85    84    1
    27    36    35    1
    28    36    38   ar
    29    26    24   ar
    30    47    48    1
    31    49    48    1
    32    60    59    2
    33    25    24   ar
    34    84    82   am
    35    24    23    1
    36    48    51    1
    37    51    52    1
    38    61    58    1
    39    61    62    1
    40    57    58    1
    41    64    62   ar
    42    76    75    2
    43    59    58    1
    44    62    63   ar
    45    52    53   ar
    46    52    54   ar
    47    82    83    2
    48    82    81    1
    49    53    55   ar
    50    23    20    1
    51    75    74    1
    52    75    80   am
    53    54    56   ar
    54    77    78    1
    55    77    74    1
    56    77    79    1
    57    22    21    2
    58    81    80    1
    59    21    20    1
    60    74    73    1
    61    55    56   ar
    62   103   102    1
    63    20    19    1
    64    72    71    2
    65    19    10   am
    66     6     5    1
    67    73    71   am
    68   102   101   ar
    69   102   100   ar
    70   101    99   ar
    71    71    70    1
    72    10    11    2
    73    10     9    1
    74   100    98   ar
    75     4     3    2
    76     5     7    1
    77     5     2    1
    78    99    97   ar
    79     1     2    1
    80     9     8    1
    81     9    12    1
    82     3     8   am
    83     3     2    1
    84    70    69    1
    85    69    67   am
    86    98    97   ar
    87    97    96    1
    88    67    66    1
    89    67    68    2
    90    65    66    1
    91    12    13    1
    92    93    96    1
    93    93    92    1
    94    93    94    1
    95    13    14    1
    96   104    94   am
    97   104   105    1
    98    94    95    2
    99    14    15    1
   100   122   121    2
   101   105   106    1
   102   121   120    1
   103   121   123   am
   104   106   107    2
   105   120   117    1
   106   117   118    1
   107   117   116    1
   108    15    16    2
   109   118   119    2
   110    16    17    1
   111    16    18    1
   112   116   110   am
   113   110   111    2
   114   110   109    1
   115   114   113   ar
   116   109   108    1
   117   109   112    1
   118   113   112    1
   119   113   115   ar
