@<TRIPOS>MOLECULE
tmp/4engA00.pdb
 162 157 0 0 0
SMALL
GASTEIGER

@<TRIPOS>ATOM
      1  N          5.3100    4.4010   13.1060 N.3     8  TYR8       -0.1241
      2  CA         4.0430    4.6770   12.4320 C.3     8  TYR8        0.1605
      3  C          3.4300    3.4090   11.8250 C.2     8  TYR8        0.2264
      4  O          4.1540    2.4700   11.5360 O.2     8  TYR8       -0.2867
      5  CB         4.2070    5.6840   11.2870 C.3     8  TYR8        0.0534
      6  CG         4.4390    5.1210    9.9030 C.ar    8  TYR8       -0.0201
      7  CD1        5.6990    4.6690    9.5170 C.ar    8  TYR8       -0.0009
      8  CD2        3.3880    4.9680    9.0050 C.ar    8  TYR8       -0.0009
      9  CE1        5.9170    4.1260    8.2600 C.ar    8  TYR8        0.0417
     10  CE2        3.5930    4.4430    7.7460 C.ar    8  TYR8        0.0417
     11  CZ         4.8500    4.0210    7.3800 C.ar    8  TYR8        0.1957
     12  OH         5.0410    3.4680    6.1280 O.3     8  TYR8       -0.2866
     13  N          0.0150    3.6160    9.0410 N.3    10  ASN10      -0.1240
     14  CA        -1.1860    4.3230    8.6130 C.3    10  ASN10       0.1653
     15  C         -2.0160    3.5540    7.5940 C.2    10  ASN10       0.2266
     16  O         -3.0530    4.0440    7.1600 O.2    10  ASN10      -0.2867
     17  CB        -0.8460    5.7120    8.0640 C.3    10  ASN10       0.1155
     18  CG         0.0580    5.6900    6.8510 C.2    10  ASN10       0.2627
     19  OD1        0.3290    4.6550    6.2500 O.2    10  ASN10      -0.2716
     20  ND2        0.5590    6.8650    6.4830 N.am   10  ASN10      -0.0877
     21  N         -1.6420    3.1170    4.5170 N.3    12  CYS12      -0.1221
     22  CA        -1.6450    3.6210    3.1540 C.3    12  CYS12       0.1808
     23  C         -0.6810    2.8360    2.2480 C.2    12  CYS12       0.2601
     24  O          0.2990    2.2520    2.6840 O.2    12  CYS12      -0.2717
     25  CB        -1.1710    5.0890    3.0560 C.3    12  CYS12       0.0970
     26  SG        -1.9970    6.2420    4.2010 S.3    12  CYS12      -0.0800
     27  N         -0.9510    2.8890    0.9370 N.am   13  LYS13      -0.1966
     28  CA         0.0060    2.3860   -0.0440 C.3    13  LYS13       0.1713
     29  C          1.3150    3.1380    0.1790 C.2    13  LYS13       0.2458
     30  O          1.3080    4.3860    0.2980 O.2    13  LYS13      -0.2730
     31  CB        -0.5780    2.7530   -1.4330 C.3    13  LYS13       0.0311
     32  CG         0.3430    2.4400   -2.6040 C.3    13  LYS13       0.0038
     33  CD        -0.3780    2.5460   -3.9420 C.3    13  LYS13       0.0206
     34  CE         0.6110    2.3210   -5.0800 C.3    13  LYS13       0.1093
     35  NZ        -0.0300    2.2160   -6.4150 N.3    13  LYS13      -0.1314
     36  N          2.4500    2.4820    0.2580 N.am   14  PRO14      -0.2716
     37  CA         3.7380    3.1230    0.4680 C.3    14  PRO14       0.1536
     38  C          4.1510    3.9490   -0.7380 C.2    14  PRO14       0.2599
     39  O          3.8370    3.5780   -1.8720 O.2    14  PRO14      -0.2715
     40  CB         4.7500    1.9890    0.7690 C.3    14  PRO14       0.0310
     41  CG         4.0450    0.7630    0.2630 C.3    14  PRO14       0.0237
     42  CD         2.5570    1.0190    0.2410 C.3    14  PRO14       0.0939
     43  N          4.8820    5.0660   -0.5860 N.am   15  SER15      -0.1950
     44  CA         5.2380    5.8800   -1.7470 C.3    15  SER15       0.1924
     45  C          6.1910    5.2160   -2.7090 C.2    15  SER15       0.2314
     46  O          6.0970    5.5380   -3.9150 O.2    15  SER15      -0.2863
     47  CB         5.8600    7.2990   -1.4850 C.3    15  SER15       0.2116
     48  OG         6.1320    7.2840   -0.1080 O.3    15  SER15      -0.2180
     49  N          4.8690    3.1420   -6.1100 N.3    18  TRP18      -0.1227
     50  CA         4.5310    3.6540   -7.4400 C.3    18  TRP18       0.1737
     51  C          5.6860    3.4720   -8.4230 C.2    18  TRP18       0.2595
     52  O          6.8330    3.5900   -8.0150 O.2    18  TRP18      -0.2718
     53  CB         4.2270    5.1620   -7.3730 C.3    18  TRP18       0.0564
     54  CG         3.0570    5.4280   -6.4580 C.ar   18  TRP18       0.0003
     55  CD1        3.0670    5.6800   -5.1150 C.ar   18  TRP18       0.0946
     56  CD2        1.6880    5.4250   -6.8620 C.ar   18  TRP18       0.0152
     57  NE1        1.7700    5.8390   -4.6650 N.ar   18  TRP18      -0.2442
     58  CE2        0.9130    5.6910   -5.7210 C.ar   18  TRP18       0.0810
     59  CE3        1.0500    5.2280   -8.0960 C.ar   18  TRP18       0.0012
     60  CZ2       -0.4770    5.7720   -5.7750 C.ar   18  TRP18       0.0191
     61  CZ3       -0.3300    5.3120   -8.1370 C.ar   18  TRP18       0.0001
     62  CH2       -1.0790    5.5930   -6.9850 C.ar   18  TRP18       0.0015
     63  N          5.3830    3.2390   -9.7060 N.am   19  ALA19      -0.1980
     64  CA         6.4530    3.1640  -10.6970 C.3    19  ALA19       0.1597
     65  C          7.0230    4.5610  -10.9120 C.2    19  ALA19       0.2287
     66  O          6.3680    5.5540  -10.5730 O.2    19  ALA19      -0.2864
     67  CB         5.8480    2.6390  -12.0040 C.3    19  ALA19       0.0319
     68  N          9.4150    6.1020   -9.3450 N.3    21  LYS21      -0.1245
     69  CA         9.9290    6.7310   -8.1380 C.3    21  LYS21       0.1561
     70  C         11.4430    6.5730   -8.0500 C.2    21  LYS21       0.2260
     71  O         12.0950    7.5010   -7.6000 O.2    21  LYS21      -0.2867
     72  CB         9.2670    6.1170   -6.8960 C.3    21  LYS21       0.0271
     73  CG         7.8290    6.5600   -6.6680 C.3    21  LYS21       0.0035
     74  CD         7.7300    8.0520   -6.3260 C.3    21  LYS21       0.0206
     75  CE         6.3200    8.3450   -5.7770 C.3    21  LYS21       0.1093
     76  NZ         6.2300    9.7230   -5.1870 N.3    21  LYS21      -0.1314
     77  N         -0.3320    0.6820  -10.3370 N.3    42  ASP42      -0.1239
     78  CA        -1.0020    1.9570  -10.5390 C.3    42  ASP42       0.1674
     79  C         -2.2750    2.0900   -9.7110 C.2    42  ASP42       0.2266
     80  O         -3.0150    3.0900   -9.8380 O.2    42  ASP42      -0.2867
     81  CB        -1.3680    2.1170  -12.0230 C.3    42  ASP42       0.1410
     82  CG        -0.1470    2.4380  -12.8680 C.2    42  ASP42       0.3668
     83  OD1        0.3690    3.5670  -12.7280 O.co2  42  ASP42      -0.2456
     84  OD2        0.2880    1.5640  -13.6500 O.co2  42  ASP42      -0.2456
     85  N         -4.2990    4.5640   -3.8850 N.3    45  SER45      -0.1217
     86  CA        -4.0440    4.2990   -2.4610 C.3    45  SER45       0.1889
     87  C         -5.3360    4.3200   -1.6600 C.2    45  SER45       0.2288
     88  O         -6.1910    5.2060   -1.8090 O.2    45  SER45      -0.2866
     89  CB        -3.0930    5.3420   -1.8660 C.3    45  SER45       0.2089
     90  OG        -2.9850    5.2110   -0.4500 O.3    45  SER45      -0.2183
     91  N         -5.6980    5.4040    1.2090 N.3    47  CYS47      -0.1221
     92  CA        -5.7850    6.6540    1.9720 C.3    47  CYS47       0.1808
     93  C         -6.4910    7.7820    1.2300 C.2    47  CYS47       0.2601
     94  O         -6.7620    8.8610    1.7630 O.2    47  CYS47      -0.2717
     95  CB        -4.3690    7.0400    2.4340 C.3    47  CYS47       0.0970
     96  SG        -3.9390    5.9540    3.8450 S.3    47  CYS47      -0.0800
     97  N         -6.8130    7.5730   -0.0320 N.am   48  GLU48      -0.1979
     98  CA        -7.5500    8.4310   -0.9380 C.3    48  GLU48       0.1602
     99  C         -8.9210    7.7750   -1.1390 C.2    48  GLU48       0.2287
    100  O         -9.0810    6.5540   -1.1600 O.2    48  GLU48      -0.2864
    101  CB        -6.8450    8.5350   -2.2910 C.3    48  GLU48       0.0415
    102  CG        -5.3970    9.0110   -2.2800 C.3    48  GLU48       0.1163
    103  CD        -5.3180   10.4740   -1.8860 C.2    48  GLU48       0.3649
    104  OE1       -6.3170   11.1670   -2.1840 O.co2  48  GLU48      -0.2457
    105  OE2       -4.3210   10.9290   -1.2770 O.co2  48  GLU48      -0.2457
    106  N         13.4800   10.6270   -3.1070 N.3    82  GLU82      -0.1245
    107  CA        12.8800    9.3000   -3.3040 C.3    82  GLU82       0.1567
    108  C         13.6380    8.4560   -4.3090 C.2    82  GLU82       0.2260
    109  O         13.7550    7.2370   -4.1140 O.2    82  GLU82      -0.2867
    110  CB        11.4220    9.4600   -3.7510 C.3    82  GLU82       0.0388
    111  CG        10.5080   10.0030   -2.6160 C.3    82  GLU82       0.1160
    112  CD         9.0750    9.5600   -2.8840 C.2    82  GLU82       0.3649
    113  OE1        8.6780    8.4460   -2.4790 O.co2  82  GLU82      -0.2457
    114  OE2        8.3220   10.3030   -3.5330 O.co2  82  GLU82      -0.2457
    115  N          9.0390    4.1090    1.8370 N.3   110  SER110     -0.1202
    116  CA         8.2310    5.3180    1.6220 C.3   110  SER110      0.2020
    117  C          8.7730    6.5110    2.4110 C.2   110  SER110      0.2619
    118  O          9.9620    6.4240    2.7420 O.2   110  SER110     -0.2717
    119  CB         6.7330    5.1650    1.8390 C.3   110  SER110      0.2103
    120  OG         6.4290    4.6990    3.1090 O.3   110  SER110     -0.2182
    121  N          8.0450    7.6120    2.5030 N.am  111  THR111     -0.1938
    122  CA         8.5320    8.8390    3.1670 C.3   111  THR111      0.2028
    123  C          7.2980    9.6060    3.6470 C.2   111  THR111      0.2643
    124  O          6.1920    9.0600    3.4740 O.2   111  THR111     -0.2714
    125  CB         9.3340    9.7410    2.2060 C.3   111  THR111      0.1808
    126  OG1        9.8410   10.8980    2.8890 O.3   111  THR111     -0.2208
    127  CG2        8.4490   10.1990    1.0600 C.3   111  THR111      0.0379
    128  N          7.3600   10.7990    4.2040 N.am  112  GLY112     -0.1939
    129  CA         6.1490   11.5270    4.6090 C.3   112  GLY112      0.2014
    130  C          6.4620   13.0210    4.5080 C.2   112  GLY112      0.2639
    131  O          7.6360   13.3900    4.5830 O.2   112  GLY112     -0.2714
    132  N          5.4940   13.8900    4.3310 N.am  113  GLY113     -0.1939
    133  CA         5.7520   15.3270    4.1980 C.3   113  GLY113      0.2014
    134  C          6.2090   15.9530    5.4970 C.2   113  GLY113      0.2638
    135  O          6.7930   17.0410    5.4960 O.2   113  GLY113     -0.2714
    136  N          5.9470   15.3090    6.6290 N.am  114  ASP114     -0.1971
    137  CA         6.2710   15.7480    7.9630 C.3   114  ASP114      0.1709
    138  C          7.5910   15.2210    8.5080 C.2   114  ASP114      0.2293
    139  O          7.9080   15.4960    9.6740 O.2   114  ASP114     -0.2864
    140  CB         5.1750   15.3600    8.9780 C.3   114  ASP114      0.1436
    141  CG         4.6760   13.9380    8.9590 C.2   114  ASP114      0.3671
    142  OD1        4.9710   13.2060    7.9870 O.co2 114  ASP114     -0.2456
    143  OD2        3.9540   13.5020    9.9070 O.co2 114  ASP114     -0.2456
    144  N         -0.7090   11.6490    9.8170 N.3   131  ILE131     -0.1231
    145  CA        -1.5250   12.4970    8.9560 C.3   131  ILE131      0.1692
    146  C         -2.7040   11.7790    8.3300 C.2   131  ILE131      0.2592
    147  O         -3.8280   12.2920    8.3200 O.2   131  ILE131     -0.2718
    148  CB        -0.6260   13.1320    7.8600 C.3   131  ILE131      0.0266
    149  CG1        0.3730   14.1040    8.5120 C.3   131  ILE131      0.0019
    150  CG2       -1.4430   13.8090    6.7790 C.3   131  ILE131      0.0020
    151  CD1        1.2830   14.8140    7.5320 C.3   131  ILE131      0.0001
    152  N         -2.4790   10.6310    7.6930 N.am  132  PHE132     -0.1976
    153  CA        -3.5620    9.9390    6.9960 C.3   132  PHE132      0.1639
    154  C         -4.0410    8.7290    7.7780 C.2   132  PHE132      0.2290
    155  O         -3.2030    8.0250    8.3370 O.2   132  PHE132     -0.2864
    156  CB        -3.0940    9.4040    5.6440 C.3   132  PHE132      0.0560
    157  CG        -2.4770   10.3750    4.6930 C.ar  132  PHE132     -0.0200
    158  CD1       -3.2420   11.1490    3.8330 C.ar  132  PHE132     -0.0042
    159  CD2       -1.0930   10.4760    4.6630 C.ar  132  PHE132     -0.0042
    160  CE1       -2.6180   12.0170    2.9410 C.ar  132  PHE132     -0.0003
    161  CE2       -0.4610   11.3320    3.7800 C.ar  132  PHE132     -0.0003
    162  CZ        -1.2330   12.1060    2.9290 C.ar  132  PHE132     -0.0000
@<TRIPOS>BOND
     1    84    82   ar
     2    82    83   ar
     3    82    81    1
     4    81    78    1
     5    67    64    1
     6    65    64    1
     7    65    66    2
     8    64    63    1
     9    78    77    1
    10    78    79    1
    11    80    79    2
    12    63    51   am
    13    68    69    1
    14    51    52    2
    15    51    50    1
    16    69    70    1
    17    69    72    1
    18    61    59   ar
    19    61    62   ar
    20    59    56   ar
    21    70    71    2
    22    50    53    1
    23    50    49    1
    24    53    54    1
    25    62    60   ar
    26    72    73    1
    27    56    54   ar
    28    56    58   ar
    29    73    74    1
    30    54    55   ar
    31    35    34    1
    32    74    75    1
    33    75    76    1
    34    60    58   ar
    35    58    57   ar
    36    55    57   ar
    37    34    33    1
    38   108   109    2
    39   108   107    1
    40    33    32    1
    41    46    45    2
    42    85    86    1
    43   110   107    1
    44   110   111    1
    45   114   112   ar
    46   107   106    1
    47   112   111    1
    48   112   113   ar
    49    45    44    1
    50    32    31    1
    51    86    89    1
    52    86    87    1
    53   101   102    1
    54   101    98    1
    55   102   103    1
    56   104   103   ar
    57   103   105   ar
    58    39    38    2
    59    89    90    1
    60    88    87    2
    61    44    47    1
    62    44    43    1
    63    47    48    1
    64    31    28    1
    65   100    99    2
    66    99    98    1
    67    98    97    1
    68    38    43   am
    69    38    37    1
    70    28    29    1
    71    28    27    1
    72    97    93   am
    73    29    36   am
    74    29    30    2
    75    42    36    1
    76    42    41    1
    77    36    37    1
    78    41    40    1
    79    37    40    1
    80    27    23   am
    81   127   125    1
    82    91    92    1
    83    93    94    2
    84    93    92    1
    85   116   115    1
    86   116   119    1
    87   116   117    1
    88   119   120    1
    89    92    95    1
    90   125   126    1
    91   125   122    1
    92    23    24    2
    93    23    22    1
    94   117   121   am
    95   117   118    2
    96    95    96    1
    97   121   122    1
    98   162   160   ar
    99   162   161   ar
   100   160   158   ar
   101    25    22    1
   102    25    26    1
   103    22    21    1
   104   122   123    1
   105   124   123    2
   106   123   128   am
   107   161   159   ar
   108   158   157   ar
   109    96    26    1
   110   133   132    1
   111   133   134    1
   112   128   129    1
   113   132   130   am
   114   130   131    2
   115   130   129    1
   116   159   157   ar
   117   157   156    1
   118   135   134    2
   119   134   136   am
   120   156   153    1
   121    12    11    1
   122    19    18    2
   123    20    18   am
   124   136   137    1
   125   150   148    1
   126    18    17    1
   127   153   152    1
   128   153   154    1
   129    16    15    2
   130    11    10   ar
   131    11     9   ar
   132   151   149    1
   133    15    14    1
   134   152   146   am
   135    10     8   ar
   136   154   155    2
   137   148   149    1
   138   148   145    1
   139   137   138    1
   140   137   140    1
   141   142   141   ar
   142    17    14    1
   143     9     7   ar
   144   147   146    2
   145   146   145    1
   146   138   139    2
   147    14    13    1
   148   145   144    1
   149   141   140    1
   150   141   143   ar
   151     8     6   ar
   152     7     6   ar
   153     6     5    1
   154     5     2    1
   155     4     3    2
   156     3     2    1
   157     2     1    1
