@<TRIPOS>MOLECULE
tmp/4enhA01.pdb
 181 173 0 0 0
SMALL
GASTEIGER

@<TRIPOS>ATOM
      1  N         -2.1920   39.9450  -11.4700 N.3    22  PHE22      -0.1241
      2  CA        -0.8810   39.5330  -10.9510 C.3    22  PHE22       0.1605
      3  C         -0.2740   40.6330  -10.0670 C.2    22  PHE22       0.2264
      4  O          0.9540   40.8090  -10.0270 O.2    22  PHE22      -0.2867
      5  CB         0.1020   39.1420  -12.0820 C.3    22  PHE22       0.0534
      6  CG        -0.4340   38.1040  -13.0590 C.ar   22  PHE22      -0.0203
      7  CD1       -1.2120   37.0270  -12.6240 C.ar   22  PHE22      -0.0042
      8  CD2       -0.1240   38.1950  -14.4160 C.ar   22  PHE22      -0.0042
      9  CE1       -1.6960   36.0780  -13.5300 C.ar   22  PHE22      -0.0003
     10  CE2       -0.5940   37.2470  -15.3270 C.ar   22  PHE22      -0.0003
     11  CZ        -1.3870   36.1920  -14.8830 C.ar   22  PHE22      -0.0000
     12  N          4.7060   42.5260  -26.4950 N.3    46  LYS46      -0.1245
     13  CA         4.3650   42.0700  -25.1670 C.3    46  LYS46       0.1561
     14  C          5.0040   42.9620  -24.1110 C.2    46  LYS46       0.2260
     15  O          5.9450   43.6940  -24.3870 O.2    46  LYS46      -0.2867
     16  CB         4.7700   40.6140  -24.9610 C.3    46  LYS46       0.0271
     17  CG         3.9550   39.6260  -25.7390 C.3    46  LYS46       0.0035
     18  CD         4.4150   38.2030  -25.4170 C.3    46  LYS46       0.0206
     19  CE         3.6210   37.1780  -26.1900 C.3    46  LYS46       0.1093
     20  NZ         3.5410   35.9300  -25.4000 N.3    46  LYS46      -0.1314
     21  N          4.7050   42.0610  -17.3380 N.3    50  MET50      -0.1230
     22  CA         3.6870   41.0200  -17.1220 C.3    50  MET50       0.1702
     23  C          4.2050   39.5970  -17.3230 C.2    50  MET50       0.2592
     24  O          3.6830   38.6430  -16.7260 O.2    50  MET50      -0.2718
     25  CB         2.4640   41.2310  -18.0330 C.3    50  MET50       0.0401
     26  CG         1.5800   42.4280  -17.6970 C.3    50  MET50       0.0596
     27  SD         1.2640   42.6960  -15.9400 S.3    50  MET50      -0.1393
     28  CE         2.3360   44.0960  -15.6910 C.3    50  MET50       0.0692
     29  N          5.2170   39.4560  -18.1720 N.am   51  TYR51      -0.1976
     30  CA         5.7620   38.1460  -18.5050 C.3    51  TYR51       0.1639
     31  C          7.0070   37.8610  -17.6900 C.2    51  TYR51       0.2290
     32  O          7.5180   36.7350  -17.7070 O.2    51  TYR51      -0.2864
     33  CB         6.0920   38.0650  -19.9920 C.3    51  TYR51       0.0560
     34  CG         4.8820   37.8930  -20.8670 C.ar   51  TYR51      -0.0198
     35  CD1        4.4240   36.6250  -21.2060 C.ar   51  TYR51      -0.0009
     36  CD2        4.2000   38.9950  -21.3680 C.ar   51  TYR51      -0.0009
     37  CE1        3.3090   36.4590  -22.0070 C.ar   51  TYR51       0.0417
     38  CE2        3.0920   38.8370  -22.1660 C.ar   51  TYR51       0.0417
     39  CZ         2.6450   37.5620  -22.4800 C.ar   51  TYR51       0.1957
     40  OH         1.5420   37.3870  -23.2840 O.3    51  TYR51      -0.2866
     41  N          6.9710   34.7690  -15.6390 N.3    54  LEU54      -0.1245
     42  CA         7.1110   33.4920  -16.3330 C.3    54  LEU54       0.1561
     43  C          8.5920   33.2250  -16.6610 C.2    54  LEU54       0.2260
     44  O          9.0420   32.0720  -16.6990 O.2    54  LEU54      -0.2867
     45  CB         6.2850   33.5690  -17.6230 C.3    54  LEU54       0.0270
     46  CG         5.3100   32.5020  -18.1260 C.3    54  LEU54       0.0019
     47  CD1        4.4090   31.9090  -17.0350 C.3    54  LEU54       0.0001
     48  CD2        4.4640   33.1220  -19.2490 C.3    54  LEU54       0.0001
     49  N         11.1580   29.8720  -18.0830 N.3    63  PHE63      -0.1241
     50  CA        11.0980   30.0320  -19.5340 C.3    63  PHE63       0.1605
     51  C         12.1130   31.0470  -20.0440 C.2    63  PHE63       0.2264
     52  O         12.3150   31.1710  -21.2530 O.2    63  PHE63      -0.2867
     53  CB         9.6840   30.3790  -20.0260 C.3    63  PHE63       0.0534
     54  CG         8.6210   29.3860  -19.6180 C.ar   63  PHE63      -0.0203
     55  CD1        7.3020   29.7940  -19.4860 C.ar   63  PHE63      -0.0042
     56  CD2        8.9350   28.0630  -19.3450 C.ar   63  PHE63      -0.0042
     57  CE1        6.3040   28.8970  -19.0960 C.ar   63  PHE63      -0.0003
     58  CE2        7.9510   27.1600  -18.9530 C.ar   63  PHE63      -0.0003
     59  CZ         6.6310   27.5800  -18.8270 C.ar   63  PHE63      -0.0000
     60  N          7.8590   32.1450  -25.8340 N.3    68  VAL68      -0.1245
     61  CA         6.6910   32.7360  -25.2030 C.3    68  VAL68       0.1561
     62  C          7.0390   34.0560  -24.4890 C.2    68  VAL68       0.2260
     63  O          6.4130   35.0960  -24.7340 O.2    68  VAL68      -0.2867
     64  CB         6.0290   31.7670  -24.1990 C.3    68  VAL68       0.0252
     65  CG1        4.8640   32.4610  -23.4900 C.3    68  VAL68       0.0019
     66  CG2        5.5630   30.4750  -24.8910 C.3    68  VAL68       0.0019
     67  N          4.0080   24.0510  -11.8580 N.3   161  LEU161     -0.1245
     68  CA         2.7890   24.7370  -12.2640 C.3   161  LEU161      0.1561
     69  C          2.0770   25.4320  -11.0980 C.2   161  LEU161      0.2260
     70  O          1.6180   26.5720  -11.2530 O.2   161  LEU161     -0.2867
     71  CB         1.8500   23.8070  -13.0360 C.3   161  LEU161      0.0270
     72  CG         2.2620   23.4670  -14.4780 C.3   161  LEU161      0.0019
     73  CD1        1.2890   22.4800  -15.0840 C.3   161  LEU161      0.0001
     74  CD2        2.3600   24.7030  -15.3410 C.3   161  LEU161      0.0001
     75  N          4.0490   28.6590  -10.4150 N.3   164  ILE164     -0.1245
     76  CA         3.6120   29.8260  -11.1730 C.3   164  ILE164      0.1561
     77  C          2.3260   30.4220  -10.5860 C.2   164  ILE164      0.2260
     78  O          2.1660   31.6390  -10.5570 O.2   164  ILE164     -0.2867
     79  CB         3.4590   29.5040  -12.6820 C.3   164  ILE164      0.0252
     80  CG1        4.8150   29.1040  -13.2750 C.3   164  ILE164      0.0019
     81  CG2        2.8860   30.7070  -13.4480 C.3   164  ILE164      0.0019
     82  CD1        4.7790   28.7640  -14.7530 C.3   164  ILE164      0.0001
     83  N          2.8710   34.4870   -9.1180 N.3   168  ARG168     -0.1245
     84  CA         2.1590   35.6790   -9.6010 C.3   168  ARG168      0.1563
     85  C          0.8310   35.9400   -8.8740 C.2   168  ARG168      0.2260
     86  O          0.0260   36.7710   -9.3000 O.2   168  ARG168     -0.2867
     87  CB         1.9920   35.6490  -11.1350 C.3   168  ARG168      0.0307
     88  CG         1.1810   34.4810  -11.7000 C.3   168  ARG168      0.0489
     89  CD         1.3570   34.3890  -13.2170 C.3   168  ARG168      0.2205
     90  NE         0.4580   33.4150  -13.8400 N.pl3 168  ARG168     -0.0865
     91  CZ         0.4000   33.1580  -15.1480 C.cat 168  ARG168      0.5346
     92  NH1        1.1880   33.8030  -16.0010 N.pl3 168  ARG168      0.1354
     93  NH2       -0.4510   32.2520  -15.6070 N.pl3 168  ARG168      0.1354
     94  N          6.5250   22.5280  -21.9150 N.3   237  ILE237     -0.1231
     95  CA         5.3290   22.8440  -21.1320 C.3   237  ILE237      0.1692
     96  C          4.1950   23.4180  -22.0010 C.2   237  ILE237      0.2591
     97  O          3.0680   22.9290  -21.9570 O.2   237  ILE237     -0.2718
     98  CB         5.6940   23.8140  -19.9820 C.3   237  ILE237      0.0266
     99  CG1        6.3600   23.0380  -18.8530 C.3   237  ILE237      0.0019
    100  CG2        4.4440   24.6010  -19.4570 C.3   237  ILE237      0.0020
    101  CD1        7.2450   23.8640  -18.0290 C.3   237  ILE237      0.0001
    102  N          4.5120   24.4630  -22.7630 N.am  238  ALA238     -0.1980
    103  CA         3.5620   25.1000  -23.6800 C.3   238  ALA238      0.1597
    104  C          3.0100   24.1060  -24.6830 C.2   238  ALA238      0.2287
    105  O          1.8690   24.2250  -25.1170 O.2   238  ALA238     -0.2864
    106  CB         4.2620   26.2530  -24.4400 C.3   238  ALA238      0.0319
    107  N          0.6160   21.3900  -21.9280 N.3   241  GLU241     -0.1231
    108  CA        -0.3620   21.8230  -20.9090 C.3   241  GLU241      0.1699
    109  C         -1.6630   22.3570  -21.4910 C.2   241  GLU241      0.2592
    110  O         -2.7230   21.8090  -21.2090 O.2   241  GLU241     -0.2718
    111  CB         0.2500   22.8410  -19.9120 C.3   241  GLU241      0.0402
    112  CG        -0.7430   23.4190  -18.8980 C.3   241  GLU241      0.1161
    113  CD        -1.2010   22.4120  -17.8450 C.2   241  GLU241      0.3649
    114  OE1       -0.6200   21.2840  -17.7650 O.co2 241  GLU241     -0.2457
    115  OE2       -2.1610   22.7450  -17.0920 O.co2 241  GLU241     -0.2457
    116  N         -1.5810   23.4230  -22.2890 N.am  242  THR242     -0.1953
    117  CA        -2.7740   23.9700  -22.9610 C.3   242  THR242      0.1897
    118  C         -3.5460   22.9250  -23.7780 C.2   242  THR242      0.2313
    119  O         -4.7830   22.9370  -23.7500 O.2   242  THR242     -0.2863
    120  CB        -2.4850   25.1840  -23.8720 C.3   242  THR242      0.1794
    121  OG1       -1.2540   24.9830  -24.5630 O.3   242  THR242     -0.2208
    122  CG2       -2.4140   26.4820  -23.0770 C.3   242  THR242      0.0378
    123  N         -5.5640   29.3380  -22.2680 N.3   303  ALA303     -0.1231
    124  CA        -4.7740   30.5500  -22.2090 C.3   303  ALA303      0.1694
    125  C         -5.7540   31.6750  -22.4380 C.2   303  ALA303      0.2592
    126  O         -6.1440   31.9550  -23.5600 O.2   303  ALA303     -0.2718
    127  CB        -3.7050   30.5390  -23.2170 C.3   303  ALA303      0.0304
    128  N         -6.1590   32.3150  -21.3500 N.am  304  TRP304     -0.1962
    129  CA        -7.2820   33.2160  -21.3700 C.3   304  TRP304      0.1775
    130  C         -7.0640   34.5630  -22.0630 C.2   304  TRP304      0.2659
    131  O         -8.0400   35.2290  -22.4500 O.2   304  TRP304     -0.2711
    132  CB        -7.7590   33.4480  -19.9380 C.3   304  TRP304      0.0591
    133  CG        -6.6660   33.7660  -18.9500 C.ar  304  TRP304      0.0006
    134  CD1       -6.0040   32.8830  -18.1440 C.ar  304  TRP304      0.0946
    135  CD2       -6.1290   35.0550  -18.6540 C.ar  304  TRP304      0.0152
    136  NE1       -5.0880   33.5490  -17.3640 N.ar  304  TRP304     -0.2442
    137  CE2       -5.1500   34.8820  -17.6560 C.ar  304  TRP304      0.0810
    138  CE3       -6.3880   36.3460  -19.1330 C.ar  304  TRP304      0.0012
    139  CZ2       -4.4290   35.9400  -17.1290 C.ar  304  TRP304      0.0191
    140  CZ3       -5.6740   37.4030  -18.6090 C.ar  304  TRP304      0.0001
    141  CH2       -4.7040   37.1940  -17.6110 C.ar  304  TRP304      0.0015
    142  N         -5.8060   34.9710  -22.2040 N.am  305  GLY305     -0.1716
    143  CA        -5.5010   36.2260  -22.8620 C.2   305  GLY305      0.1480
    144  C         -4.0400   36.5130  -23.1150 C.2   305  GLY305      0.2821
    145  O         -3.2280   35.6060  -23.1000 O.2   305  GLY305     -0.2669
    146  N         -3.7250   37.7820  -23.3580 N.am  306  THR306     -0.1902
    147  CA        -2.3560   38.2330  -23.5940 C.3   306  THR306      0.2031
    148  C         -2.2130   39.7280  -23.2190 C.2   306  THR306      0.2642
    149  O         -3.2040   40.4160  -23.0400 O.2   306  THR306     -0.2714
    150  CB        -1.9080   38.0160  -25.0700 C.3   306  THR306      0.1808
    151  OG1       -0.5310   38.3510  -25.1890 O.3   306  THR306     -0.2208
    152  CG2       -2.6920   38.8780  -26.0670 C.3   306  THR306      0.0379
    153  N         -0.9760   40.2010  -23.1120 N.am  307  PHE307     -0.1973
    154  CA        -0.6870   41.6030  -22.7820 C.3   307  PHE307      0.1639
    155  C          0.0890   42.2880  -23.8970 C.2   307  PHE307      0.2290
    156  O          0.9480   41.6790  -24.5200 O.2   307  PHE307     -0.2864
    157  CB         0.1380   41.7040  -21.5000 C.3   307  PHE307      0.0560
    158  CG        -0.5860   41.2460  -20.2680 C.ar  307  PHE307     -0.0200
    159  CD1       -1.3910   42.1260  -19.5460 C.ar  307  PHE307     -0.0042
    160  CD2       -0.4700   39.9370  -19.8290 C.ar  307  PHE307     -0.0042
    161  CE1       -2.0590   41.7000  -18.4010 C.ar  307  PHE307     -0.0003
    162  CE2       -1.1360   39.5090  -18.7000 C.ar  307  PHE307     -0.0003
    163  CZ        -1.9280   40.3970  -17.9850 C.ar  307  PHE307     -0.0000
    164  N         -0.0690   31.7370  -31.4220 N.3   373  CYS373     -0.1235
    165  CA         0.4820   30.4250  -31.1320 C.3   373  CYS373      0.1677
    166  C          1.1670   29.7850  -32.3390 C.2   373  CYS373      0.2270
    167  O          0.5480   29.5940  -33.3830 O.2   373  CYS373     -0.2867
    168  CB        -0.6450   29.5200  -30.6610 C.3   373  CYS373      0.0956
    169  SG        -0.0800   28.0210  -29.9910 S.3   373  CYS373     -0.0801
    170  N         -1.5950   28.2240  -13.7660 N.3   410  ALA410     -0.1231
    171  CA        -0.8170   28.8520  -14.8340 C.3   410  ALA410      0.1694
    172  C         -1.6670   29.0260  -16.1180 C.2   410  ALA410      0.2592
    173  O         -1.4030   29.9060  -16.9460 O.2   410  ALA410     -0.2718
    174  CB         0.4000   28.0350  -15.1140 C.3   410  ALA410      0.0304
    175  N         -2.6820   28.1770  -16.2600 N.am  411  THR411     -0.1953
    176  CA        -3.6480   28.2870  -17.3280 C.3   411  THR411      0.1897
    177  C         -4.9990   27.9660  -16.7060 C.2   411  THR411      0.2313
    178  O         -5.0780   27.5470  -15.5410 O.2   411  THR411     -0.2863
    179  CB        -3.3910   27.2410  -18.4440 C.3   411  THR411      0.1794
    180  OG1       -3.4030   25.9280  -17.8740 O.3   411  THR411     -0.2208
    181  CG2       -2.0670   27.4640  -19.1520 C.3   411  THR411      0.0378
@<TRIPOS>BOND
     1   167   166    2
     2   166   165    1
     3   164   165    1
     4   165   168    1
     5   168   169    1
     6    12    13    1
     7    19    18    1
     8    19    20    1
     9   152   150    1
    10    60    61    1
    11    17    18    1
    12    17    16    1
    13    61    62    1
    14    61    64    1
    15   151   150    1
    16    13    16    1
    17    13    14    1
    18   105   104    2
    19   150   147    1
    20    66    64    1
    21    63    62    2
    22   104   103    1
    23   121   120    1
    24   156   155    2
    25   106   103    1
    26    15    14    2
    27    64    65    1
    28   155   154    1
    29   120   122    1
    30   120   117    1
    31   118   119    2
    32   118   117    1
    33   103   102    1
    34   147   146    1
    35   147   148    1
    36   126   125    2
    37   146   144   am
    38    40    39    1
    39   148   153   am
    40   148   149    2
    41   127   124    1
    42   144   145    2
    43   144   143    1
    44   153   154    1
    45   117   116    1
    46   143   142    2
    47   154   157    1
    48   102    96   am
    49    39    38   ar
    50    39    37   ar
    51   131   130    2
    52   125   124    1
    53   125   128   am
    54   116   109   am
    55   123   124    1
    56   142   130    1
    57    38    36   ar
    58   130   129    1
    59    37    35   ar
    60    96    97    2
    61    96    95    1
    62   107   108    1
    63    94    95    1
    64   157   158    1
    65   109   110    2
    66   109   108    1
    67   129   128    1
    68   129   132    1
    69    36    34   ar
    70    52    51    2
    71    35    34   ar
    72    95    98    1
    73   108   111    1
    74    34    33    1
    75   158   160   ar
    76   158   159   ar
    77    51    50    1
    78    53    54    1
    79    53    50    1
    80    33    30    1
    81    98   100    1
    82    98    99    1
    83   132   133    1
    84   111   112    1
    85   160   162   ar
    86    54    55   ar
    87    54    56   ar
    88   159   161   ar
    89    50    49    1
    90    55    57   ar
    91    56    58   ar
    92    48    46    1
    93   181   179    1
    94   138   135   ar
    95   138   140   ar
    96    57    59   ar
    97    58    59   ar
    98   133   135   ar
    99   133   134   ar
   100   112   113    1
   101    99   101    1
   102   162   163   ar
   103   135   137   ar
   104   140   141   ar
   105    30    29    1
   106    30    31    1
   107   179   180    1
   108   179   176    1
   109   161   163   ar
   110    29    23   am
   111   134   136   ar
   112    46    45    1
   113    46    47    1
   114    25    26    1
   115    25    22    1
   116   113   114   ar
   117   113   115   ar
   118    32    31    2
   119    26    27    1
   120   137   136   ar
   121   137   139   ar
   122    45    42    1
   123   141   139   ar
   124    21    22    1
   125   176   177    1
   126   176   175    1
   127    23    22    1
   128    23    24    2
   129   173   172    2
   130   177   178    2
   131    44    43    2
   132    43    42    1
   133    42    41    1
   134   175   172   am
   135   172   171    1
   136    92    91    1
   137    27    28    1
   138    93    91    1
   139    74    72    1
   140    10    11   ar
   141    10     8   ar
   142    91    90    2
   143   174   171    1
   144    73    72    1
   145    11     9   ar
   146   171   170    1
   147    82    80    1
   148    72    71    1
   149     8     6   ar
   150    90    89    1
   151     9     7   ar
   152    81    79    1
   153    80    79    1
   154    89    88    1
   155     6     7   ar
   156     6     5    1
   157    71    68    1
   158    79    76    1
   159    68    67    1
   160    68    69    1
   161     5     2    1
   162    88    87    1
   163     1     2    1
   164    70    69    2
   165    76    77    1
   166    76    75    1
   167    87    84    1
   168     2     3    1
   169    77    78    2
   170     3     4    2
   171    84    83    1
   172    84    85    1
   173    86    85    2
