@<TRIPOS>MOLECULE
tmp/4enxA00.pdb
 184 173 0 0 0
SMALL
GASTEIGER

@<TRIPOS>ATOM
      1  N        -41.4970    4.3720    4.5670 N.3     8  LEU8       -0.1231
      2  CA       -41.9980    3.0170    4.8250 C.3     8  LEU8        0.1693
      3  C        -40.9470    2.1180    5.4730 C.2     8  LEU8        0.2593
      4  O        -41.2820    1.0880    6.0700 O.2     8  LEU8       -0.2718
      5  CB       -42.4900    2.3540    3.5340 C.3     8  LEU8        0.0284
      6  CG       -43.7150    2.9310    2.8180 C.3     8  LEU8        0.0019
      7  CD1      -44.0270    2.1550    1.5420 C.3     8  LEU8        0.0001
      8  CD2      -44.9220    2.9300    3.7300 C.3     8  LEU8        0.0001
      9  N        -39.6790    2.5000    5.3400 N.am    9  GLY9       -0.1942
     10  CA       -38.5840    1.7160    5.8900 C.3     9  GLY9        0.2014
     11  C        -37.2160    2.1860    5.4280 C.2     9  GLY9        0.2640
     12  O        -37.0840    2.8230    4.3760 O.2     9  GLY9       -0.2714
     13  N        -36.2000    1.8810    6.2310 N.am   10  SER10      -0.1935
     14  CA       -34.8100    2.1850    5.8980 C.3    10  SER10       0.2055
     15  C        -33.9540    1.0070    6.3310 C.2    10  SER10       0.2643
     16  O        -34.3520    0.2440    7.2100 O.2    10  SER10      -0.2714
     17  CB       -34.3450    3.4560    6.6120 C.3    10  SER10       0.2130
     18  OG       -32.9790    3.3610    6.9800 O.3    10  SER10      -0.2179
     19  N        -32.7860    0.8510    5.7200 N.am   11  GLY11      -0.1954
     20  CA       -31.9020   -0.2410    6.0810 C.3    11  GLY11       0.1869
     21  C        -30.6530   -0.3080    5.2270 C.2    11  GLY11       0.2309
     22  O        -30.1090    0.7230    4.8230 O.2    11  GLY11      -0.2863
     23  N        -30.4680   -1.8310    2.2110 N.3    13  PHE13      -0.1227
     24  CA       -30.7760   -1.7670    0.7850 C.3    13  PHE13       0.1736
     25  C        -31.4530   -0.4570    0.4010 C.2    13  PHE13       0.2596
     26  O        -32.1800   -0.3880   -0.5940 O.2    13  PHE13      -0.2718
     27  CB       -31.6070   -2.9810    0.3550 C.3    13  PHE13       0.0547
     28  CG       -30.9220   -4.2940    0.6170 C.ar   13  PHE13      -0.0202
     29  CD1      -31.1610   -4.9970    1.7920 C.ar   13  PHE13      -0.0042
     30  CD2      -30.0160   -4.8130   -0.2960 C.ar   13  PHE13      -0.0042
     31  CE1      -30.5210   -6.2000    2.0440 C.ar   13  PHE13      -0.0003
     32  CE2      -29.3720   -6.0150   -0.0500 C.ar   13  PHE13      -0.0003
     33  CZ       -29.6260   -6.7090    1.1210 C.ar   13  PHE13      -0.0000
     34  N        -31.1950    0.5790    1.1960 N.am   14  GLY14      -0.1942
     35  CA       -31.6950    1.9120    0.9150 C.3    14  GLY14       0.2014
     36  C        -32.8140    2.3500    1.8400 C.2    14  GLY14       0.2640
     37  O        -33.0470    1.7450    2.8900 O.2    14  GLY14      -0.2714
     38  N        -33.5020    3.4170    1.4490 N.am   15  SER15      -0.1935
     39  CA       -34.6530    3.9000    2.1940 C.3    15  SER15       0.2055
     40  C        -35.8610    3.8800    1.2670 C.2    15  SER15       0.2642
     41  O        -35.7330    4.1960    0.0800 O.2    15  SER15      -0.2714
     42  CB       -34.3840    5.3080    2.7240 C.3    15  SER15       0.2130
     43  OG       -33.1580    5.3450    3.4370 O.3    15  SER15      -0.2179
     44  N        -37.0210    3.4790    1.7880 N.am   16  VAL16      -0.1977
     45  CA       -38.2330    3.4000    0.9640 C.3    16  VAL16       0.1596
     46  C        -39.3740    4.2660    1.5150 C.2    16  VAL16       0.2287
     47  O        -39.7070    4.1950    2.7060 O.2    16  VAL16      -0.2864
     48  CB       -38.6980    1.9260    0.7250 C.3    16  VAL16       0.0276
     49  CG1      -39.1060    1.2490    2.0260 C.3    16  VAL16       0.0022
     50  CG2      -39.8440    1.8840   -0.2760 C.3    16  VAL16       0.0022
     51  N        -44.4420    3.0830   -4.3180 N.3    29  ALA29      -0.1245
     52  CA       -43.3790    3.1360   -3.3100 C.3    29  ALA29       0.1562
     53  C        -42.1320    3.7350   -3.9510 C.2    29  ALA29       0.2260
     54  O        -41.7720    3.3680   -5.0710 O.2    29  ALA29      -0.2867
     55  CB       -43.0790    1.7610   -2.7700 C.3    29  ALA29       0.0290
     56  N        -38.1960    4.0010   -3.7380 N.3    31  LYS31      -0.1245
     57  CA       -36.9880    3.4060   -3.1560 C.3    31  LYS31       0.1561
     58  C        -35.7150    4.1370   -3.5900 C.2    31  LYS31       0.2260
     59  O        -35.4380    4.2650   -4.7890 O.2    31  LYS31      -0.2867
     60  CB       -36.8790    1.9350   -3.5670 C.3    31  LYS31       0.0271
     61  CG       -35.6290    1.2320   -3.0490 C.3    31  LYS31       0.0035
     62  CD       -35.7480   -0.2790   -3.2090 C.3    31  LYS31       0.0206
     63  CE       -34.5050   -0.9770   -2.6950 C.3    31  LYS31       0.1093
     64  NZ       -34.6230   -2.4570   -2.7720 N.3    31  LYS31      -0.1314
     65  N        -30.4760   -4.8470   -9.5750 N.3    50  GLU50      -0.1245
     66  CA       -31.8340   -4.8240   -9.0380 C.3    50  GLU50       0.1567
     67  C        -32.8370   -4.3380  -10.0960 C.2    50  GLU50       0.2260
     68  O        -33.9060   -4.9350  -10.2690 O.2    50  GLU50      -0.2867
     69  CB       -31.8840   -3.9470   -7.7800 C.3    50  GLU50       0.0388
     70  CG       -33.1580   -4.0810   -6.9560 C.3    50  GLU50       0.1160
     71  CD       -33.1840   -3.1410   -5.7600 C.2    50  GLU50       0.3649
     72  OE1      -32.1270   -2.5630   -5.4210 O.co2  50  GLU50      -0.2457
     73  OE2      -34.2660   -2.9790   -5.1600 O.co2  50  GLU50      -0.2457
     74  N        -35.5910   -6.8750  -11.7980 N.3    54  LEU54      -0.1245
     75  CA       -36.9870   -6.4290  -11.7280 C.3    54  LEU54       0.1561
     76  C        -37.6760   -6.3520  -13.1010 C.2    54  LEU54       0.2260
     77  O        -38.8580   -6.6770  -13.2260 O.2    54  LEU54      -0.2867
     78  CB       -37.0970   -5.0860  -10.9900 C.3    54  LEU54       0.0270
     79  CG       -37.0300   -5.1050   -9.4550 C.3    54  LEU54       0.0019
     80  CD1      -36.8710   -3.7060   -8.8710 C.3    54  LEU54       0.0001
     81  CD2      -38.2690   -5.7670   -8.8780 C.3    54  LEU54       0.0001
     82  N        -43.2660   -8.0140   -6.9960 N.3    65  ILE65      -0.1245
     83  CA       -43.4730   -6.5590   -7.0230 C.3    65  ILE65       0.1561
     84  C        -43.1690   -6.0070   -8.4180 C.2    65  ILE65       0.2260
     85  O        -42.2880   -6.5220   -9.1110 O.2    65  ILE65      -0.2867
     86  CB       -42.6370   -5.8210   -5.9300 C.3    65  ILE65       0.0252
     87  CG1      -43.3120   -4.5060   -5.5160 C.3    65  ILE65       0.0019
     88  CG2      -41.1840   -5.6050   -6.3690 C.3    65  ILE65       0.0019
     89  CD1      -44.6650   -4.6980   -4.8620 C.3    65  ILE65       0.0001
     90  N        -41.9320    1.7660   -7.3920 N.3    81  LEU81      -0.1231
     91  CA       -42.4220    0.3960   -7.3000 C.3    81  LEU81       0.1693
     92  C        -43.9250    0.3600   -7.0350 C.2    81  LEU81       0.2592
     93  O        -44.4980    1.3230   -6.5110 O.2    81  LEU81      -0.2718
     94  CB       -41.6730   -0.3510   -6.1890 C.3    81  LEU81       0.0284
     95  CG       -40.1760   -0.5730   -6.4120 C.3    81  LEU81       0.0019
     96  CD1      -39.4560   -0.8190   -5.1000 C.3    81  LEU81       0.0001
     97  CD2      -39.9460   -1.7430   -7.3520 C.3    81  LEU81       0.0001
     98  N        -44.5550   -0.7480   -7.4120 N.am   82  GLU82      -0.1966
     99  CA       -45.9480   -1.0220   -7.0710 C.3    82  GLU82       0.1733
    100  C        -46.1800   -0.9130   -5.5570 C.2    82  GLU82       0.2616
    101  O        -45.3180   -1.3170   -4.7640 O.2    82  GLU82      -0.2715
    102  CB       -46.3040   -2.4300   -7.5590 C.3    82  GLU82       0.0429
    103  CG       -47.5680   -3.0230   -6.9630 C.3    82  GLU82       0.1163
    104  CD       -47.8750   -4.4160   -7.4920 C.2    82  GLU82       0.3649
    105  OE1      -46.9320   -5.1570   -7.8540 O.co2  82  GLU82      -0.2457
    106  OE2      -49.0730   -4.7650   -7.5460 O.co2  82  GLU82      -0.2457
    107  N        -47.3230   -0.3490   -5.1570 N.am   83  ARG83      -0.1977
    108  CA       -47.7230   -0.3220   -3.7420 C.3    83  ARG83       0.1597
    109  C        -49.2000   -0.6750   -3.5250 C.2    83  ARG83       0.2287
    110  O        -50.0870    0.1380   -3.7980 O.2    83  ARG83      -0.2864
    111  CB       -47.4070    1.0360   -3.0900 C.3    83  ARG83       0.0334
    112  CG       -47.9040    1.1610   -1.6400 C.3    83  ARG83       0.0492
    113  CD       -47.3630    2.4050   -0.9280 C.3    83  ARG83       0.2205
    114  NE       -47.8030    3.6580   -1.5400 N.pl3  83  ARG83      -0.0865
    115  CZ       -48.9540    4.2670   -1.2630 C.cat  83  ARG83       0.5346
    116  NH1      -49.7990    3.7340   -0.3890 N.pl3  83  ARG83       0.1354
    117  NH2      -49.2690    5.4060   -1.8670 N.pl3  83  ARG83       0.1354
    118  N        -51.7500   -2.7490    2.8890 N.3    87  VAL87      -0.1245
    119  CA       -50.7360   -3.7880    2.7850 C.3    87  VAL87       0.1561
    120  C        -50.0400   -3.9370    4.1440 C.2    87  VAL87       0.2260
    121  O        -50.0240   -3.0000    4.9430 O.2    87  VAL87      -0.2867
    122  CB       -49.7130   -3.4560    1.6690 C.3    87  VAL87       0.0252
    123  CG1      -48.6680   -2.4730    2.1670 C.3    87  VAL87       0.0019
    124  CG2      -49.0440   -4.7180    1.1570 C.3    87  VAL87       0.0019
    125  N        -46.4780   -6.3580    5.7630 N.3    89  ASP89      -0.1239
    126  CA       -45.5130   -7.4230    5.4710 C.3    89  ASP89       0.1674
    127  C        -45.6800   -8.6200    6.4000 C.2    89  ASP89       0.2266
    128  O        -46.2650   -8.5090    7.4830 O.2    89  ASP89      -0.2867
    129  CB       -44.0560   -6.9240    5.4080 C.3    89  ASP89       0.1410
    130  CG       -43.5060   -6.4940    6.7540 C.2    89  ASP89       0.3668
    131  OD1      -42.9770   -5.3670    6.8370 O.co2  89  ASP89      -0.2456
    132  OD2      -43.5570   -7.2840    7.7190 O.co2  89  ASP89      -0.2456
    133  N        -39.8980  -10.4460    5.9600 N.3   132  GLU132     -0.1231
    134  CA       -39.7570   -9.0120    5.6970 C.3   132  GLU132      0.1699
    135  C        -39.8360   -8.6630    4.2070 C.2   132  GLU132      0.2592
    136  O        -40.2090   -7.5460    3.8440 O.2   132  GLU132     -0.2718
    137  CB       -38.4390   -8.4840    6.2730 C.3   132  GLU132      0.0402
    138  CG       -38.4130   -8.3530    7.7860 C.3   132  GLU132      0.1161
    139  CD       -37.0430   -7.9540    8.3120 C.2   132  GLU132      0.3649
    140  OE1      -36.6320   -6.7940    8.0860 O.co2 132  GLU132     -0.2457
    141  OE2      -36.3780   -8.8030    8.9510 O.co2 132  GLU132     -0.2457
    142  N        -39.4710   -9.6160    3.3510 N.am  133  ASN133     -0.1974
    143  CA       -39.5050   -9.3970    1.9080 C.3   133  ASN133      0.1688
    144  C        -40.7700   -9.9540    1.2410 C.2   133  ASN133      0.2292
    145  O        -40.7880  -10.2290    0.0360 O.2   133  ASN133     -0.2864
    146  CB       -38.2220   -9.9260    1.2450 C.3   133  ASN133      0.1181
    147  CG       -36.9960   -9.0940    1.6020 C.2   133  ASN133      0.2629
    148  OD1      -37.0830   -7.8720    1.7270 O.2   133  ASN133     -0.2716
    149  ND2      -35.8520   -9.7540    1.7780 N.am  133  ASN133     -0.0877
    150  N        -44.9270   -8.9540    0.9340 N.3   135  LEU135     -0.1245
    151  CA       -46.0420   -8.0400    1.1940 C.3   135  LEU135      0.1561
    152  C        -47.3930   -8.7610    1.0680 C.2   135  LEU135      0.2260
    153  O        -47.5390   -9.6920    0.2630 O.2   135  LEU135     -0.2867
    154  CB       -45.9940   -6.8340    0.2490 C.3   135  LEU135      0.0270
    155  CG       -44.9100   -5.7850    0.4980 C.3   135  LEU135      0.0019
    156  CD1      -45.0990   -4.5770   -0.4030 C.3   135  LEU135      0.0001
    157  CD2      -44.9250   -5.3580    1.9530 C.3   135  LEU135      0.0001
    158  N        -40.7150   -8.7880   -2.5120 N.3   146  ILE146     -0.1231
    159  CA       -40.0280   -7.4890   -2.6540 C.3   146  ILE146      0.1692
    160  C        -38.5170   -7.5410   -2.3650 C.2   146  ILE146      0.2592
    161  O        -37.9940   -8.5770   -1.9450 O.2   146  ILE146     -0.2718
    162  CB       -40.6580   -6.3850   -1.7680 C.3   146  ILE146      0.0266
    163  CG1      -40.4890   -6.7200   -0.2810 C.3   146  ILE146      0.0019
    164  CG2      -42.1190   -6.1350   -2.1480 C.3   146  ILE146      0.0020
    165  CD1      -40.9860   -5.6310    0.6570 C.3   146  ILE146      0.0001
    166  N        -37.8370   -6.4110   -2.5830 N.am  147  ASP147     -0.1960
    167  CA       -36.3860   -6.2800   -2.3780 C.3   147  ASP147      0.1840
    168  C        -35.5340   -7.2700   -3.1710 C.2   147  ASP147      0.2622
    169  O        -35.1890   -8.3500   -2.6850 O.2   147  ASP147     -0.2715
    170  CB       -36.0190   -6.3180   -0.8870 C.3   147  ASP147      0.1450
    171  CG       -34.6140   -5.8020   -0.6170 C.2   147  ASP147      0.3671
    172  OD1      -34.1010   -4.9940   -1.4280 O.co2 147  ASP147     -0.2456
    173  OD2      -34.0230   -6.1980    0.4130 O.co2 147  ASP147     -0.2456
    174  N        -35.1920   -6.8850   -4.3960 N.am  148  PHE148     -0.1974
    175  CA       -34.3270   -7.6960   -5.2440 C.3   148  PHE148      0.1639
    176  C        -32.8870   -7.1770   -5.2040 C.2   148  PHE148      0.2290
    177  O        -32.0940   -7.4570   -6.1080 O.2   148  PHE148     -0.2864
    178  CB       -34.8670   -7.7270   -6.6870 C.3   148  PHE148      0.0560
    179  CG       -36.0940   -8.5940   -6.8630 C.ar  148  PHE148     -0.0200
    180  CD1      -35.9840   -9.8840   -7.3710 C.ar  148  PHE148     -0.0042
    181  CD2      -37.3540   -8.1240   -6.5140 C.ar  148  PHE148     -0.0042
    182  CE1      -37.1070  -10.6870   -7.5270 C.ar  148  PHE148     -0.0003
    183  CE2      -38.4790   -8.9240   -6.6690 C.ar  148  PHE148     -0.0003
    184  CZ       -38.3510  -10.2060   -7.1730 C.ar  148  PHE148     -0.0000
@<TRIPOS>BOND
     1    77    76    2
     2    76    75    1
     3    74    75    1
     4    75    78    1
     5    78    79    1
     6    68    67    2
     7    67    66    1
     8    65    66    1
     9    79    81    1
    10    79    80    1
    11    85    84    2
    12    66    69    1
    13    84    83    1
    14   105   104   ar
    15    69    70    1
    16   102    99    1
    17   102   103    1
    18   106   104   ar
    19   182   180   ar
    20   182   184   ar
    21   104   103    1
    22    98    99    1
    23    98    92   am
    24    90    91    1
    25   180   179   ar
    26    97    95    1
    27    91    92    1
    28    91    94    1
    29   184   183   ar
    30    99   100    1
    31    92    93    2
    32    83    82    1
    33    83    86    1
    34    70    71    1
    35   179   178    1
    36   179   181   ar
    37   178   175    1
    38   183   181   ar
    39    95    94    1
    40    95    96    1
    41    88    86    1
    42   177   176    2
    43    86    87    1
    44    71    72   ar
    45    71    73   ar
    46   100   107   am
    47   100   101    2
    48    87    89    1
    49   175   176    1
    50   175   174    1
    51   107   108    1
    52    54    53    2
    53    59    58    2
    54   174   168   am
    55    51    52    1
    56    53    52    1
    57   110   109    2
    58   108   109    1
    59   108   111    1
    60    56    57    1
    61    58    57    1
    62    60    57    1
    63    60    61    1
    64    52    55    1
    65    62    61    1
    66    62    63    1
    67   168   169    2
    68   168   167    1
    69   111   112    1
    70    64    63    1
    71   159   158    1
    72   159   160    1
    73   159   162    1
    74   166   167    1
    75   166   160   am
    76   167   170    1
    77   160   161    2
    78   164   162    1
    79   117   115    1
    80   162   163    1
    81   112   113    1
    82   114   115    2
    83   114   113    1
    84   172   171   ar
    85   115   116    1
    86   170   171    1
    87   171   173   ar
    88    26    25    2
    89   156   155    1
    90    30    32   ar
    91    30    28   ar
    92   163   165    1
    93    50    48    1
    94    32    33   ar
    95   145   144    2
    96    41    40    2
    97   154   155    1
    98   154   151    1
    99   153   152    2
   100    27    28    1
   101    27    24    1
   102    25    24    1
   103    25    34   am
   104   155   157    1
   105    28    29   ar
   106    48    45    1
   107    48    49    1
   108    24    23    1
   109    35    34    1
   110    35    36    1
   111   150   151    1
   112    45    46    1
   113    45    44    1
   114   152   151    1
   115    33    31   ar
   116   124   122    1
   117   144   143    1
   118   146   147    1
   119   146   143    1
   120    40    44   am
   121    40    39    1
   122    38    36   am
   123    38    39    1
   124    46    47    2
   125     7     6    1
   126   147   148    2
   127   147   149   am
   128   122   123    1
   129   122   119    1
   130    29    31   ar
   131    36    37    2
   132   143   142    1
   133    39    42    1
   134    42    43    1
   135   119   118    1
   136   119   120    1
   137     6     5    1
   138     6     8    1
   139   142   135   am
   140     5     2    1
   141   136   135    2
   142   120   121    2
   143   135   134    1
   144    12    11    2
   145     1     2    1
   146    22    21    2
   147     2     3    1
   148    21    20    1
   149     9     3   am
   150     9    10    1
   151   129   126    1
   152   129   130    1
   153    11    10    1
   154    11    13   am
   155   126   125    1
   156   126   127    1
   157     3     4    2
   158   134   133    1
   159   134   137    1
   160    19    20    1
   161    19    15   am
   162    14    13    1
   163    14    15    1
   164    14    17    1
   165   137   138    1
   166    15    16    2
   167   127   128    2
   168    17    18    1
   169   130   131   ar
   170   130   132   ar
   171   138   139    1
   172   140   139   ar
   173   139   141   ar
