@<TRIPOS>MOLECULE
tmp/4enyA00.pdb
 191 181 0 0 0
SMALL
GASTEIGER

@<TRIPOS>ATOM
      1  N        -73.0010  117.3990   -3.7250 N.3     8  LEU8       -0.1231
      2  CA       -72.1140  118.5310   -3.9830 C.3     8  LEU8        0.1693
      3  C        -70.7810  118.1110   -4.5990 C.2     8  LEU8        0.2593
      4  O        -70.1540  118.8860   -5.3260 O.2     8  LEU8       -0.2718
      5  CB       -71.8650  119.3250   -2.6980 C.3     8  LEU8        0.0284
      6  CG       -73.0780  120.0490   -2.1120 C.3     8  LEU8        0.0019
      7  CD1      -72.7210  120.7200   -0.7960 C.3     8  LEU8        0.0001
      8  CD2      -73.6160  121.0680   -3.1010 C.3     8  LEU8        0.0001
      9  N        -70.3440  116.8900   -4.3030 N.am    9  GLY9       -0.1942
     10  CA       -69.0810  116.3960   -4.8230 C.3     9  GLY9        0.2014
     11  C        -68.8040  114.9480   -4.4640 C.2     9  GLY9        0.2640
     12  O        -69.3450  114.4270   -3.4820 O.2     9  GLY9       -0.2714
     13  N        -67.9540  114.3000   -5.2590 N.am   10  SER10      -0.1935
     14  CA       -67.6420  112.8880   -5.0590 C.3    10  SER10       0.2055
     15  C        -66.1680  112.5880   -5.3240 C.2    10  SER10       0.2643
     16  O        -65.5730  113.1430   -6.2460 O.2    10  SER10      -0.2714
     17  CB       -68.5230  112.0160   -5.9600 C.3    10  SER10       0.2130
     18  OG       -68.0440  110.6840   -6.0150 O.3    10  SER10      -0.2179
     19  N        -65.5910  111.7030   -4.5140 N.am   11  GLY11      -0.1954
     20  CA       -64.2040  111.2960   -4.6750 C.3    11  GLY11       0.1869
     21  C        -63.9400  109.8710   -4.2150 C.2    11  GLY11       0.2309
     22  O        -64.7730  108.9780   -4.3860 O.2    11  GLY11      -0.2863
     23  N        -62.1790  111.1180   -1.9780 N.3    12  PHE12      -0.1227
     24  CA       -62.2160  111.2910   -0.5280 C.3    12  PHE12       0.1736
     25  C        -63.6160  111.1140    0.0580 C.2    12  PHE12       0.2596
     26  O        -63.8830  111.5570    1.1780 O.2    12  PHE12      -0.2718
     27  CB       -61.6630  112.6640   -0.1300 C.3    12  PHE12       0.0547
     28  CG       -60.1600  112.7430   -0.1460 C.ar   12  PHE12      -0.0202
     29  CD1      -59.4240  112.3970    0.9780 C.ar   12  PHE12      -0.0042
     30  CD2      -59.4820  113.1670   -1.2860 C.ar   12  PHE12      -0.0042
     31  CE1      -58.0400  112.4670    0.9650 C.ar   12  PHE12      -0.0003
     32  CE2      -58.0960  113.2410   -1.3050 C.ar   12  PHE12      -0.0003
     33  CZ       -57.3740  112.8910   -0.1790 C.ar   12  PHE12      -0.0000
     34  N        -64.5040  110.4700   -0.6970 N.am   13  GLY13      -0.1942
     35  CA       -65.8720  110.2460   -0.2510 C.3    13  GLY13       0.2014
     36  C        -66.9000  111.0100   -1.0710 C.2    13  GLY13       0.2640
     37  O        -66.6040  111.4770   -2.1710 O.2    13  GLY13      -0.2714
     38  N        -68.1120  111.1380   -0.5400 N.am   14  SER14      -0.1935
     39  CA       -69.1770  111.8650   -1.2270 C.3    14  SER14       0.2055
     40  C        -69.7890  112.9090   -0.2970 C.2    14  SER14       0.2642
     41  O        -69.9750  112.6470    0.8930 O.2    14  SER14      -0.2714
     42  CB       -70.2520  110.8950   -1.7290 C.3    14  SER14       0.2130
     43  OG       -69.6820  109.8540   -2.5070 O.3    14  SER14      -0.2179
     44  N        -70.0930  114.0910   -0.8300 N.am   15  VAL15      -0.1977
     45  CA       -70.6430  115.1620    0.0010 C.3    15  VAL15       0.1596
     46  C        -71.9350  115.7710   -0.5660 C.2    15  VAL15       0.2287
     47  O        -71.9980  116.1530   -1.7350 O.2    15  VAL15      -0.2864
     48  CB       -69.5890  116.2660    0.3000 C.3    15  VAL15       0.0276
     49  CG1      -69.0500  116.8790   -0.9930 C.3    15  VAL15       0.0022
     50  CG2      -70.1770  117.3380    1.2140 C.3    15  VAL15       0.0022
     51  N        -73.3530  120.7120    5.2810 N.3    28  ALA28      -0.1245
     52  CA       -72.8640  119.7810    4.2690 C.3    28  ALA28       0.1562
     53  C        -72.7260  118.4120    4.9060 C.2    28  ALA28       0.2260
     54  O        -72.2150  118.2870    6.0210 O.2    28  ALA28      -0.2867
     55  CB       -71.5400  120.2400    3.6920 C.3    28  ALA28       0.0290
     56  N        -71.0260  114.8780    4.6480 N.3    30  LYS30      -0.1245
     57  CA       -69.9210  114.1250    4.0540 C.3    30  LYS30       0.1561
     58  C        -69.9720  112.6550    4.4560 C.2    30  LYS30       0.2260
     59  O        -70.1510  112.3300    5.6320 O.2    30  LYS30      -0.2867
     60  CB       -68.5840  114.7300    4.4870 C.3    30  LYS30       0.0271
     61  CG       -67.3470  113.9790    4.0110 C.3    30  LYS30       0.0035
     62  CD       -66.1090  114.8670    4.1380 C.3    30  LYS30       0.0206
     63  CE       -64.8760  114.2160    3.5270 C.3    30  LYS30       0.1093
     64  NZ       -63.7170  115.1590    3.4760 N.3    30  LYS30      -0.1314
     65  N        -59.4900  112.4190   10.4320 N.3    46  GLU46      -0.1245
     66  CA       -60.1670  113.5930    9.8920 C.3    46  GLU46       0.1567
     67  C        -61.0740  114.2450   10.9430 C.2    46  GLU46       0.2260
     68  O        -61.1230  115.4730   11.0520 O.2    46  GLU46      -0.2867
     69  CB       -60.9590  113.2170    8.6370 C.3    46  GLU46       0.0388
     70  CG       -61.5490  114.3960    7.8730 C.3    46  GLU46       0.1160
     71  CD       -62.3110  113.9670    6.6240 C.2    46  GLU46       0.3649
     72  OE1      -62.2300  112.7760    6.2360 O.co2  46  GLU46      -0.2457
     73  OE2      -62.9940  114.8270    6.0290 O.co2  46  GLU46      -0.2457
     74  N        -60.3640  117.9480   12.6480 N.3    50  LEU50      -0.1245
     75  CA       -61.4360  118.9380   12.5510 C.3    50  LEU50       0.1561
     76  C        -61.8230  119.4970   13.9210 C.2    50  LEU50       0.2260
     77  O        -62.1230  120.6860   14.0560 O.2    50  LEU50      -0.2867
     78  CB       -62.6630  118.3580   11.8340 C.3    50  LEU50       0.0270
     79  CG       -62.6090  118.2630   10.3050 C.3    50  LEU50       0.0019
     80  CD1      -63.8180  117.5240    9.7710 C.3    50  LEU50       0.0001
     81  CD2      -62.5210  119.6420    9.6780 C.3    50  LEU50       0.0001
     82  N        -63.1120  125.1840    7.8650 N.3    60  ILE60      -0.1245
     83  CA       -64.4520  124.5930    7.8960 C.3    60  ILE60       0.1561
     84  C        -64.7860  124.0530    9.2890 C.2    60  ILE60       0.2260
     85  O        -63.9320  123.4850    9.9720 O.2    60  ILE60      -0.2867
     86  CB       -64.6350  123.4860    6.8200 C.3    60  ILE60       0.0252
     87  CG1      -66.1110  123.3340    6.4470 C.3    60  ILE60       0.0019
     88  CG2      -64.0470  122.1560    7.2720 C.3    60  ILE60       0.0019
     89  CD1      -66.6670  124.5130    5.6650 C.3    60  ILE60       0.0001
     90  N        -70.8760  119.2910    8.3250 N.3    76  LEU76      -0.1231
     91  CA       -70.0090  120.4560    8.2290 C.3    76  LEU76       0.1693
     92  C        -70.8430  121.6870    7.9100 C.2    76  LEU76       0.2592
     93  O        -71.9280  121.5650    7.3360 O.2    76  LEU76      -0.2718
     94  CB       -68.9640  120.2300    7.1340 C.3    76  LEU76       0.0284
     95  CG       -68.1370  118.9510    7.2820 C.3    76  LEU76       0.0019
     96  CD1      -67.7040  118.4340    5.9280 C.3    76  LEU76       0.0001
     97  CD2      -66.9280  119.1990    8.1660 C.3    76  LEU76       0.0001
     98  N        -70.3480  122.8670    8.2830 N.am   77  GLU77      -0.1966
     99  CA       -71.0350  124.1090    7.9330 C.3    77  GLU77       0.1733
    100  C        -71.0660  124.2790    6.4140 C.2    77  GLU77       0.2616
    101  O        -70.1920  123.7670    5.7060 O.2    77  GLU77      -0.2715
    102  CB       -70.3690  125.3230    8.5930 C.3    77  GLU77       0.0429
    103  CG       -68.9580  125.6310    8.0900 C.3    77  GLU77       0.1163
    104  CD       -68.4410  126.9990    8.5350 C.2    77  GLU77       0.3649
    105  OE1      -67.2910  127.0710    9.0240 O.co2  77  GLU77      -0.2457
    106  OE2      -69.1740  128.0030    8.3780 O.co2  77  GLU77      -0.2457
    107  N        -72.0840  124.9750    5.9150 N.am   78  ARG78      -0.1964
    108  CA       -72.1840  125.2810    4.4920 C.3    78  ARG78       0.1714
    109  C        -72.5710  126.7410    4.2910 C.2    78  ARG78       0.2458
    110  O        -73.6750  127.1490    4.6530 O.2    78  ARG78      -0.2730
    111  CB       -73.1990  124.3630    3.8040 C.3    78  ARG78       0.0347
    112  CG       -73.2890  124.5610    2.2930 C.3    78  ARG78       0.0492
    113  CD       -74.1980  123.5290    1.6300 C.3    78  ARG78       0.2205
    114  NE       -75.5470  123.5240    2.1920 N.pl3  78  ARG78      -0.0865
    115  CZ       -76.5140  124.3560    1.8210 C.cat  78  ARG78       0.5346
    116  NH1      -76.2820  125.2710    0.8870 N.pl3  78  ARG78       0.1354
    117  NH2      -77.7130  124.2750    2.3850 N.pl3  78  ARG78       0.1354
    118  N        -71.6490  127.5420    3.7340 N.am   79  PRO79      -0.2727
    119  CA       -71.9500  128.9390    3.3990 C.3    79  PRO79       0.1402
    120  C        -72.9080  129.0330    2.2140 C.2    79  PRO79       0.2269
    121  O        -72.8870  128.1760    1.3260 O.2    79  PRO79      -0.2865
    122  CB       -70.5820  129.5160    3.0100 C.3    79  PRO79       0.0296
    123  CG       -69.5730  128.5740    3.6060 C.3    79  PRO79       0.0237
    124  CD       -70.2200  127.2240    3.5620 C.3    79  PRO79       0.0939
    125  N        -72.0290  129.9760   -2.0120 N.3    82  VAL82      -0.1245
    126  CA       -70.6310  129.5600   -1.9520 C.3    82  VAL82       0.1561
    127  C        -70.1660  129.0460   -3.3200 C.2    82  VAL82       0.2260
    128  O        -70.9710  128.5760   -4.1250 O.2    82  VAL82      -0.2867
    129  CB       -70.4070  128.4730   -0.8540 C.3    82  VAL82       0.0252
    130  CG1      -70.7450  127.0900   -1.3790 C.3    82  VAL82       0.0019
    131  CG2      -68.9780  128.5020   -0.3420 C.3    82  VAL82       0.0019
    132  N        -66.3200  127.0880   -4.8690 N.3    84  ASP84      -0.1239
    133  CA       -64.9340  126.7440   -4.5470 C.3    84  ASP84       0.1674
    134  C        -63.9540  127.4370   -5.4970 C.2    84  ASP84       0.2266
    135  O        -64.3120  127.7870   -6.6310 O.2    84  ASP84      -0.2867
    136  CB       -64.6960  125.2250   -4.4330 C.3    84  ASP84       0.1410
    137  CG       -64.7190  124.5030   -5.7750 C.2    84  ASP84       0.3668
    138  OD1      -65.4900  123.5280   -5.9010 O.co2  84  ASP84      -0.2456
    139  OD2      -63.9430  124.8620   -6.6850 O.co2  84  ASP84      -0.2456
    140  N        -59.3290  123.3910   -5.0810 N.3   127  GLU127     -0.1231
    141  CA       -60.5260  122.5800   -4.8620 C.3   127  GLU127      0.1699
    142  C        -60.9340  122.5160   -3.3890 C.2   127  GLU127      0.2592
    143  O        -62.1190  122.3660   -3.0670 O.2   127  GLU127     -0.2718
    144  CB       -60.3250  121.1640   -5.4040 C.3   127  GLU127      0.0402
    145  CG       -60.0930  121.0910   -6.9020 C.3   127  GLU127      0.1161
    146  CD       -59.9440  119.6650   -7.3990 C.2   127  GLU127      0.3649
    147  OE1      -60.7720  118.8090   -7.0170 O.co2 127  GLU127     -0.2457
    148  OE2      -58.9930  119.4030   -8.1680 O.co2 127  GLU127     -0.2457
    149  N        -59.9460  122.6250   -2.5030 N.am  128  ASN128     -0.1974
    150  CA       -60.1910  122.5640   -1.0660 C.3   128  ASN128      0.1688
    151  C        -60.3100  123.9350   -0.4050 C.2   128  ASN128      0.2292
    152  O        -60.0610  124.0830    0.7910 O.2   128  ASN128     -0.2864
    153  CB       -59.1120  121.7380   -0.3700 C.3   128  ASN128      0.1181
    154  CG       -59.1960  120.2700   -0.7140 C.2   128  ASN128      0.2629
    155  OD1      -60.2880  119.7230   -0.8730 O.2   128  ASN128     -0.2716
    156  ND2      -58.0410  119.6200   -0.8400 N.am  128  ASN128     -0.0877
    157  N        -63.2060  127.0380   -0.1350 N.3   130  LEU130     -0.1245
    158  CA       -64.5410  127.5520   -0.4160 C.3   130  LEU130      0.1561
    159  C        -64.5660  129.0730   -0.2840 C.2   130  LEU130      0.2260
    160  O        -63.8360  129.6460    0.5290 O.2   130  LEU130     -0.2867
    161  CB       -65.5690  126.9300    0.5350 C.3   130  LEU130      0.0270
    162  CG       -65.8600  125.4370    0.4010 C.3   130  LEU130      0.0019
    163  CD1      -66.9420  125.0330    1.3770 C.3   130  LEU130      0.0001
    164  CD2      -66.2790  125.1030   -1.0180 C.3   130  LEU130      0.0001
    165  N        -61.1290  123.3470    3.3920 N.3   141  ILE141     -0.1231
    166  CA       -61.9430  122.1420    3.6030 C.3   141  ILE141      0.1692
    167  C        -61.1870  120.8370    3.3250 C.2   141  ILE141      0.2592
    168  O        -60.0340  120.8560    2.8880 O.2   141  ILE141     -0.2718
    169  CB       -63.2250  122.1570    2.7460 C.3   141  ILE141      0.0266
    170  CG1      -62.8700  122.1770    1.2590 C.3   141  ILE141      0.0019
    171  CG2      -64.1150  123.3400    3.1110 C.3   141  ILE141      0.0020
    172  CD1      -64.0640  122.0820    0.3450 C.3   141  ILE141      0.0001
    173  N        -61.8570  119.7120    3.5750 N.am  142  ASP142     -0.1960
    174  CA       -61.2980  118.3740    3.3410 C.3   142  ASP142      0.1840
    175  C        -59.9720  118.1150    4.0690 C.2   142  ASP142      0.2622
    176  O        -58.8900  118.2220    3.4870 O.2   142  ASP142     -0.2715
    177  CB       -61.1600  118.0890    1.8400 C.3   142  ASP142      0.1450
    178  CG       -60.8070  116.6420    1.5490 C.2   142  ASP142      0.3671
    179  OD1      -61.0680  115.7770    2.4150 O.co2 142  ASP142     -0.2456
    180  OD2      -60.2710  116.3730    0.4480 O.co2 142  ASP142     -0.2456
    181  N        -60.0740  117.7620    5.3450 N.am  143  PHE143     -0.1974
    182  CA       -58.9050  117.4240    6.1440 C.3   143  PHE143      0.1639
    183  C        -58.6270  115.9170    6.0930 C.2   143  PHE143      0.2290
    184  O        -57.9630  115.3690    6.9740 O.2   143  PHE143     -0.2864
    185  CB       -59.0990  117.9000    7.5920 C.3   143  PHE143      0.0560
    186  CG       -58.9500  119.3940    7.7690 C.ar  143  PHE143     -0.0200
    187  CD1      -57.7890  119.9290    8.3150 C.ar  143  PHE143     -0.0042
    188  CD2      -59.9610  120.2630    7.3800 C.ar  143  PHE143     -0.0042
    189  CE1      -57.6410  121.3040    8.4760 C.ar  143  PHE143     -0.0003
    190  CE2      -59.8180  121.6330    7.5350 C.ar  143  PHE143     -0.0003
    191  CZ       -58.6540  122.1530    8.0820 C.ar  143  PHE143     -0.0000
@<TRIPOS>BOND
     1   148   146   ar
     2   146   147   ar
     3   146   145    1
     4   145   144    1
     5   139   137   ar
     6   135   134    2
     7    16    15    2
     8    18    17    1
     9    17    14    1
    10   138   137   ar
    11   137   136    1
    12   134   133    1
    13   144   141    1
    14     4     3    2
    15    15    14    1
    16    15    19   am
    17    13    14    1
    18    13    11   am
    19   140   141    1
    20   132   133    1
    21   141   142    1
    22    10    11    1
    23    10     9    1
    24    20    19    1
    25    20    21    1
    26     3     9   am
    27     3     2    1
    28   133   136    1
    29    11    12    2
    30    22    21    2
    31   128   127    2
    32     2     1    1
    33     2     5    1
    34   142   143    2
    35   142   149   am
    36   127   126    1
    37     8     6    1
    38     5     6    1
    39    43    42    1
    40   149   150    1
    41    37    36    2
    42     6     7    1
    43   125   126    1
    44    23    24    1
    45   126   129    1
    46    47    46    2
    47    42    39    1
    48   130   129    1
    49    32    30   ar
    50    32    33   ar
    51    30    28   ar
    52    39    38    1
    53    39    40    1
    54    36    38   am
    55    36    35    1
    56   150   151    1
    57   150   153    1
    58   164   162    1
    59    49    48    1
    60   155   154    2
    61   129   131    1
    62   156   154   am
    63    44    40   am
    64    44    45    1
    65   154   153    1
    66    34    35    1
    67    34    25   am
    68    46    45    1
    69    24    27    1
    70    24    25    1
    71   158   159    1
    72   158   157    1
    73   158   161    1
    74   151   152    2
    75    40    41    2
    76   159   160    2
    77    33    31   ar
    78    28    27    1
    79    28    29   ar
    80    45    48    1
    81    25    26    2
    82    48    50    1
    83   172   170    1
    84   162   161    1
    85   162   163    1
    86   180   178   ar
    87   116   115    1
    88    31    29   ar
    89   170   169    1
    90   121   120    2
    91   178   177    1
    92   178   179   ar
    93   113   114    1
    94   113   112    1
    95   115   114    2
    96   115   117    1
    97   177   174    1
    98   120   119    1
    99   112   111    1
   100   169   171    1
   101   169   166    1
   102   168   167    2
   103   122   119    1
   104   122   123    1
   105   167   173   am
   106   167   166    1
   107   174   173    1
   108   174   175    1
   109   165   166    1
   110   119   118    1
   111    64    63    1
   112   176   175    2
   113    63    62    1
   114   124   123    1
   115   124   118    1
   116    55    52    1
   117   118   109   am
   118   111   108    1
   119    61    62    1
   120    61    60    1
   121    57    58    1
   122    57    60    1
   123    57    56    1
   124   175   181   am
   125    52    53    1
   126    52    51    1
   127   109   108    1
   128   109   110    2
   129    58    59    2
   130   108   107    1
   131    53    54    2
   132   181   182    1
   133    89    87    1
   134   101   100    2
   135   107   100   am
   136    96    95    1
   137    73    71   ar
   138   183   182    1
   139   183   184    2
   140   182   185    1
   141    72    71   ar
   142   100    99    1
   143    87    86    1
   144    71    70    1
   145    86    88    1
   146    86    83    1
   147    94    95    1
   148    94    91    1
   149    95    97    1
   150    93    92    2
   151   188   190   ar
   152   188   186   ar
   153   190   191   ar
   154   185   186    1
   155   186   187   ar
   156    82    83    1
   157    70    69    1
   158    83    84    1
   159    92    91    1
   160    92    98   am
   161    99    98    1
   162    99   102    1
   163   191   189   ar
   164   103   104    1
   165   103   102    1
   166    91    90    1
   167   187   189   ar
   168   106   104   ar
   169   104   105   ar
   170    69    66    1
   171    84    85    2
   172    81    79    1
   173    80    79    1
   174    66    65    1
   175    66    67    1
   176    79    78    1
   177    67    68    2
   178    78    75    1
   179    75    74    1
   180    75    76    1
   181    76    77    2
