@<TRIPOS>MOLECULE
tmp/4eo3A02.pdb
 87 86 0 0 0
SMALL
GASTEIGER

@<TRIPOS>ATOM
      1  N        -11.4960   -9.1340    3.9750 N.3   175  LEU175     -0.1231
      2  CA       -12.1170   -8.9240    2.6600 C.3   175  LEU175      0.1693
      3  C        -12.4720   -7.4590    2.3720 C.2   175  LEU175      0.2592
      4  O        -13.0230   -7.1480    1.3160 O.2   175  LEU175     -0.2718
      5  CB       -13.3720   -9.7910    2.5030 C.3   175  LEU175      0.0284
      6  CG       -13.0940  -11.2930    2.6030 C.3   175  LEU175      0.0019
      7  CD1      -14.3500  -12.1110    2.3310 C.3   175  LEU175      0.0001
      8  CD2      -11.9970  -11.7070    1.6420 C.3   175  LEU175      0.0001
      9  N        -12.1870   -6.5610    3.3140 N.am  176  ALA176     -0.1966
     10  CA       -12.3140   -5.1340    3.0350 C.3   176  ALA176      0.1713
     11  C        -11.4160   -4.7390    1.8610 C.2   176  ALA176      0.2458
     12  O        -10.3710   -5.3600    1.6410 O.2   176  ALA176     -0.2730
     13  CB       -11.9380   -4.3170    4.2740 C.3   176  ALA176      0.0333
     14  N        -11.8120   -3.6990    1.1160 N.am  177  PRO177     -0.2716
     15  CA       -10.9050   -3.1320    0.1100 C.3   177  PRO177      0.1536
     16  C         -9.8420   -2.2670    0.7930 C.2   177  PRO177      0.2599
     17  O         -9.9740   -1.9260    1.9720 O.2   177  PRO177     -0.2715
     18  CB       -11.8360   -2.2930   -0.7680 C.3   177  PRO177      0.0310
     19  CG       -12.9170   -1.8180    0.2000 C.3   177  PRO177      0.0237
     20  CD       -13.0980   -2.9730    1.1920 C.3   177  PRO177      0.0939
     21  N         -8.7830   -1.9330    0.0660 N.am  178  SER178     -0.1936
     22  CA        -7.7840   -0.9940    0.5880 C.3   178  SER178      0.2055
     23  C         -7.0380   -0.3500   -0.5610 C.2   178  SER178      0.2643
     24  O         -6.9770   -0.9030   -1.6650 O.2   178  SER178     -0.2714
     25  CB        -6.8060   -1.6840    1.5370 C.3   178  SER178      0.2130
     26  OG        -6.2150   -2.8030    0.9070 O.3   178  SER178     -0.2179
     27  N         -6.4930    0.8310   -0.2940 N.am  179  CYS179     -0.1953
     28  CA        -5.7130    1.5610   -1.2870 C.3   179  CYS179      0.1843
     29  C         -4.5840    0.6630   -1.8110 C.2   179  CYS179      0.2625
     30  O         -3.8190    0.1050   -1.0340 O.2   179  CYS179     -0.2714
     31  CB        -5.1540    2.8310   -0.6440 C.3   179  CYS179      0.0997
     32  SG        -4.2370    3.8660   -1.8050 S.3   179  CYS179     -0.0797
     33  N         -4.5140    0.4950   -3.1320 N.am  180  MET180     -0.1963
     34  CA        -3.5230   -0.3730   -3.7680 C.3   180  MET180      0.1736
     35  C         -3.5220   -1.8150   -3.2240 C.2   180  MET180      0.2616
     36  O         -2.5130   -2.5110   -3.2990 O.2   180  MET180     -0.2715
     37  CB        -2.1220    0.2420   -3.6620 C.3   180  MET180      0.0427
     38  CG        -1.9980    1.5720   -4.4010 C.3   180  MET180      0.0599
     39  SD        -2.1730    1.3420   -6.1910 S.3   180  MET180     -0.1393
     40  CE        -0.6860    0.4170   -6.5570 C.3   180  MET180      0.0692
     41  N         -4.6580   -2.2530   -2.6860 N.am  181  ASN181     -0.1972
     42  CA        -4.7530   -3.5670   -2.0420 C.3   181  ASN181      0.1688
     43  C         -3.6420   -3.7950   -1.0060 C.2   181  ASN181      0.2292
     44  O         -3.1600   -4.9150   -0.8340 O.2   181  ASN181     -0.2864
     45  CB        -4.7410   -4.7010   -3.0860 C.3   181  ASN181      0.1181
     46  CG        -5.3650   -5.9900   -2.5610 C.2   181  ASN181      0.2629
     47  OD1       -6.1950   -5.9680   -1.6460 O.2   181  ASN181     -0.2716
     48  ND2       -4.9680   -7.1250   -3.1400 N.am  181  ASN181     -0.0877
     49  N         -3.8150    6.6330    4.5500 N.3   235  TYR235     -0.1241
     50  CA        -4.8750    5.6320    4.3810 C.3   235  TYR235      0.1605
     51  C         -4.9130    4.5110    5.4080 C.2   235  TYR235      0.2264
     52  O         -5.9420    3.8440    5.5350 O.2   235  TYR235     -0.2867
     53  CB        -4.8880    5.0740    2.9420 C.3   235  TYR235      0.0534
     54  CG        -5.5350    6.0800    2.0370 C.ar  235  TYR235     -0.0201
     55  CD1       -6.9010    6.0510    1.8120 C.ar  235  TYR235     -0.0009
     56  CD2       -4.7880    7.1130    1.4690 C.ar  235  TYR235     -0.0009
     57  CE1       -7.5080    7.0030    1.0180 C.ar  235  TYR235      0.0417
     58  CE2       -5.3820    8.0640    0.6760 C.ar  235  TYR235      0.0417
     59  CZ        -6.7390    8.0110    0.4610 C.ar  235  TYR235      0.1957
     60  OH        -7.3320    8.9680   -0.3230 O.3   235  TYR235     -0.2866
     61  N         -7.9200    4.6720    7.9840 N.3   238  PHE238     -0.1227
     62  CA        -9.1600    4.6130    7.2230 C.3   238  PHE238      0.1736
     63  C         -9.4230    3.1910    6.7110 C.2   238  PHE238      0.2595
     64  O        -10.5170    2.6360    6.9140 O.2   238  PHE238     -0.2718
     65  CB        -9.1150    5.5840    6.0420 C.3   238  PHE238      0.0547
     66  CG       -10.3240    5.5010    5.1560 C.ar  238  PHE238     -0.0202
     67  CD1      -11.5330    6.0480    5.5600 C.ar  238  PHE238     -0.0042
     68  CD2      -10.2490    4.8680    3.9240 C.ar  238  PHE238     -0.0042
     69  CE1      -12.6550    5.9690    4.7580 C.ar  238  PHE238     -0.0003
     70  CE2      -11.3700    4.7820    3.1090 C.ar  238  PHE238     -0.0003
     71  CZ       -12.5720    5.3440    3.5230 C.ar  238  PHE238     -0.0000
     72  N         -8.4190    2.6040    6.0620 N.am  239  ASP239     -0.1974
     73  CA        -8.5470    1.2500    5.5150 C.3   239  ASP239      0.1709
     74  C         -8.7480    0.1990    6.6270 C.2   239  ASP239      0.2293
     75  O         -9.5110   -0.7610    6.4730 O.2   239  ASP239     -0.2864
     76  CB        -7.3280    0.9000    4.6450 C.3   239  ASP239      0.1436
     77  CG        -7.3940    1.5420    3.2480 C.2   239  ASP239      0.3671
     78  OD1       -8.4960    1.9530    2.8350 O.co2 239  ASP239     -0.2456
     79  OD2       -6.3510    1.6290    2.5620 O.co2 239  ASP239     -0.2456
     80  N        -12.2850    0.2980    7.4220 N.3   242  LEU242     -0.1245
     81  CA       -13.0730   -0.5150    6.4910 C.3   242  LEU242      0.1561
     82  C        -13.1130   -1.9730    6.9600 C.2   242  LEU242      0.2260
     83  O        -14.1800   -2.6090    6.9690 O.2   242  LEU242     -0.2867
     84  CB       -12.4880   -0.4460    5.0770 C.3   242  LEU242      0.0270
     85  CG       -12.4600    0.9260    4.4000 C.3   242  LEU242      0.0019
     86  CD1      -11.8010    0.7830    3.0400 C.3   242  LEU242      0.0001
     87  CD2      -13.8630    1.5250    4.2780 C.3   242  LEU242      0.0001
@<TRIPOS>BOND
     1    40    39    1
     2    39    38    1
     3    38    37    1
     4    34    37    1
     5    34    35    1
     6    34    33    1
     7    36    35    2
     8    35    41   am
     9    48    46   am
    10    33    29   am
    11    45    46    1
    12    45    42    1
    13    41    42    1
    14    46    47    2
    15    42    43    1
    16    29    28    1
    17    29    30    2
    18    32    31    1
    19    24    23    2
    20    28    31    1
    21    28    27    1
    22    43    44    2
    23    18    15    1
    24    18    19    1
    25    23    27   am
    26    23    22    1
    27    60    59    1
    28    21    22    1
    29    21    16   am
    30    15    16    1
    31    15    14    1
    32    19    20    1
    33    59    58   ar
    34    59    57   ar
    35    22    25    1
    36    58    56   ar
    37    16    17    2
    38    26    25    1
    39    57    55   ar
    40    14    20    1
    41    14    11   am
    42     4     3    2
    43    56    54   ar
    44    12    11    2
    45     8     6    1
    46    55    54   ar
    47    11    10    1
    48    54    53    1
    49     7     6    1
    50     3     2    1
    51     3     9   am
    52     5     6    1
    53     5     2    1
    54    79    77   ar
    55     2     1    1
    56    78    77   ar
    57    53    50    1
    58    10     9    1
    59    10    13    1
    60    86    85    1
    61    70    71   ar
    62    70    68   ar
    63    77    76    1
    64    71    69   ar
    65    68    66   ar
    66    87    85    1
    67    50    49    1
    68    50    51    1
    69    85    84    1
    70    76    73    1
    71    69    67   ar
    72    84    81    1
    73    66    67   ar
    74    66    65    1
    75    51    52    2
    76    73    72    1
    77    73    74    1
    78    65    62    1
    79    72    63   am
    80    75    74    2
    81    81    82    1
    82    81    80    1
    83    63    64    2
    84    63    62    1
    85    82    83    2
    86    62    61    1
