@<TRIPOS>MOLECULE
tmp/4eo3A00.pdb
 151 148 0 0 0
SMALL
GASTEIGER

@<TRIPOS>ATOM
      1  N        -26.6930   -3.8710   14.7740 N.3   150  ARG150     -0.1231
      2  CA       -25.4170   -3.6770   15.4700 C.3   150  ARG150      0.1694
      3  C        -25.4800   -2.4760   16.4010 C.2   150  ARG150      0.2592
      4  O        -25.7900   -1.3630   15.9670 O.2   150  ARG150     -0.2718
      5  CB       -24.2530   -3.4800   14.5000 C.3   150  ARG150      0.0321
      6  CG       -22.9120   -3.3830   15.2400 C.3   150  ARG150      0.0489
      7  CD       -21.9840   -2.2780   14.7180 C.3   150  ARG150      0.2205
      8  NE       -22.5990   -0.9530   14.7360 N.pl3 150  ARG150     -0.0865
      9  CZ       -22.6450   -0.1360   15.7920 C.cat 150  ARG150      0.5346
     10  NH1      -22.1300   -0.4930   16.9680 N.pl3 150  ARG150      0.1354
     11  NH2      -23.2370    1.0440   15.6740 N.pl3 150  ARG150      0.1354
     12  N        -25.1980   -2.7200   17.6760 N.am  151  ARG151     -0.1966
     13  CA       -25.1420   -1.6580   18.6810 C.3   151  ARG151      0.1729
     14  C        -23.9180   -1.8460   19.5620 C.2   151  ARG151      0.2616
     15  O        -23.3430   -2.9340   19.6210 O.2   151  ARG151     -0.2715
     16  CB       -26.3980   -1.6760   19.5600 C.3   151  ARG151      0.0348
     17  CG       -27.6810   -1.2980   18.8290 C.3   151  ARG151      0.0492
     18  CD       -27.6700    0.1570   18.3730 C.3   151  ARG151      0.2205
     19  NE       -27.5320    1.0830   19.4980 N.pl3 151  ARG151     -0.0865
     20  CZ       -28.5290    1.4450   20.3010 C.cat 151  ARG151      0.5346
     21  NH1      -29.7470    0.9580   20.1110 N.pl3 151  ARG151      0.1354
     22  NH2      -28.3100    2.2890   21.3040 N.pl3 151  ARG151      0.1354
     23  N        -23.5130   -0.7830   20.2570 N.am  152  ALA152     -0.1977
     24  CA       -22.3860   -0.8840   21.1810 C.3   152  ALA152      0.1597
     25  C        -22.8230   -1.5190   22.4980 C.2   152  ALA152      0.2287
     26  O        -22.8430   -0.8630   23.5470 O.2   152  ALA152     -0.2864
     27  CB       -21.7410    0.4930   21.4080 C.3   152  ALA152      0.0319
     28  N        -22.8190   -3.7810   25.8610 N.3   154  ARG154     -0.1245
     29  CA       -21.8070   -3.9220   26.8910 C.3   154  ARG154      0.1563
     30  C        -21.9910   -5.1210   27.8190 C.2   154  ARG154      0.2260
     31  O        -21.0590   -5.4820   28.5370 O.2   154  ARG154     -0.2867
     32  CB       -21.7180   -2.6200   27.7030 C.3   154  ARG154      0.0307
     33  CG       -21.1950   -1.4960   26.8630 C.3   154  ARG154      0.0489
     34  CD       -21.1340   -0.1640   27.6080 C.3   154  ARG154      0.2205
     35  NE       -20.6250    0.8780   26.7260 N.pl3 154  ARG154     -0.0865
     36  CZ       -21.3990    1.6480   25.9660 C.cat 154  ARG154      0.5346
     37  NH1      -22.7150    1.4900   25.9880 N.pl3 154  ARG154      0.1354
     38  NH2      -20.8590    2.5580   25.1700 N.pl3 154  ARG154      0.1354
     39  N        -14.0910    2.7320   33.8760 N.3   206  GLY206     -0.1210
     40  CA       -15.3570    2.8570   33.1800 C.3   206  GLY206      0.1956
     41  C        -15.5790    1.7730   32.1380 C.2   206  GLY206      0.2611
     42  O        -16.6880    1.6190   31.6360 O.2   206  GLY206     -0.2717
     43  N        -14.5220    1.0360   31.8140 N.am  207  ASN207     -0.1974
     44  CA       -14.6250   -0.0940   30.8710 C.3   207  ASN207      0.1688
     45  C        -14.6560   -1.4510   31.5960 C.2   207  ASN207      0.2292
     46  O        -14.3150   -2.4960   31.0280 O.2   207  ASN207     -0.2864
     47  CB       -13.5410   -0.0190   29.7690 C.3   207  ASN207      0.1181
     48  CG       -13.9150    0.9410   28.6290 C.2   207  ASN207      0.2629
     49  OD1      -15.0810    1.3060   28.4680 O.2   207  ASN207     -0.2716
     50  ND2      -12.9230    1.3390   27.8230 N.am  207  ASN207     -0.0877
     51  N        -16.9110   -3.3690   32.0420 N.3   209  TRP209     -0.1241
     52  CA       -17.7550   -4.3380   31.3350 C.3   209  TRP209      0.1605
     53  C        -16.9360   -5.2380   30.3890 C.2   209  TRP209      0.2264
     54  O        -17.3000   -6.3930   30.1300 O.2   209  TRP209     -0.2867
     55  CB       -18.9000   -3.6110   30.5970 C.3   209  TRP209      0.0550
     56  CG       -18.4190   -2.5620   29.6340 C.ar  209  TRP209      0.0003
     57  CD1      -18.2140   -1.2340   29.8930 C.ar  209  TRP209      0.0946
     58  CD2      -18.0640   -2.7640   28.2640 C.ar  209  TRP209      0.0152
     59  NE1      -17.7480   -0.5940   28.7630 N.ar  209  TRP209     -0.2442
     60  CE2      -17.6550   -1.5140   27.7480 C.ar  209  TRP209      0.0810
     61  CE3      -18.0600   -3.8830   27.4170 C.ar  209  TRP209      0.0012
     62  CZ2      -17.2390   -1.3470   26.4250 C.ar  209  TRP209      0.0191
     63  CZ3      -17.6460   -3.7160   26.0960 C.ar  209  TRP209      0.0001
     64  CH2      -17.2500   -2.4570   25.6130 C.ar  209  TRP209      0.0015
     65  N        -17.6110   -5.0080   20.0040 N.3   259  HIS259     -0.1227
     66  CA       -17.6960   -3.6260   20.4470 C.3   259  HIS259      0.1737
     67  C        -16.2910   -3.0220   20.4810 C.2   259  HIS259      0.2438
     68  O        -15.4850   -3.3720   21.3430 O.2   259  HIS259     -0.2733
     69  CB       -18.3530   -3.6120   21.8300 C.3   259  HIS259      0.0758
     70  CG       -18.5670   -2.2460   22.3990 C.ar  259  HIS259      0.0818
     71  ND1      -19.5300   -1.9840   23.3510 N.ar  259  HIS259     -0.2268
     72  CD2      -17.9440   -1.0670   22.1580 C.ar  259  HIS259      0.1154
     73  CE1      -19.4890   -0.7020   23.6750 C.ar  259  HIS259      0.1986
     74  NE2      -18.5340   -0.1250   22.9670 N.ar  259  HIS259     -0.2212
     75  N        -15.9830   -2.1480   19.5140 N.am  260  PRO260     -0.2718
     76  CA       -14.6540   -1.5280   19.4700 C.3   260  PRO260      0.1535
     77  C        -14.5500   -0.3900   20.4760 C.2   260  PRO260      0.2598
     78  O        -15.4610    0.4310   20.5540 O.2   260  PRO260     -0.2715
     79  CB       -14.5760   -0.9850   18.0470 C.3   260  PRO260      0.0310
     80  CG       -16.0040   -0.6950   17.6790 C.3   260  PRO260      0.0237
     81  CD       -16.8510   -1.7010   18.4110 C.3   260  PRO260      0.0939
     82  N        -13.4490   -0.3380   21.2190 N.am  261  VAL261     -0.1964
     83  CA       -13.2510    0.7610   22.1700 C.3   261  VAL261      0.1727
     84  C        -11.9520    1.5270   21.9730 C.2   261  VAL261      0.2616
     85  O        -11.0510    1.0970   21.2490 O.2   261  VAL261     -0.2715
     86  CB       -13.3080    0.2750   23.6370 C.3   261  VAL261      0.0290
     87  CG1      -14.5690   -0.5510   23.8730 C.3   261  VAL261      0.0023
     88  CG2      -12.0540   -0.5110   23.9990 C.3   261  VAL261      0.0023
     89  N        -11.8630    2.6750   22.6440 N.am  262  ALA262     -0.1963
     90  CA       -10.6440    3.4730   22.6480 C.3   262  ALA262      0.1728
     91  C        -10.1460    3.6480   24.0910 C.2   262  ALA262      0.2616
     92  O         -9.0720    4.2140   24.3240 O.2   262  ALA262     -0.2715
     93  CB       -10.9040    4.8350   22.0150 C.3   262  ALA262      0.0334
     94  N        -10.9310    3.1730   25.0490 N.am  263  GLY263     -0.1955
     95  CA       -10.5640    3.2780   26.4570 C.3   263  GLY263      0.1869
     96  C         -9.5920    2.2060   26.9070 C.2   263  GLY263      0.2309
     97  O        -10.0050    1.1400   27.3810 O.2   263  GLY263     -0.2863
     98  N         -5.1890    1.0280   17.3650 N.3   282  ILE282     -0.1231
     99  CA        -6.2940    1.9500   17.1230 C.3   282  ILE282      0.1692
    100  C         -7.5970    1.5290   17.8040 C.2   282  ILE282      0.2592
    101  O         -8.4090    2.3720   18.1660 O.2   282  ILE282     -0.2718
    102  CB        -6.5150    2.2120   15.6080 C.3   282  ILE282      0.0266
    103  CG1       -7.4380    3.4100   15.3770 C.3   282  ILE282      0.0019
    104  CG2       -7.0620    0.9540   14.9120 C.3   282  ILE282      0.0020
    105  CD1       -6.9410    4.7210   15.9980 C.3   282  ILE282      0.0001
    106  N         -7.7920    0.2310   18.0080 N.am  283  THR283     -0.1953
    107  CA        -8.9340   -0.2000   18.8080 C.3   283  THR283      0.1897
    108  C         -8.7070   -1.5480   19.4900 C.2   283  THR283      0.2313
    109  O         -7.8530   -2.3190   19.0750 O.2   283  THR283     -0.2863
    110  CB       -10.2540   -0.1900   17.9700 C.3   283  THR283      0.1794
    111  OG1      -11.3900   -0.3310   18.8380 O.3   283  THR283     -0.2208
    112  CG2      -10.2530   -1.3050   16.9230 C.3   283  THR283      0.0378
    113  N        -25.0810    2.4110   31.7630 N.3   300  HIS300     -0.1241
    114  CA       -24.8710    1.4680   30.6690 C.3   300  HIS300      0.1621
    115  C        -26.1030    0.5860   30.4550 C.2   300  HIS300      0.2264
    116  O        -26.4080    0.1640   29.3330 O.2   300  HIS300     -0.2867
    117  CB       -23.6320    0.6200   30.9460 C.3   300  HIS300      0.0745
    118  CG       -22.3430    1.3380   30.7000 C.ar  300  HIS300      0.0817
    119  ND1      -21.1450    0.9230   31.2350 N.ar  300  HIS300     -0.2268
    120  CD2      -22.0630    2.4310   29.9500 C.ar  300  HIS300      0.1154
    121  CE1      -20.1810    1.7350   30.8350 C.ar  300  HIS300      0.1986
    122  NE2      -20.7120    2.6580   30.0520 N.ar  300  HIS300     -0.2212
    123  N        -31.2920    4.2100   19.1450 N.3   308  ARG308     -0.1231
    124  CA       -30.1200    4.7610   18.4800 C.3   308  ARG308      0.1694
    125  C        -30.0590    6.2840   18.6510 C.2   308  ARG308      0.2592
    126  O        -31.0740    6.9550   18.5150 O.2   308  ARG308     -0.2718
    127  CB       -30.2140    4.3960   16.9960 C.3   308  ARG308      0.0321
    128  CG       -29.0850    4.8850   16.1230 C.3   308  ARG308      0.0489
    129  CD       -27.9370    3.9030   16.1230 C.3   308  ARG308      0.2205
    130  NE       -28.2780    2.6260   15.4920 N.pl3 308  ARG308     -0.0865
    131  CZ       -27.4240    1.6140   15.3920 C.cat 308  ARG308      0.5346
    132  NH1      -26.2000    1.7460   15.8830 N.pl3 308  ARG308      0.1354
    133  NH2      -27.7810    0.4760   14.8030 N.pl3 308  ARG308      0.1354
    134  N        -28.8780    6.8270   18.9480 N.am  309  VAL309     -0.1966
    135  CA       -28.6980    8.2800   19.0360 C.3   309  VAL309      0.1727
    136  C        -27.7620    8.7950   17.9410 C.2   309  VAL309      0.2616
    137  O        -26.5660    8.4900   17.9420 O.2   309  VAL309     -0.2715
    138  CB       -28.1370    8.7030   20.4100 C.3   309  VAL309      0.0290
    139  CG1      -27.7530   10.1840   20.4060 C.3   309  VAL309      0.0023
    140  CG2      -29.1530    8.4220   21.5000 C.3   309  VAL309      0.0023
    141  N        -28.3060    9.5590   17.0000 N.am  310  ARG310     -0.1977
    142  CA       -27.4970   10.1040   15.9120 C.3   310  ARG310      0.1597
    143  C        -27.8940   11.5310   15.5670 C.2   310  ARG310      0.2287
    144  O        -29.0210   11.9500   15.8290 O.2   310  ARG310     -0.2864
    145  CB       -27.6330    9.2470   14.6500 C.3   310  ARG310      0.0334
    146  CG       -26.9900    7.8610   14.7370 C.3   310  ARG310      0.0492
    147  CD       -25.4830    7.9790   14.8310 C.3   310  ARG310      0.2205
    148  NE       -24.8270    6.6760   14.7560 N.pl3 310  ARG310     -0.0865
    149  CZ       -24.7800    5.8120   15.7640 C.cat 310  ARG310      0.5346
    150  NH1      -25.3520    6.1050   16.9290 N.pl3 310  ARG310      0.1354
    151  NH2      -24.1600    4.6430   15.6160 N.pl3 310  ARG310      0.1354
@<TRIPOS>BOND
     1     5     6    1
     2     5     2    1
     3   145   146    1
     4   145   142    1
     5     7     8    1
     6     7     6    1
     7     8     9    2
     8   146   147    1
     9   148   147    1
    10   148   149    2
    11     1     2    1
    12   133   131    1
    13   104   102    1
    14   103   102    1
    15   103   105    1
    16   131   130    2
    17   131   132    1
    18     2     3    1
    19   130   129    1
    20   143   144    2
    21   143   142    1
    22   102    99    1
    23   151   149    1
    24    11     9    1
    25   149   150    1
    26     9    10    1
    27   142   141    1
    28     4     3    2
    29   128   129    1
    30   128   127    1
    31     3    12   am
    32   112   110    1
    33   127   124    1
    34   141   136   am
    35    99    98    1
    36    99   100    1
    37    12    13    1
    38    80    79    1
    39    80    81    1
    40   100   106   am
    41   100   101    2
    42   136   137    2
    43   136   135    1
    44   110   107    1
    45   110   111    1
    46   106   107    1
    47    79    76    1
    48    18    17    1
    49    18    19    1
    50    81    75    1
    51   124   125    1
    52   124   123    1
    53   126   125    2
    54   125   134   am
    55    13    16    1
    56    13    14    1
    57   107   108    1
    58    17    16    1
    59   134   135    1
    60   135   138    1
    61   109   108    2
    62    76    75    1
    63    76    77    1
    64    19    20    2
    65    75    67   am
    66    14    15    2
    67    14    23   am
    68    65    66    1
    69    21    20    1
    70    23    24    1
    71    20    22    1
    72   139   138    1
    73   138   140    1
    74    66    67    1
    75    66    69    1
    76    77    78    2
    77    77    82   am
    78    67    68    2
    79    24    27    1
    80    24    25    1
    81    82    83    1
    82    85    84    2
    83    69    70    1
    84    84    83    1
    85    84    89   am
    86    93    90    1
    87    72    70   ar
    88    72    74   ar
    89    83    86    1
    90    70    71   ar
    91    25    26    2
    92    89    90    1
    93    90    91    1
    94    74    73   ar
    95    71    73   ar
    96    86    87    1
    97    86    88    1
    98    91    92    2
    99    91    94   am
   100    94    95    1
   101    38    36    1
   102    64    63   ar
   103    64    62   ar
   104    28    29    1
   105    36    37    1
   106    36    35    2
   107    63    61   ar
   108    62    60   ar
   109    95    96    1
   110    35    34    1
   111    33    34    1
   112    33    32    1
   113    29    32    1
   114    29    30    1
   115    96    97    2
   116    61    58   ar
   117    60    58   ar
   118    60    59   ar
   119    30    31    2
   120    50    48   am
   121    58    56   ar
   122    49    48    2
   123    48    47    1
   124    59    57   ar
   125   116   115    2
   126    56    57   ar
   127    56    55    1
   128    47    44    1
   129   120   122   ar
   130   120   118   ar
   131   122   121   ar
   132    54    53    2
   133    53    52    1
   134   115   114    1
   135    55    52    1
   136   114   117    1
   137   114   113    1
   138   118   117    1
   139   118   119   ar
   140   121   119   ar
   141    44    45    1
   142    44    43    1
   143    46    45    2
   144    52    51    1
   145    42    41    2
   146    43    41   am
   147    41    40    1
   148    40    39    1
