@<TRIPOS>MOLECULE
tmp/4eo4D01.pdb
 111 102 0 0 0
SMALL
GASTEIGER

@<TRIPOS>ATOM
      1  N         82.3830   17.3710  -43.8820 N.3   307  VAL307     -0.1245
      2  CA        82.8930   17.5560  -45.2360 C.3   307  VAL307      0.1561
      3  C         82.8990   16.2330  -45.9930 C.2   307  VAL307      0.2260
      4  O         82.3420   16.1290  -47.0870 O.2   307  VAL307     -0.2867
      5  CB        84.3110   18.1620  -45.2300 C.3   307  VAL307      0.0252
      6  CG1       84.8730   18.2050  -46.6390 C.3   307  VAL307      0.0019
      7  CG2       84.2830   19.5520  -44.6210 C.3   307  VAL307      0.0019
      8  N         79.8180   19.8830  -49.5350 N.3   355  VAL355     -0.1231
      9  CA        79.5600   20.7030  -48.3510 C.3   355  VAL355      0.1692
     10  C         78.9220   22.0500  -48.7110 C.2   355  VAL355      0.2592
     11  O         78.0460   22.5450  -48.0020 O.2   355  VAL355     -0.2718
     12  CB        80.8560   20.9180  -47.5220 C.3   355  VAL355      0.0266
     13  CG1       81.9910   21.3730  -48.4160 C.3   355  VAL355      0.0020
     14  CG2       80.6200   21.9080  -46.3860 C.3   355  VAL355      0.0020
     15  N         79.3480   22.6200  -49.8340 N.am  356  GLY356     -0.1957
     16  CA        78.8050   23.8810  -50.3100 C.3   356  GLY356      0.1869
     17  C         77.3120   23.8090  -50.5720 C.2   356  GLY356      0.2309
     18  O         76.5670   24.7250  -50.2270 O.2   356  GLY356     -0.2863
     19  N         75.5700   23.6870  -47.2480 N.3   359  ILE359     -0.1231
     20  CA        75.6160   24.9650  -46.5500 C.3   359  ILE359      0.1692
     21  C         74.5450   25.9050  -47.0960 C.2   359  ILE359      0.2591
     22  O         73.8680   26.5970  -46.3350 O.2   359  ILE359     -0.2718
     23  CB        77.0050   25.6250  -46.6530 C.3   359  ILE359      0.0266
     24  CG1       78.0230   24.8510  -45.8150 C.3   359  ILE359      0.0019
     25  CG2       76.9460   27.0700  -46.1860 C.3   359  ILE359      0.0020
     26  CD1       79.4060   25.4620  -45.8220 C.3   359  ILE359      0.0001
     27  N         74.3850   25.9210  -48.4150 N.am  360  LYS360     -0.1980
     28  CA        73.3360   26.7190  -49.0330 C.3   360  LYS360      0.1596
     29  C         71.9640   26.1960  -48.6270 C.2   360  LYS360      0.2287
     30  O         71.0290   26.9690  -48.4160 O.2   360  LYS360     -0.2864
     31  CB        73.4610   26.7020  -50.5550 C.3   360  LYS360      0.0298
     32  CG        74.7980   27.1770  -51.0710 C.3   360  LYS360      0.0038
     33  CD        74.7070   27.6330  -52.5170 C.3   360  LYS360      0.0206
     34  CE        75.8930   27.1320  -53.3280 C.3   360  LYS360      0.1093
     35  NZ        76.3510   28.1540  -54.3090 N.3   360  LYS360     -0.1314
     36  N         71.2470   27.4540  -45.1190 N.3   363  ILE363     -0.1245
     37  CA        70.8890   28.8700  -45.1220 C.3   363  ILE363      0.1561
     38  C         69.4220   29.0700  -45.5050 C.2   363  ILE363      0.2260
     39  O         68.7220   29.8920  -44.9100 O.2   363  ILE363     -0.2867
     40  CB        71.8120   29.6870  -46.0660 C.3   363  ILE363      0.0252
     41  CG1       72.9450   30.3400  -45.2770 C.3   363  ILE363      0.0019
     42  CG2       71.0390   30.7780  -46.7870 C.3   363  ILE363      0.0019
     43  CD1       73.9570   29.3710  -44.7370 C.3   363  ILE363      0.0001
     44  N         80.5510   23.1940  -39.1750 N.3   372  ILE372     -0.1245
     45  CA        81.2480   22.3880  -40.1690 C.3   372  ILE372      0.1561
     46  C         82.4560   21.6750  -39.5770 C.2   372  ILE372      0.2260
     47  O         83.3190   22.3000  -38.9650 O.2   372  ILE372     -0.2867
     48  CB        81.7100   23.2360  -41.3720 C.3   372  ILE372      0.0252
     49  CG1       80.5080   23.7110  -42.1880 C.3   372  ILE372      0.0019
     50  CG2       82.6520   22.4410  -42.2580 C.3   372  ILE372      0.0019
     51  CD1       79.9680   25.0550  -41.7500 C.3   372  ILE372      0.0001
     52  N         84.1440   24.0830  -36.1150 N.3   384  ASN384     -0.1240
     53  CA        84.0820   25.3380  -36.8530 C.3   384  ASN384      0.1653
     54  C         82.6380   25.8020  -37.0120 C.2   384  ASN384      0.2266
     55  O         81.8610   25.1880  -37.7390 O.2   384  ASN384     -0.2867
     56  CB        84.7450   25.1750  -38.2190 C.3   384  ASN384      0.1155
     57  CG        85.1290   26.4990  -38.8410 C.2   384  ASN384      0.2627
     58  OD1       85.4030   27.4730  -38.1380 O.2   384  ASN384     -0.2716
     59  ND2       85.1420   26.5460  -40.1680 N.am  384  ASN384     -0.0877
     60  N         79.6890   29.0700  -37.4090 N.3   386  ARG386     -0.1245
     61  CA        79.3430   30.4370  -37.7690 C.3   386  ARG386      0.1563
     62  C         77.8800   30.7220  -37.4580 C.2   386  ARG386      0.2260
     63  O         77.1220   29.8270  -37.0820 O.2   386  ARG386     -0.2867
     64  CB        79.5830   30.6790  -39.2570 C.3   386  ARG386      0.0307
     65  CG        78.7080   29.8230  -40.1590 C.3   386  ARG386      0.0489
     66  CD        78.6150   30.3810  -41.5670 C.3   386  ARG386      0.2205
     67  NE        77.6080   31.4330  -41.6870 N.pl3 386  ARG386     -0.0865
     68  CZ        77.1270   31.8710  -42.8460 C.cat 386  ARG386      0.5346
     69  NH1       77.5630   31.3450  -43.9800 N.pl3 386  ARG386      0.1354
     70  NH2       76.2090   32.8290  -42.8700 N.pl3 386  ARG386      0.1354
     71  N         74.0790   32.4900  -38.7660 N.3   388  ARG388     -0.1231
     72  CA        73.2790   32.4960  -39.9790 C.3   388  ARG388      0.1694
     73  C         73.4160   33.8190  -40.7200 C.2   388  ARG388      0.2592
     74  O         73.5100   33.8530  -41.9470 O.2   388  ARG388     -0.2718
     75  CB        71.8110   32.2670  -39.6350 C.3   388  ARG388      0.0321
     76  CG        70.8700   32.3840  -40.8160 C.3   388  ARG388      0.0489
     77  CD        69.4370   32.5020  -40.3410 C.3   388  ARG388      0.2205
     78  NE        69.2800   33.6040  -39.3990 N.pl3 388  ARG388     -0.0865
     79  CZ        68.4980   33.5670  -38.3270 C.cat 388  ARG388      0.5346
     80  NH1       67.7960   32.4770  -38.0580 N.pl3 388  ARG388      0.1354
     81  NH2       68.4180   34.6180  -37.5210 N.pl3 388  ARG388      0.1354
     82  N         73.4310   34.9100  -39.9640 N.am  389  ASP389     -0.1974
     83  CA        73.3320   36.2430  -40.5460 C.3   389  ASP389      0.1709
     84  C         74.6800   36.9180  -40.7650 C.2   389  ASP389      0.2293
     85  O         74.7670   37.9330  -41.4570 O.2   389  ASP389     -0.2864
     86  CB        72.4270   37.1190  -39.6830 C.3   389  ASP389      0.1436
     87  CG        71.0430   36.5250  -39.5130 C.2   389  ASP389      0.3671
     88  OD1       70.5070   35.9930  -40.5080 O.co2 389  ASP389     -0.2456
     89  OD2       70.5000   36.5760  -38.3860 O.co2 389  ASP389     -0.2456
     90  N         78.2840   36.0020  -42.3210 N.3   391  ARG391     -0.1245
     91  CA        79.0560   35.0390  -43.0920 C.3   391  ARG391      0.1563
     92  C         80.4940   34.9160  -42.5830 C.2   391  ARG391      0.2260
     93  O         81.1470   33.8870  -42.7700 O.2   391  ARG391     -0.2867
     94  CB        79.0490   35.4400  -44.5660 C.3   391  ARG391      0.0307
     95  CG        79.7230   34.4520  -45.4940 C.3   391  ARG391      0.0489
     96  CD        79.8920   35.0520  -46.8740 C.3   391  ARG391      0.2205
     97  NE        78.6090   35.2620  -47.5370 N.pl3 391  ARG391     -0.0865
     98  CZ        78.2000   34.5780  -48.6000 C.cat 391  ARG391      0.5346
     99  NH1       78.9820   33.6450  -49.1270 N.pl3 391  ARG391      0.1354
    100  NH2       77.0160   34.8320  -49.1410 N.pl3 391  ARG391      0.1354
    101  N         82.6960   33.0580  -38.4150 N.3   394  PHE394     -0.1241
    102  CA        83.2480   31.7320  -38.1550 C.3   394  PHE394      0.1605
    103  C         84.1590   31.6910  -36.9330 C.2   394  PHE394      0.2264
    104  O         85.0430   32.5300  -36.7620 O.2   394  PHE394     -0.2867
    105  CB        83.9670   31.1770  -39.3840 C.3   394  PHE394      0.0534
    106  CG        83.1630   30.1660  -40.1410 C.ar  394  PHE394     -0.0203
    107  CD1       82.9270   28.9130  -39.6000 C.ar  394  PHE394     -0.0042
    108  CD2       82.6440   30.4680  -41.3890 C.ar  394  PHE394     -0.0042
    109  CE1       82.1880   27.9760  -40.2860 C.ar  394  PHE394     -0.0003
    110  CE2       81.9050   29.5360  -42.0880 C.ar  394  PHE394     -0.0003
    111  CZ        81.6740   28.2850  -41.5350 C.ar  394  PHE394     -0.0000
@<TRIPOS>BOND
     1    35    34    1
     2    34    33    1
     3    33    32    1
     4    32    31    1
     5    17    16    1
     6    17    18    2
     7    31    28    1
     8    16    15    1
     9    15    10   am
    10     8     9    1
    11   100    98    1
    12    99    98    1
    13    28    29    1
    14    28    27    1
    15    10     9    1
    16    10    11    2
    17    29    30    2
    18    98    97    2
    19    13    12    1
    20    27    21   am
    21     9    12    1
    22    97    96    1
    23    12    14    1
    24    19    20    1
    25    21    20    1
    26    21    22    2
    27     4     3    2
    28    96    95    1
    29    42    40    1
    30    23    20    1
    31    23    25    1
    32    23    24    1
    33     6     5    1
    34    40    41    1
    35    40    37    1
    36     3     2    1
    37    26    24    1
    38    38    37    1
    39    38    39    2
    40    95    94    1
    41    41    43    1
    42     2     5    1
    43     2     1    1
    44     5     7    1
    45    37    36    1
    46    94    91    1
    47    69    68    1
    48    91    92    1
    49    91    90    1
    50    70    68    1
    51    68    67    2
    52    93    92    2
    53    50    48    1
    54    49    51    1
    55    49    48    1
    56   110   111   ar
    57   110   108   ar
    58    74    73    2
    59    67    66    1
    60    66    65    1
    61   111   109   ar
    62    85    84    2
    63   108   106   ar
    64    48    45    1
    65    76    77    1
    66    76    75    1
    67    84    83    1
    68    73    72    1
    69    73    82   am
    70    83    82    1
    71    83    86    1
    72    88    87   ar
    73    77    78    1
    74   109   107   ar
    75    45    46    1
    76    45    44    1
    77    59    57   am
    78    65    64    1
    79   106   107   ar
    80   106   105    1
    81    72    75    1
    82    72    71    1
    83    86    87    1
    84    46    47    2
    85    87    89   ar
    86    78    79    2
    87   105   102    1
    88    64    61    1
    89    57    56    1
    90    57    58    2
    91   101   102    1
    92    79    80    1
    93    79    81    1
    94    56    53    1
    95   102   103    1
    96    61    62    1
    97    61    60    1
    98    55    54    2
    99    62    63    2
   100    54    53    1
   101   103   104    2
   102    53    52    1
