@<TRIPOS>MOLECULE
tmp/4eo6B00.pdb
 140 135 0 0 0
SMALL
GASTEIGER

@<TRIPOS>ATOM
      1  N         -8.0890   37.6030  -26.1380 N.3   414  LEU414     -0.1245
      2  CA        -8.8160   37.0820  -27.3020 C.3   414  LEU414      0.1561
      3  C        -10.2940   37.4370  -27.1570 C.2   414  LEU414      0.2260
      4  O        -10.9490   37.8510  -28.1120 O.2   414  LEU414     -0.2867
      5  CB        -8.6530   35.5660  -27.3550 C.3   414  LEU414      0.0270
      6  CG        -9.4260   34.7700  -28.4090 C.3   414  LEU414      0.0019
      7  CD1       -9.0660   35.2120  -29.8210 C.3   414  LEU414      0.0001
      8  CD2       -9.1810   33.2680  -28.2040 C.3   414  LEU414      0.0001
      9  N        -11.3620   41.4270  -27.2080 N.3   417  ARG417     -0.1231
     10  CA       -11.2800   41.9700  -28.5610 C.3   417  ARG417      0.1694
     11  C        -12.3490   41.3960  -29.4960 C.2   417  ARG417      0.2591
     12  O        -12.9950   42.1340  -30.2360 O.2   417  ARG417     -0.2718
     13  CB        -9.8980   41.7100  -29.1580 C.3   417  ARG417      0.0321
     14  CG        -8.7550   42.3750  -28.3910 C.3   417  ARG417      0.0489
     15  CD        -7.4140   41.8150  -28.8570 C.3   417  ARG417      0.2205
     16  NE        -7.0630   42.2890  -30.1940 N.pl3 417  ARG417     -0.0865
     17  CZ        -6.1450   41.7220  -30.9780 C.cat 417  ARG417      0.5346
     18  NH1       -5.5090   40.6250  -30.5790 N.pl3 417  ARG417      0.1354
     19  NH2       -5.8790   42.2380  -32.1710 N.pl3 417  ARG417      0.1354
     20  N        -12.5140   40.0780  -29.4790 N.am  418  MET418     -0.1979
     21  CA       -13.4300   39.4160  -30.4150 C.3   418  MET418      0.1605
     22  C        -14.8710   39.7760  -30.0930 C.2   418  MET418      0.2287
     23  O        -15.6890   40.0150  -30.9910 O.2   418  MET418     -0.2864
     24  CB       -13.2770   37.8940  -30.3420 C.3   418  MET418      0.0413
     25  CG       -14.1480   37.1640  -31.3720 C.3   418  MET418      0.0598
     26  SD       -14.0220   35.3850  -31.2400 S.3   418  MET418     -0.1393
     27  CE       -15.1180   35.0180  -29.9020 C.3   418  MET418      0.0692
     28  N         -1.9910   41.0290  -31.1870 N.3   469  LEU469     -0.1231
     29  CA        -1.7810   39.7050  -30.6100 C.3   469  LEU469      0.1693
     30  C         -2.5580   38.6220  -31.3550 C.2   469  LEU469      0.2592
     31  O         -3.7110   38.8200  -31.7470 O.2   469  LEU469     -0.2718
     32  CB        -2.1210   39.6580  -29.1120 C.3   469  LEU469      0.0284
     33  CG        -1.2960   40.5060  -28.1390 C.3   469  LEU469      0.0019
     34  CD1       -1.5920   40.0980  -26.7200 C.3   469  LEU469      0.0001
     35  CD2        0.2190   40.3950  -28.4140 C.3   469  LEU469      0.0001
     36  N         -1.9060   37.4790  -31.5390 N.am  470  HIS470     -0.1962
     37  CA        -2.4960   36.3190  -32.1930 C.3   470  HIS470      0.1787
     38  C         -1.7020   35.1000  -31.7530 C.2   470  HIS470      0.2621
     39  O         -0.7620   35.2270  -30.9640 O.2   470  HIS470     -0.2715
     40  CB        -2.4200   36.4790  -33.7150 C.3   470  HIS470      0.0785
     41  CG        -1.0180   36.5400  -34.2350 C.ar  470  HIS470      0.0821
     42  ND1       -0.3890   35.4550  -34.8080 N.ar  470  HIS470     -0.2267
     43  CD2       -0.1150   37.5490  -34.2430 C.ar  470  HIS470      0.1154
     44  CE1        0.8410   35.7960  -35.1510 C.ar  470  HIS470      0.1986
     45  NE2        1.0300   37.0630  -34.8260 N.ar  470  HIS470     -0.2212
     46  N         -2.0500   33.9250  -32.2780 N.am  471  SER471     -0.1936
     47  CA        -1.4400   32.6760  -31.8300 C.3   471  SER471      0.2055
     48  C         -1.4760   32.5860  -30.3070 C.2   471  SER471      0.2643
     49  O         -0.4420   32.4300  -29.6510 O.2   471  SER471     -0.2714
     50  CB         0.0070   32.5460  -32.3310 C.3   471  SER471      0.2130
     51  OG         0.0460   32.5470  -33.7510 O.3   471  SER471     -0.2179
     52  N         -2.6800   32.7030  -29.7540 N.am  472  TYR472     -0.1973
     53  CA        -2.8910   32.5740  -28.3210 C.3   472  TYR472      0.1639
     54  C         -2.6060   31.1340  -27.8710 C.2   472  TYR472      0.2290
     55  O         -2.5280   30.2160  -28.6990 O.2   472  TYR472     -0.2864
     56  CB        -4.3360   32.9790  -27.9830 C.3   472  TYR472      0.0560
     57  CG        -4.6240   34.4680  -28.1290 C.ar  472  TYR472     -0.0198
     58  CD1       -5.0520   35.0130  -29.3370 C.ar  472  TYR472     -0.0009
     59  CD2       -4.4880   35.3250  -27.0480 C.ar  472  TYR472     -0.0009
     60  CE1       -5.3250   36.3740  -29.4640 C.ar  472  TYR472      0.0417
     61  CE2       -4.7640   36.6840  -27.1670 C.ar  472  TYR472      0.0417
     62  CZ        -5.1850   37.2020  -28.3710 C.ar  472  TYR472      0.1957
     63  OH        -5.4570   38.5540  -28.4650 O.3   472  TYR472     -0.2866
     64  N         -7.2340   29.4570  -25.5300 N.3   477  ILE477     -0.1245
     65  CA        -8.2210   29.2710  -26.5870 C.3   477  ILE477      0.1561
     66  C         -9.2980   28.3140  -26.0850 C.2   477  ILE477      0.2260
     67  O        -10.4910   28.5780  -26.2160 O.2   477  ILE477     -0.2867
     68  CB        -7.5720   28.7370  -27.8850 C.3   477  ILE477      0.0252
     69  CG1       -6.6430   29.7960  -28.4850 C.3   477  ILE477      0.0019
     70  CG2       -8.6430   28.3330  -28.8990 C.3   477  ILE477      0.0019
     71  CD1       -5.7390   29.2770  -29.5950 C.3   477  ILE477      0.0001
     72  N        -11.6690   29.9870  -23.5050 N.3   480  VAL480     -0.1231
     73  CA       -12.6080   30.8910  -24.1620 C.3   480  VAL480      0.1692
     74  C        -13.6710   30.0960  -24.9310 C.2   480  VAL480      0.2591
     75  O        -14.8650   30.4040  -24.8650 O.2   480  VAL480     -0.2718
     76  CB       -11.8730   31.8700  -25.0940 C.3   480  VAL480      0.0266
     77  CG1      -12.8610   32.7230  -25.8590 C.3   480  VAL480      0.0020
     78  CG2      -10.9110   32.7450  -24.2900 C.3   480  VAL480      0.0020
     79  N        -13.2410   29.0610  -25.6480 N.am  481  ALA481     -0.1980
     80  CA       -14.1860   28.2430  -26.4140 C.3   481  ALA481      0.1597
     81  C        -15.2240   27.5790  -25.5120 C.2   481  ALA481      0.2287
     82  O        -16.4230   27.6230  -25.7950 O.2   481  ALA481     -0.2864
     83  CB       -13.4530   27.2050  -27.2410 C.3   481  ALA481      0.0319
     84  N        -17.7530   30.0530  -24.4630 N.3   484  LEU484     -0.1245
     85  CA       -18.6670   30.4560  -25.5230 C.3   484  LEU484      0.1561
     86  C        -19.7740   29.4280  -25.6880 C.2   484  LEU484      0.2260
     87  O        -20.9350   29.7760  -25.9040 O.2   484  LEU484     -0.2867
     88  CB       -17.9340   30.6850  -26.8470 C.3   484  LEU484      0.0270
     89  CG       -16.8440   31.7640  -26.8390 C.3   484  LEU484      0.0019
     90  CD1      -16.6050   32.2790  -28.2420 C.3   484  LEU484      0.0001
     91  CD2      -17.2210   32.9130  -25.9200 C.3   484  LEU484      0.0001
     92  N        -20.1300   32.1060  -32.8600 N.3   491  PRO491     -0.2102
     93  CA       -18.7610   31.7250  -33.2380 C.3   491  PRO491      0.1504
     94  C        -17.9400   32.8480  -33.8680 C.2   491  PRO491      0.2575
     95  O        -18.4670   33.9030  -34.2180 O.2   491  PRO491     -0.2718
     96  CB       -18.9880   30.6130  -34.2650 C.3   491  PRO491      0.0282
     97  CG       -20.3210   30.9320  -34.8580 C.3   491  PRO491      0.0208
     98  CD       -21.1380   31.4570  -33.7150 C.3   491  PRO491      0.0893
     99  N        -16.6420   32.5990  -34.0140 N.am  492  LEU492     -0.1980
    100  CA       -15.7110   33.5590  -34.5970 C.3   492  LEU492      0.1596
    101  C        -16.1570   34.1590  -35.9430 C.2   492  LEU492      0.2287
    102  O        -16.0390   35.3670  -36.1570 O.2   492  LEU492     -0.2864
    103  CB       -14.3180   32.9260  -34.7330 C.3   492  LEU492      0.0297
    104  CG       -13.2940   33.7390  -35.5250 C.3   492  LEU492      0.0022
    105  CD1      -13.0440   35.0890  -34.8680 C.3   492  LEU492      0.0001
    106  CD2      -11.9880   32.9740  -35.6780 C.3   492  LEU492      0.0001
    107  N        -16.2640   38.0970  -36.5310 N.3   496  ARG496     -0.1245
    108  CA       -15.4160   38.6840  -37.5600 C.3   496  ARG496      0.1563
    109  C        -16.2530   39.4920  -38.5470 C.2   496  ARG496      0.2260
    110  O        -15.8760   40.6070  -38.9070 O.2   496  ARG496     -0.2867
    111  CB       -14.5760   37.6220  -38.2960 C.3   496  ARG496      0.0307
    112  CG       -13.6530   38.2110  -39.3570 C.3   496  ARG496      0.0489
    113  CD       -13.0390   37.1310  -40.2550 C.3   496  ARG496      0.2205
    114  NE       -12.0090   36.3530  -39.5740 N.pl3 496  ARG496     -0.0865
    115  CZ       -12.1380   35.0810  -39.2040 C.cat 496  ARG496      0.5346
    116  NH1      -13.2680   34.4140  -39.4380 N.pl3 496  ARG496      0.1354
    117  NH2      -11.1280   34.4730  -38.5970 N.pl3 496  ARG496      0.1354
    118  N         -7.6460   43.3010  -36.4570 N.3   523  TRP523     -0.1241
    119  CA        -7.6100   41.8330  -36.4310 C.3   523  TRP523      0.1605
    120  C         -8.6200   41.2080  -37.3860 C.2   523  TRP523      0.2264
    121  O         -8.4720   40.0450  -37.7880 O.2   523  TRP523     -0.2867
    122  CB        -7.8570   41.2870  -35.0120 C.3   523  TRP523      0.0550
    123  CG        -9.1990   41.6730  -34.4140 C.ar  523  TRP523      0.0003
    124  CD1       -9.4570   42.7530  -33.6170 C.ar  523  TRP523      0.0946
    125  CD2      -10.4580   40.9860  -34.5740 C.ar  523  TRP523      0.0152
    126  NE1      -10.7890   42.7800  -33.2710 N.ar  523  TRP523     -0.2442
    127  CE2      -11.4240   41.7100  -33.8400 C.ar  523  TRP523      0.0810
    128  CE3      -10.8570   39.8320  -35.2600 C.ar  523  TRP523      0.0012
    129  CZ2      -12.7720   41.3200  -33.7750 C.ar  523  TRP523      0.0191
    130  CZ3      -12.1940   39.4430  -35.1960 C.ar  523  TRP523      0.0001
    131  CH2      -13.1340   40.1870  -34.4530 C.ar  523  TRP523      0.0015
    132  N         -4.1640   43.5940  -43.1890 N.3   528  LYS528     -0.1245
    133  CA        -3.9310   44.4140  -42.0050 C.3   528  LYS528      0.1561
    134  C         -3.1200   45.6760  -42.2810 C.2   528  LYS528      0.2260
    135  O         -2.1950   45.6780  -43.0990 O.2   528  LYS528     -0.2867
    136  CB        -3.2270   43.5990  -40.9220 C.3   528  LYS528      0.0271
    137  CG        -4.1500   42.7800  -40.0360 C.3   528  LYS528      0.0035
    138  CD        -4.6500   41.5540  -40.7550 C.3   528  LYS528      0.0206
    139  CE        -5.1840   40.5270  -39.7790 C.3   528  LYS528      0.1093
    140  NZ        -5.8150   39.3980  -40.5190 N.3   528  LYS528     -0.1314
@<TRIPOS>BOND
     1   132   133    1
     2   135   134    2
     3   134   133    1
     4   133   136    1
     5   136   137    1
     6   138   137    1
     7   138   139    1
     8   140   139    1
     9   113   114    1
    10   113   112    1
    11   114   115    2
    12   116   115    1
    13   112   111    1
    14   115   117    1
    15   110   109    2
    16   109   108    1
    17   111   108    1
    18   121   120    2
    19   108   107    1
    20   120   119    1
    21   118   119    1
    22   119   122    1
    23   102   101    2
    24   101   100    1
    25   106   104    1
    26   104   105    1
    27   104   103    1
    28   128   130   ar
    29   128   125   ar
    30   130   131   ar
    31    44    45   ar
    32    44    42   ar
    33   122   123    1
    34    97    96    1
    35    97    98    1
    36    45    43   ar
    37    42    41   ar
    38   103   100    1
    39   100    99    1
    40   125   123   ar
    41   125   127   ar
    42   131   129   ar
    43   123   124   ar
    44    96    93    1
    45    43    41   ar
    46    41    40    1
    47    95    94    2
    48    99    94   am
    49    94    93    1
    50   127   129   ar
    51   127   126   ar
    52    51    50    1
    53    98    92    1
    54    40    37    1
    55   124   126   ar
    56    93    92    1
    57    50    47    1
    58    46    47    1
    59    46    38   am
    60    37    38    1
    61    37    36    1
    62    19    17    1
    63    47    48    1
    64    38    39    2
    65    31    30    2
    66    36    30   am
    67    25    26    1
    68    25    24    1
    69    30    29    1
    70    26    27    1
    71    28    29    1
    72    23    22    2
    73    17    18    1
    74    17    16    2
    75    29    32    1
    76    21    24    1
    77    21    22    1
    78    21    20    1
    79    48    52   am
    80    48    49    2
    81    12    11    2
    82    16    15    1
    83     7     6    1
    84    52    53    1
    85    71    69    1
    86    11    20   am
    87    11    10    1
    88    60    58   ar
    89    60    62   ar
    90    58    57   ar
    91    13    10    1
    92    13    14    1
    93    32    33    1
    94    70    68    1
    95    15    14    1
    96    55    54    2
    97    10     9    1
    98    69    68    1
    99    63    62    1
   100    35    33    1
   101     6     8    1
   102     6     5    1
   103    62    61   ar
   104    53    56    1
   105    53    54    1
   106    90    89    1
   107    33    34    1
   108    57    56    1
   109    57    59   ar
   110     4     3    2
   111    68    65    1
   112     5     2    1
   113     2     3    1
   114     2     1    1
   115    83    80    1
   116    61    59   ar
   117    88    89    1
   118    88    85    1
   119    89    91    1
   120    65    66    1
   121    65    64    1
   122    80    79    1
   123    80    81    1
   124    67    66    2
   125    87    86    2
   126    77    76    1
   127    82    81    2
   128    86    85    1
   129    79    74   am
   130    85    84    1
   131    76    78    1
   132    76    73    1
   133    74    75    2
   134    74    73    1
   135    73    72    1
