@<TRIPOS>MOLECULE
tmp/4eo8A00.pdb
 129 125 0 0 0
SMALL
GASTEIGER

@<TRIPOS>ATOM
      1  N          8.2350   37.9730   66.4620 N.3   414  LEU414     -0.1245
      2  CA         9.0130   37.4520   67.5790 C.3   414  LEU414      0.1561
      3  C         10.4870   37.8310   67.4420 C.2   414  LEU414      0.2260
      4  O         11.1360   38.2470   68.4140 O.2   414  LEU414     -0.2867
      5  CB         8.8750   35.9310   67.6190 C.3   414  LEU414      0.0270
      6  CG         9.6390   35.1690   68.7010 C.3   414  LEU414      0.0019
      7  CD1        9.2120   35.6210   70.1110 C.3   414  LEU414      0.0001
      8  CD2        9.4430   33.6620   68.5050 C.3   414  LEU414      0.0001
      9  N         11.4810   41.8850   67.4590 N.3   417  ARG417     -0.1231
     10  CA        11.3840   42.4170   68.8120 C.3   417  ARG417      0.1694
     11  C         12.4800   41.8630   69.7150 C.2   417  ARG417      0.2591
     12  O         13.1780   42.6190   70.3810 O.2   417  ARG417     -0.2718
     13  CB        10.0160   42.0930   69.3930 C.3   417  ARG417      0.0321
     14  CG         8.8630   42.7760   68.6840 C.3   417  ARG417      0.0489
     15  CD         7.5560   42.1690   69.1610 C.3   417  ARG417      0.2205
     16  NE         7.1780   42.6720   70.4830 N.pl3 417  ARG417     -0.0865
     17  CZ         6.2770   42.0930   71.2730 C.cat 417  ARG417      0.5346
     18  NH1        5.6850   40.9630   70.9000 N.pl3 417  ARG417      0.1354
     19  NH2        5.9930   42.6290   72.4520 N.pl3 417  ARG417      0.1354
     20  N         12.6420   40.5430   69.7320 N.am  418  MET418     -0.1979
     21  CA        13.5680   39.9170   70.6750 C.3   418  MET418      0.1605
     22  C         15.0190   40.2580   70.3750 C.2   418  MET418      0.2287
     23  O         15.8190   40.5030   71.2890 O.2   418  MET418     -0.2864
     24  CB        13.3940   38.3940   70.6690 C.3   418  MET418      0.0413
     25  CG        14.3640   37.6690   71.5950 C.3   418  MET418      0.0598
     26  SD        14.2500   35.8780   71.4200 S.3   418  MET418     -0.1393
     27  CE        14.3300   35.6830   69.6470 C.3   418  MET418      0.0692
     28  N          2.1820   41.4020   71.5930 N.3   469  LEU469     -0.1231
     29  CA         1.9830   40.0670   71.0340 C.3   469  LEU469      0.1693
     30  C          2.7730   38.9910   71.7820 C.2   469  LEU469      0.2592
     31  O          3.9100   39.2080   72.2150 O.2   469  LEU469     -0.2718
     32  CB         2.3140   40.0100   69.5350 C.3   469  LEU469      0.0284
     33  CG         1.4550   40.8390   68.5780 C.3   469  LEU469      0.0019
     34  CD1        1.7250   40.4420   67.1290 C.3   469  LEU469      0.0001
     35  CD2       -0.0380   40.7080   68.8830 C.3   469  LEU469      0.0001
     36  N          2.1460   37.8270   71.9190 N.am  470  HIS470     -0.1962
     37  CA         2.7290   36.6810   72.5880 C.3   470  HIS470      0.1787
     38  C          1.9450   35.4480   72.1400 C.2   470  HIS470      0.2621
     39  O          0.9700   35.5640   71.3910 O.2   470  HIS470     -0.2715
     40  CB         2.6380   36.8640   74.1100 C.3   470  HIS470      0.0785
     41  CG         1.2310   36.9130   74.6170 C.ar  470  HIS470      0.0821
     42  ND1        0.5850   35.8050   75.1220 N.ar  470  HIS470     -0.2267
     43  CD2        0.3300   37.9260   74.6550 C.ar  470  HIS470      0.1154
     44  CE1       -0.6470   36.1370   75.4680 C.ar  470  HIS470      0.1986
     45  NE2       -0.8290   37.4160   75.1920 N.ar  470  HIS470     -0.2212
     46  N          2.3600   34.2720   72.5950 N.am  471  SER471     -0.1936
     47  CA         1.7410   33.0230   72.1550 C.3   471  SER471      0.2055
     48  C          1.7340   32.9480   70.6350 C.2   471  SER471      0.2643
     49  O          0.6820   32.8090   69.9950 O.2   471  SER471     -0.2714
     50  CB         0.3200   32.8760   72.7100 C.3   471  SER471      0.2130
     51  OG         0.3540   32.6910   74.1150 O.3   471  SER471     -0.2179
     52  N          2.9260   33.0580   70.0630 N.am  472  TYR472     -0.1973
     53  CA         3.1060   32.9370   68.6300 C.3   472  TYR472      0.1639
     54  C          2.8110   31.4900   68.2240 C.2   472  TYR472      0.2290
     55  O          2.7280   30.6020   69.0790 O.2   472  TYR472     -0.2864
     56  CB         4.5420   33.3390   68.2620 C.3   472  TYR472      0.0560
     57  CG         4.8240   34.8290   68.4130 C.ar  472  TYR472     -0.0198
     58  CD1        5.2590   35.3680   69.6190 C.ar  472  TYR472     -0.0009
     59  CD2        4.6580   35.6900   67.3410 C.ar  472  TYR472     -0.0009
     60  CE1        5.5160   36.7360   69.7450 C.ar  472  TYR472      0.0417
     61  CE2        4.9110   37.0490   67.4590 C.ar  472  TYR472      0.0417
     62  CZ         5.3440   37.5680   68.6550 C.ar  472  TYR472      0.1957
     63  OH         5.5940   38.9280   68.7420 O.3   472  TYR472     -0.2866
     64  N          7.4050   29.8780   65.8170 N.3   477  ILE477     -0.1245
     65  CA         8.3930   29.6670   66.8640 C.3   477  ILE477      0.1561
     66  C          9.4930   28.7280   66.3880 C.2   477  ILE477      0.2260
     67  O         10.6710   29.0010   66.5790 O.2   477  ILE477     -0.2867
     68  CB         7.7630   29.0900   68.1470 C.3   477  ILE477      0.0252
     69  CG1        6.8110   30.1080   68.7690 C.3   477  ILE477      0.0019
     70  CG2        8.8540   28.6870   69.1260 C.3   477  ILE477      0.0019
     71  CD1        5.9840   29.5530   69.9290 C.3   477  ILE477      0.0001
     72  N         11.8260   30.4270   63.7870 N.3   480  VAL480     -0.1231
     73  CA        12.7590   31.3540   64.4320 C.3   480  VAL480      0.1692
     74  C         13.8660   30.5690   65.1500 C.2   480  VAL480      0.2591
     75  O         15.0540   30.8660   65.0130 O.2   480  VAL480     -0.2718
     76  CB        12.0160   32.3230   65.3960 C.3   480  VAL480      0.0266
     77  CG1       13.0020   33.1760   66.2000 C.3   480  VAL480      0.0020
     78  CG2       11.0450   33.2010   64.6120 C.3   480  VAL480      0.0020
     79  N         13.4810   29.5460   65.9030 N.am  481  ALA481     -0.1980
     80  CA        14.4610   28.7670   66.6580 C.3   481  ALA481      0.1597
     81  C         15.4730   28.0880   65.7350 C.2   481  ALA481      0.2287
     82  O         16.6710   28.0680   66.0240 O.2   481  ALA481     -0.2864
     83  CB        13.7650   27.7440   67.5490 C.3   481  ALA481      0.0319
     84  N         17.9630   30.5690   64.6720 N.3   484  LEU484     -0.1245
     85  CA        18.8930   30.9340   65.7430 C.3   484  LEU484      0.1561
     86  C         19.9840   29.8800   65.9190 C.2   484  LEU484      0.2260
     87  O         21.1380   30.2150   66.1720 O.2   484  LEU484     -0.2867
     88  CB        18.1640   31.1690   67.0630 C.3   484  LEU484      0.0270
     89  CG        17.0640   32.2320   67.0710 C.3   484  LEU484      0.0019
     90  CD1       16.8380   32.7120   68.4820 C.3   484  LEU484      0.0001
     91  CD2       17.3990   33.4080   66.1500 C.3   484  LEU484      0.0001
     92  N         20.3050   32.5570   73.1240 N.3   491  PRO491     -0.2102
     93  CA        18.9630   32.1250   73.5320 C.3   491  PRO491      0.1504
     94  C         18.1030   33.2510   74.0930 C.2   491  PRO491      0.2575
     95  O         18.6150   34.3060   74.4590 O.2   491  PRO491     -0.2718
     96  CB        19.2520   31.1250   74.6640 C.3   491  PRO491      0.0282
     97  CG        20.6770   30.7420   74.5010 C.3   491  PRO491      0.0208
     98  CD        21.3530   31.9460   73.9590 C.3   491  PRO491      0.0893
     99  N         16.8050   32.9940   74.1930 N.am  492  LEU492     -0.1980
    100  CA        15.8560   33.9410   74.7750 C.3   492  LEU492      0.1596
    101  C         16.3100   34.5270   76.1190 C.2   492  LEU492      0.2287
    102  O         16.1980   35.7300   76.3530 O.2   492  LEU492     -0.2864
    103  CB        14.4920   33.2650   74.9330 C.3   492  LEU492      0.0297
    104  CG        13.4650   33.9780   75.8070 C.3   492  LEU492      0.0022
    105  CD1       13.1020   35.3350   75.2260 C.3   492  LEU492      0.0001
    106  CD2       12.2240   33.1040   75.9830 C.3   492  LEU492      0.0001
    107  N          7.7950   43.6920   76.7720 N.3   523  TRP523     -0.1241
    108  CA         7.7810   42.2280   76.7520 C.3   523  TRP523      0.1605
    109  C          8.8060   41.5830   77.6940 C.2   523  TRP523      0.2264
    110  O          8.6660   40.4180   78.0770 O.2   523  TRP523     -0.2867
    111  CB         8.0110   41.7040   75.3280 C.3   523  TRP523      0.0550
    112  CG         9.3300   42.1090   74.7010 C.ar  523  TRP523      0.0003
    113  CD1        9.5500   43.1870   73.8890 C.ar  523  TRP523      0.0946
    114  CD2       10.5980   41.4380   74.8280 C.ar  523  TRP523      0.0152
    115  NE1       10.8680   43.2280   73.5050 N.ar  523  TRP523     -0.2442
    116  CE2       11.5310   42.1650   74.0580 C.ar  523  TRP523      0.0810
    117  CE3       11.0290   40.2880   75.5040 C.ar  523  TRP523      0.0012
    118  CZ2       12.8680   41.7860   73.9520 C.ar  523  TRP523      0.0191
    119  CZ3       12.3630   39.9140   75.4060 C.ar  523  TRP523      0.0001
    120  CH2       13.2670   40.6570   74.6310 C.ar  523  TRP523      0.0015
    121  N          4.3510   43.8630   83.6330 N.3   528  LYS528     -0.1245
    122  CA         4.2310   44.6700   82.4300 C.3   528  LYS528      0.1561
    123  C          3.2900   45.8550   82.5910 C.2   528  LYS528      0.2260
    124  O          2.2680   45.7740   83.2770 O.2   528  LYS528     -0.2867
    125  CB         3.8270   43.7850   81.2490 C.3   528  LYS528      0.0271
    126  CG         4.9490   42.8480   80.8320 C.3   528  LYS528      0.0035
    127  CD         4.4440   41.5850   80.1760 C.3   528  LYS528      0.0206
    128  CE         5.5820   40.5970   80.0120 C.3   528  LYS528      0.1093
    129  NZ         5.1120   39.2710   79.5300 N.3   528  LYS528     -0.1314
@<TRIPOS>BOND
     1    72    73    1
     2    73    74    1
     3    73    76    1
     4    78    76    1
     5    84    85    1
     6    75    74    2
     7    74    79   am
     8    76    77    1
     9    81    82    2
    10    81    80    1
    11    85    86    1
    12    85    88    1
    13    64    65    1
    14    79    80    1
    15    86    87    2
    16    91    89    1
    17    66    67    2
    18    66    65    1
    19     1     2    1
    20    80    83    1
    21    65    68    1
    22    88    89    1
    23    89    90    1
    24    34    33    1
    25    59    61   ar
    26    59    57   ar
    27     3     2    1
    28     3     4    2
    29    61    62   ar
    30     9    10    1
    31     2     5    1
    32     5     6    1
    33    68    69    1
    34    68    70    1
    35    54    53    1
    36    54    55    2
    37    56    57    1
    38    56    53    1
    39    57    58   ar
    40     8     6    1
    41    33    35    1
    42    33    32    1
    43    53    52    1
    44    62    63    1
    45    62    60   ar
    46    14    15    1
    47    14    13    1
    48     6     7    1
    49    69    71    1
    50    10    13    1
    51    10    11    1
    52    15    16    1
    53    32    29    1
    54    58    60   ar
    55    27    26    1
    56    11    20   am
    57    11    12    2
    58    20    21    1
    59    49    48    2
    60    52    48   am
    61    22    21    1
    62    22    23    2
    63    16    17    2
    64    48    47    1
    65    24    21    1
    66    24    25    1
    67    18    17    1
    68    29    28    1
    69    29    30    1
    70    17    19    1
    71    39    38    2
    72    26    25    1
    73    30    36   am
    74    30    31    2
    75    36    37    1
    76    38    37    1
    77    38    46   am
    78    47    46    1
    79    47    50    1
    80    37    40    1
    81    50    51    1
    82    92    93    1
    83    92    98    1
    84   115   113   ar
    85   115   116   ar
    86    93    94    1
    87    93    96    1
    88   113   112   ar
    89   118   116   ar
    90   118   120   ar
    91    98    97    1
    92   116   114   ar
    93    94    99   am
    94    94    95    2
    95    40    41    1
    96    99   100    1
    97    97    96    1
    98    41    43   ar
    99    41    42   ar
   100   120   119   ar
   101    43    45   ar
   102   112   114   ar
   103   112   111    1
   104   100   103    1
   105   100   101    1
   106   114   117   ar
   107   103   104    1
   108    42    44   ar
   109    45    44   ar
   110   105   104    1
   111   111   108    1
   112   119   117   ar
   113   104   106    1
   114   101   102    2
   115   108   107    1
   116   108   109    1
   117   109   110    2
   118   129   128    1
   119   128   127    1
   120   127   126    1
   121   126   125    1
   122   125   122    1
   123   122   123    1
   124   122   121    1
   125   123   124    2
