@<TRIPOS>MOLECULE
tmp/4eohB07.pdb
 105 99 0 0 0
SMALL
GASTEIGER

@<TRIPOS>ATOM
      1  N         17.2400   11.0560   16.8210 N.3    76  TYR76      -0.1241
      2  CA        16.7020   12.4030   16.9590 C.3    76  TYR76       0.1605
      3  C         17.6140   13.2690   17.8060 C.2    76  TYR76       0.2264
      4  O         18.3650   12.7720   18.6530 O.2    76  TYR76      -0.2867
      5  CB        15.3450   12.4120   17.6690 C.3    76  TYR76       0.0534
      6  CG        14.1930   11.7760   16.9370 C.ar   76  TYR76      -0.0201
      7  CD1       13.9880   10.3990   16.9860 C.ar   76  TYR76      -0.0009
      8  CD2       13.2820   12.5600   16.2190 C.ar   76  TYR76      -0.0009
      9  CE1       12.9070    9.8140   16.3430 C.ar   76  TYR76       0.0417
     10  CE2       12.1900   11.9830   15.5670 C.ar   76  TYR76       0.0417
     11  CZ        12.0110   10.6100   15.6350 C.ar   76  TYR76       0.1957
     12  OH        10.9450   10.0220   15.0060 O.3    76  TYR76      -0.2866
     13  N         19.3980    9.7050    8.3890 N.3   104  ARG104     -0.1245
     14  CA        17.9730    9.6050    8.6610 C.3   104  ARG104      0.1563
     15  C         17.6340   10.3080    9.9660 C.2   104  ARG104      0.2260
     16  O         16.4820   10.3170   10.3980 O.2   104  ARG104     -0.2867
     17  CB        17.5570    8.1360    8.7460 C.3   104  ARG104      0.0307
     18  CG        17.8440    7.3220    7.4880 C.3   104  ARG104      0.0489
     19  CD        17.5100    5.8510    7.7120 C.3   104  ARG104      0.2205
     20  NE        17.8810    5.0000    6.5810 N.pl3 104  ARG104     -0.0865
     21  CZ        17.2920    5.0310    5.3890 C.cat 104  ARG104      0.5346
     22  NH1       16.2940    5.8730    5.1550 N.pl3 104  ARG104      0.1354
     23  NH2       17.6990    4.2130    4.4270 N.pl3 104  ARG104      0.1354
     24  N         16.4920   12.8310   12.6290 N.3   106  VAL106     -0.1245
     25  CA        15.4930   13.8920   12.6320 C.3   106  VAL106      0.1561
     26  C         15.8170   14.9290   13.7110 C.2   106  VAL106      0.2260
     27  O         15.8370   14.6110   14.8990 O.2   106  VAL106     -0.2867
     28  CB        14.0780   13.3270   12.9060 C.3   106  VAL106      0.0252
     29  CG1       13.0820   14.4680   13.0500 C.3   106  VAL106      0.0019
     30  CG2       13.6580   12.3840   11.7730 C.3   106  VAL106      0.0019
     31  N         14.3920   19.5780   10.8280 N.3   142  ASP142     -0.1225
     32  CA        13.4330   18.7640   10.0910 C.3   142  ASP142      0.1805
     33  C         12.0290   19.0720   10.5830 C.2   142  ASP142      0.2597
     34  O         11.0620   18.9700    9.8300 O.2   142  ASP142     -0.2718
     35  CB        13.7510   17.2850   10.2800 C.3   142  ASP142      0.1424
     36  CG        15.0910   16.9180    9.6920 C.2   142  ASP142      0.3668
     37  OD1       15.2050   16.9810    8.4530 O.co2 142  ASP142     -0.2456
     38  OD2       16.0300   16.5860   10.4570 O.co2 142  ASP142     -0.2456
     39  N         11.9330   19.4560   11.8520 N.am  143  ILE143     -0.1980
     40  CA        10.6620   19.8040   12.4720 C.3   143  ILE143      0.1595
     41  C         10.8750   21.0410   13.3390 C.2   143  ILE143      0.2287
     42  O         11.7290   21.0300   14.2260 O.2   143  ILE143     -0.2864
     43  CB        10.1420   18.6700   13.3950 C.3   143  ILE143      0.0276
     44  CG1        9.9410   17.3740   12.5990 C.3   143  ILE143      0.0022
     45  CG2        8.8430   19.1080   14.0680 C.3   143  ILE143      0.0022
     46  CD1        9.3820   16.2330   13.4380 C.3   143  ILE143      0.0001
     47  N          8.4870   19.6120    8.3290 N.3   179  THR179     -0.1218
     48  CA         7.3560   19.7640    9.2400 C.3   179  THR179      0.1862
     49  C          7.4480   21.0880    9.9990 C.2   179  THR179      0.2287
     50  O          8.3880   21.3280   10.7650 O.2   179  THR179     -0.2866
     51  CB         7.2650   18.6130   10.2700 C.3   179  THR179      0.1770
     52  OG1        7.0780   17.3600    9.5940 O.3   179  THR179     -0.2211
     53  CG2        6.0940   18.8480   11.2120 C.3   179  THR179      0.0375
     54  N          3.0690   19.6650    6.8310 N.3   202  GLN202     -0.1245
     55  CA         4.0810   18.6270    6.6770 C.3   202  GLN202      0.1566
     56  C          4.2310   18.1750    5.2310 C.2   202  GLN202      0.2260
     57  O          3.2530   17.8170    4.5780 O.2   202  GLN202     -0.2867
     58  CB         3.7310   17.4170    7.5500 C.3   202  GLN202      0.0367
     59  CG         4.7830   16.3240    7.5410 C.3   202  GLN202      0.0905
     60  CD         4.4950   15.2290    8.5530 C.2   202  GLN202      0.2608
     61  OE1        3.6950   14.3370    8.2970 O.2   202  GLN202     -0.2717
     62  NE2        5.1420   15.3060    9.7210 N.am  202  GLN202     -0.0878
     63  N          6.0870   15.4990    2.6120 N.3   204  ARG204     -0.1245
     64  CA         6.6970   14.1820    2.6270 C.3   204  ARG204      0.1563
     65  C          6.5450   13.4990    1.2760 C.2   204  ARG204      0.2260
     66  O          5.6420   13.8150    0.5010 O.2   204  ARG204     -0.2867
     67  CB         6.0570   13.3270    3.7300 C.3   204  ARG204      0.0307
     68  CG         4.5930   13.0280    3.5110 C.3   204  ARG204      0.0489
     69  CD         3.8470   12.8480    4.8310 C.3   204  ARG204      0.2205
     70  NE         2.4370   12.5490    4.5990 N.pl3 204  ARG204     -0.0865
     71  CZ         1.4330   13.0080    5.3410 C.cat 204  ARG204      0.5346
     72  NH1        1.6680   13.7970    6.3830 N.pl3 204  ARG204      0.1354
     73  NH2        0.1840   12.6910    5.0250 N.pl3 204  ARG204      0.1354
     74  N          4.8790   12.2860   16.1260 N.3   242  THR242     -0.1203
     75  CA         5.1250   12.2390   14.6910 C.3   242  THR242      0.1994
     76  C          5.9390   10.9690   14.4400 C.2   242  THR242      0.2617
     77  O          5.8830   10.3900   13.3580 O.2   242  THR242     -0.2717
     78  CB         5.9210   13.4560   14.1650 C.3   242  THR242      0.1784
     79  OG1        7.1220   13.6220   14.9300 O.3   242  THR242     -0.2211
     80  CG2        5.0590   14.7200   14.2230 C.3   242  THR242      0.0376
     81  N          6.6970   10.5370   15.4490 N.am  243  HIS243     -0.1975
     82  CA         7.5060    9.3180   15.3350 C.3   243  HIS243      0.1656
     83  C          6.5870    8.0930   15.2250 C.2   243  HIS243      0.2291
     84  O          6.8910    7.1340   14.5210 O.2   243  HIS243     -0.2864
     85  CB         8.4140    9.1540   16.5680 C.3   243  HIS243      0.0771
     86  CG         9.1370    7.8410   16.6130 C.ar  243  HIS243      0.0820
     87  ND1       10.2840    7.5940   15.8880 N.ar  243  HIS243     -0.2267
     88  CD2        8.8430    6.6830   17.2530 C.ar  243  HIS243      0.1154
     89  CE1       10.6650    6.3440   16.0800 C.ar  243  HIS243      0.1986
     90  NE2        9.8070    5.7690   16.9040 N.ar  243  HIS243     -0.2212
     91  N          4.1750    8.9510   11.5140 N.3   246  PRO246     -0.2102
     92  CA         4.9880    9.7260   10.5720 C.3   246  PRO246      0.1504
     93  C          4.3020   10.3150    9.3490 C.2   246  PRO246      0.2575
     94  O          4.7450   11.3370    8.8220 O.2   246  PRO246     -0.2718
     95  CB         6.1080    8.7540   10.2030 C.3   246  PRO246      0.0282
     96  CG         5.4400    7.4280   10.2760 C.3   246  PRO246      0.0208
     97  CD         4.5920    7.5380   11.5330 C.3   246  PRO246      0.0893
     98  N          3.2250    9.6880    8.8980 N.am  247  ASN247     -0.1975
     99  CA         2.5350   10.1900    7.7190 C.3   247  ASN247      0.1688
    100  C          1.1640   10.7470    8.0310 C.2   247  ASN247      0.2292
    101  O          0.3390   10.8910    7.1410 O.2   247  ASN247     -0.2864
    102  CB         2.4130    9.0770    6.6800 C.3   247  ASN247      0.1181
    103  CG         3.7630    8.6010    6.1880 C.2   247  ASN247      0.2629
    104  OD1        4.5750    9.3960    5.7110 O.2   247  ASN247     -0.2716
    105  ND2        4.0140    7.3020    6.3050 N.am  247  ASN247     -0.0877
@<TRIPOS>BOND
     1    66    65    2
     2    65    64    1
     3    63    64    1
     4    64    67    1
     5    68    67    1
     6    68    69    1
     7    23    21    1
     8    57    56    2
     9    70    69    1
    10    70    71    2
    11    73    71    1
    12    22    21    1
    13    56    55    1
    14    71    72    1
    15    21    20    2
    16   104   103    2
    17   103   105   am
    18   103   102    1
    19    20    19    1
    20    55    54    1
    21    55    58    1
    22   102    99    1
    23   101   100    2
    24    18    19    1
    25    18    17    1
    26    59    58    1
    27    59    60    1
    28    99   100    1
    29    99    98    1
    30    61    60    2
    31    47    48    1
    32    13    14    1
    33    37    36   ar
    34    60    62   am
    35    14    17    1
    36    14    15    1
    37    94    93    2
    38    98    93   am
    39    48    49    1
    40    48    51    1
    41    93    92    1
    42    52    51    1
    43    36    35    1
    44    36    38   ar
    45    34    33    2
    46    15    16    2
    47    49    50    2
    48    32    35    1
    49    32    33    1
    50    32    31    1
    51    95    96    1
    52    95    92    1
    53    51    53    1
    54    96    97    1
    55    92    91    1
    56    33    39   am
    57    91    97    1
    58    30    28    1
    59    39    40    1
    60    40    41    1
    61    40    43    1
    62    44    43    1
    63    44    46    1
    64    24    25    1
    65    25    28    1
    66    25    26    1
    67    28    29    1
    68    41    42    2
    69    77    76    2
    70    43    45    1
    71    26    27    2
    72    78    80    1
    73    78    75    1
    74    78    79    1
    75    76    75    1
    76    76    81   am
    77    84    83    2
    78    75    74    1
    79    12    11    1
    80    83    82    1
    81    82    81    1
    82    82    85    1
    83    10    11   ar
    84    10     8   ar
    85    11     9   ar
    86    87    89   ar
    87    87    86   ar
    88    89    90   ar
    89     8     6   ar
    90     9     7   ar
    91    85    86    1
    92    86    88   ar
    93     1     2    1
    94    90    88   ar
    95     6     7   ar
    96     6     5    1
    97     2     5    1
    98     2     3    1
    99     3     4    2
