@<TRIPOS>MOLECULE
tmp/4eohB00.pdb
 114 107 0 0 0
SMALL
GASTEIGER

@<TRIPOS>ATOM
      1  N         19.0390   20.8790   26.3700 N.3     8  GLN8       -0.1231
      2  CA        18.2410   21.9580   26.9450 C.3     8  GLN8        0.1698
      3  C         18.5620   22.2440   28.4160 C.2     8  GLN8        0.2592
      4  O         19.3440   21.5370   29.0560 O.2     8  GLN8       -0.2718
      5  CB        16.7540   21.6250   26.8410 C.3     8  GLN8        0.0381
      6  CG        16.2540   21.2290   25.4500 C.3     8  GLN8        0.0905
      7  CD        14.7720   20.9150   25.4880 C.2     8  GLN8        0.2608
      8  OE1       13.9690   21.7710   25.8390 O.2     8  GLN8       -0.2717
      9  NE2       14.4060   19.6810   25.1510 N.am    8  GLN8       -0.0878
     10  N         17.9110   23.2790   28.9370 N.am    9  SER9       -0.1952
     11  CA        18.0680   23.7220   30.3120 C.3     9  SER9        0.1924
     12  C         17.5910   22.7160   31.3410 C.2     9  SER9        0.2314
     13  O         16.7040   21.9000   31.0780 O.2     9  SER9       -0.2863
     14  CB        17.2940   25.0220   30.5370 C.3     9  SER9        0.2116
     15  OG        17.7560   26.0510   29.6830 O.3     9  SER9       -0.2180
     16  N         16.5780   22.4760   35.6170 N.3    11  VAL11      -0.1245
     17  CA        16.2620   23.1830   36.8460 C.3    11  VAL11       0.1561
     18  C         16.1510   22.1320   37.9460 C.2    11  VAL11       0.2260
     19  O         15.8090   20.9770   37.6730 O.2    11  VAL11      -0.2867
     20  CB        14.9160   23.9340   36.7620 C.3    11  VAL11       0.0252
     21  CG1       15.0490   25.1510   35.8540 C.3    11  VAL11       0.0019
     22  CG2       13.8200   22.9900   36.2550 C.3    11  VAL11       0.0019
     23  N         10.8150   22.5960   33.0690 N.3    16  VAL16      -0.1231
     24  CA        11.0550   23.3910   31.8700 C.3    16  VAL16       0.1692
     25  C         12.2680   22.7550   31.2200 C.2    16  VAL16       0.2592
     26  O         13.0050   22.0340   31.8820 O.2    16  VAL16      -0.2718
     27  CB        11.3910   24.8690   32.1990 C.3    16  VAL16       0.0266
     28  CG1       10.2280   25.5000   32.9280 C.3    16  VAL16       0.0020
     29  CG2       12.6750   24.9510   33.0500 C.3    16  VAL16       0.0020
     30  N         12.4750   23.0200   29.9350 N.am   17  GLY17      -0.1957
     31  CA        13.6090   22.4430   29.2490 C.3    17  GLY17       0.1869
     32  C         13.6470   20.9280   29.3550 C.2    17  GLY17       0.2309
     33  O         12.6400   20.2510   29.1410 O.2    17  GLY17      -0.2863
     34  N         22.1500   24.3790   31.0610 N.3    38  VAL38      -0.1245
     35  CA        22.2090   25.2280   32.2490 C.3    38  VAL38       0.1561
     36  C         21.6380   24.4510   33.4350 C.2    38  VAL38       0.2260
     37  O         20.8090   23.5550   33.2610 O.2    38  VAL38      -0.2867
     38  CB        21.3700   26.5400   32.1350 C.3    38  VAL38       0.0252
     39  CG1       21.6120   27.2190   30.8080 C.3    38  VAL38       0.0019
     40  CG2       19.8930   26.2450   32.3520 C.3    38  VAL38       0.0019
     41  N         19.9130   25.5260   36.9170 N.3    40  PHE40      -0.1241
     42  CA        19.4000   26.5640   37.7840 C.3    40  PHE40       0.1605
     43  C         18.5140   25.9600   38.8380 C.2    40  PHE40       0.2264
     44  O         18.0090   24.8420   38.6830 O.2    40  PHE40      -0.2867
     45  CB        18.6120   27.5880   36.9580 C.3    40  PHE40       0.0534
     46  CG        19.4790   28.5930   36.2640 C.ar   40  PHE40      -0.0203
     47  CD1       20.6320   28.1950   35.6000 C.ar   40  PHE40      -0.0042
     48  CD2       19.1690   29.9490   36.3140 C.ar   40  PHE40      -0.0042
     49  CE1       21.4710   29.1320   35.0010 C.ar   40  PHE40      -0.0003
     50  CE2       20.0000   30.8940   35.7190 C.ar   40  PHE40      -0.0003
     51  CZ        21.1540   30.4840   35.0630 C.ar   40  PHE40      -0.0000
     52  N         15.6080   26.9400   39.6860 N.3    42  ASN42      -0.1225
     53  CA        14.2340   26.9500   39.2010 C.3    42  ASN42       0.1785
     54  C         14.1950   27.8560   37.9670 C.2    42  ASN42       0.2597
     55  O         15.1980   28.4810   37.6420 O.2    42  ASN42      -0.2718
     56  CB        13.3360   27.5210   40.2930 C.3    42  ASN42       0.1169
     57  CG        13.9400   28.7630   40.9390 C.2    42  ASN42       0.2627
     58  OD1       14.6150   28.6810   41.9680 O.2    42  ASN42      -0.2716
     59  ND2       13.7260   29.9140   40.3150 N.am   42  ASN42      -0.0877
     60  N         13.0560   27.9550   37.2830 N.am   43  HIS43      -0.1961
     61  CA        13.0240   28.8100   36.0910 C.3    43  HIS43       0.1787
     62  C         13.0620   30.3060   36.4330 C.2    43  HIS43       0.2620
     63  O         12.6640   30.7180   37.5280 O.2    43  HIS43      -0.2715
     64  CB        11.8230   28.4570   35.1810 C.3    43  HIS43       0.0785
     65  CG        10.4810   28.8380   35.7260 C.ar   43  HIS43       0.0821
     66  ND1       10.0980   30.1480   35.9200 N.ar   43  HIS43      -0.2267
     67  CD2        9.4070   28.0810   36.0560 C.ar   43  HIS43       0.1154
     68  CE1        8.8470   30.1820   36.3450 C.ar   43  HIS43       0.1986
     69  NE2        8.4040   28.9410   36.4360 N.ar   43  HIS43      -0.2212
     70  N         13.5570   31.1120   35.4960 N.am   44  THR44      -0.1951
     71  CA        13.6940   32.5540   35.7030 C.3    44  THR44       0.1897
     72  C         12.3990   33.3340   35.8980 C.2    44  THR44       0.2313
     73  O         12.4290   34.5550   36.0080 O.2    44  THR44      -0.2863
     74  CB        14.4820   33.2090   34.5550 C.3    44  THR44       0.1794
     75  OG1       13.7540   33.0680   33.3300 O.3    44  THR44      -0.2208
     76  CG2       15.8510   32.5460   34.4060 C.3    44  THR44       0.0378
     77  N         15.1620   26.4400   23.9220 N.3    81  TYR81      -0.1241
     78  CA        15.7540   27.6900   24.3730 C.3    81  TYR81       0.1605
     79  C         17.2720   27.6190   24.4190 C.2    81  TYR81       0.2264
     80  O         17.8440   26.7650   25.1000 O.2    81  TYR81      -0.2867
     81  CB        15.2360   28.0620   25.7610 C.3    81  TYR81       0.0534
     82  CG        15.9820   29.2230   26.3780 C.ar   81  TYR81      -0.0201
     83  CD1       15.6830   30.5380   26.0260 C.ar   81  TYR81      -0.0009
     84  CD2       17.0160   29.0020   27.2900 C.ar   81  TYR81      -0.0009
     85  CE1       16.3940   31.6070   26.5690 C.ar   81  TYR81       0.0417
     86  CE2       17.7340   30.0580   27.8360 C.ar   81  TYR81       0.0417
     87  CZ        17.4190   31.3560   27.4730 C.ar   81  TYR81       0.1957
     88  OH        18.1270   32.3990   28.0180 O.3    81  TYR81      -0.2866
     89  N         13.3180   29.1380   19.8040 N.3   112  VAL112     -0.1245
     90  CA        12.9570   30.1600   20.7800 C.3   112  VAL112      0.1561
     91  C         13.6750   31.4830   20.5310 C.2   112  VAL112      0.2260
     92  O         14.9020   31.5500   20.5380 O.2   112  VAL112     -0.2867
     93  CB        13.2500   29.6640   22.2120 C.3   112  VAL112      0.0252
     94  CG1       12.7950   30.6910   23.2150 C.3   112  VAL112      0.0019
     95  CG2       12.5370   28.3280   22.4540 C.3   112  VAL112      0.0019
     96  N          5.1270   27.8340   32.2540 N.3   228  VAL228     -0.1231
     97  CA         6.4700   27.7760   31.7170 C.3   228  VAL228      0.1692
     98  C          6.7550   26.3130   31.3740 C.2   228  VAL228      0.2592
     99  O          6.3100   25.4070   32.0760 O.2   228  VAL228     -0.2718
    100  CB         7.4940   28.2920   32.7600 C.3   228  VAL228      0.0266
    101  CG1        8.9020   28.2770   32.1730 C.3   228  VAL228      0.0020
    102  CG2        7.1180   29.7060   33.1960 C.3   228  VAL228      0.0020
    103  N          7.4810   26.0880   30.2860 N.am  229  GLY229     -0.1957
    104  CA         7.8090   24.7320   29.8850 C.3   229  GLY229      0.1869
    105  C          6.8140   24.0680   28.9440 C.2   229  GLY229      0.2309
    106  O          7.0810   22.9710   28.4630 O.2   229  GLY229     -0.2863
    107  N          8.3260   23.5090   25.5760 N.3   232  ASP232     -0.1239
    108  CA         9.3390   22.4540   25.6050 C.3   232  ASP232      0.1674
    109  C          8.6180   21.1020   25.5670 C.2   232  ASP232      0.2266
    110  O          9.0470   20.1690   24.8910 O.2   232  ASP232     -0.2867
    111  CB        10.1820   22.5360   26.8860 C.3   232  ASP232      0.1410
    112  CG        10.8250   23.8990   27.0930 C.2   232  ASP232      0.3668
    113  OD1       11.4720   24.4270   26.1610 O.co2 232  ASP232     -0.2456
    114  OD2       10.6960   24.4370   28.2070 O.co2 232  ASP232     -0.2456
@<TRIPOS>BOND
     1    89    90    1
     2    91    92    2
     3    91    90    1
     4    90    93    1
     5    93    95    1
     6    93    94    1
     7    77    78    1
     8    78    79    1
     9    78    81    1
    10    79    80    2
    11   110   109    2
    12     9     7   am
    13     6     7    1
    14     6     5    1
    15     7     8    2
    16   109   108    1
    17   107   108    1
    18   108   111    1
    19    81    82    1
    20    83    82   ar
    21    83    85   ar
    22   113   112   ar
    23     1     2    1
    24    82    84   ar
    25    85    87   ar
    26     5     2    1
    27   111   112    1
    28     2     3    1
    29   112   114   ar
    30    84    86   ar
    31    87    86   ar
    32    87    88    1
    33     3    10   am
    34     3     4    2
    35   106   105    2
    36    10    11    1
    37   105   104    1
    38    33    32    2
    39    31    32    1
    40    31    30    1
    41    15    14    1
    42   104   103    1
    43    30    25   am
    44   103    98   am
    45    11    14    1
    46    11    12    1
    47    39    38    1
    48    34    35    1
    49    13    12    2
    50    25    24    1
    51    25    26    2
    52    98    97    1
    53    98    99    2
    54    97    96    1
    55    97   100    1
    56    24    27    1
    57    24    23    1
    58    38    35    1
    59    38    40    1
    60   101   100    1
    61    27    28    1
    62    27    29    1
    63    35    36    1
    64   100   102    1
    65    37    36    2
    66    75    74    1
    67    76    74    1
    68    74    71    1
    69    49    51   ar
    70    49    47   ar
    71    51    50   ar
    72    64    65    1
    73    64    61    1
    74    70    71    1
    75    70    62   am
    76    47    46   ar
    77    16    17    1
    78    71    72    1
    79    50    48   ar
    80    65    66   ar
    81    65    67   ar
    82    21    20    1
    83    72    73    2
    84    66    68   ar
    85    67    69   ar
    86    61    62    1
    87    61    60    1
    88    22    20    1
    89    46    48   ar
    90    46    45    1
    91    68    69   ar
    92    62    63    2
    93    20    17    1
    94    17    18    1
    95    41    42    1
    96    45    42    1
    97    60    54   am
    98    55    54    2
    99    19    18    2
   100    42    43    1
   101    54    53    1
   102    44    43    2
   103    53    52    1
   104    53    56    1
   105    56    57    1
   106    59    57   am
   107    57    58    2
