@<TRIPOS>MOLECULE
tmp/4eoiC00.pdb
 157 151 0 0 0
SMALL
GASTEIGER

@<TRIPOS>ATOM
      1  N        -28.4220  -19.1770  -35.4100 N.3    11  ILE11      -0.1231
      2  CA       -29.7620  -19.7340  -35.2010 C.3    11  ILE11       0.1692
      3  C        -30.6150  -19.6390  -36.4640 C.2    11  ILE11       0.2593
      4  O        -31.2170  -20.6310  -36.8840 O.2    11  ILE11      -0.2718
      5  CB       -30.4850  -19.0840  -33.9940 C.3    11  ILE11       0.0266
      6  CG1      -29.7810  -19.4730  -32.6920 C.3    11  ILE11       0.0019
      7  CG2      -31.9550  -19.5140  -33.9420 C.3    11  ILE11       0.0020
      8  CD1      -30.2030  -18.6610  -31.4920 C.3    11  ILE11       0.0001
      9  N        -30.6640  -18.4550  -37.0650 N.am   12  GLY12      -0.1942
     10  CA       -31.3930  -18.2630  -38.3160 C.3    12  GLY12       0.2014
     11  C        -31.7660  -16.8190  -38.5830 C.2    12  GLY12       0.2639
     12  O        -31.2460  -15.9010  -37.9420 O.2    12  GLY12      -0.2714
     13  N        -32.6730  -16.6240  -39.5380 N.am   13  GLU13      -0.1963
     14  CA       -33.1190  -15.2890  -39.9310 C.3    13  GLU13       0.1733
     15  C        -34.5740  -15.0630  -39.5450 C.2    13  GLU13       0.2616
     16  O        -35.4690  -15.7990  -39.9760 O.2    13  GLU13      -0.2715
     17  CB       -32.9380  -15.0710  -41.4370 C.3    13  GLU13       0.0429
     18  CG       -31.5070  -15.2360  -41.9340 C.3    13  GLU13       0.1163
     19  CD       -31.3510  -14.8960  -43.4070 C.2    13  GLU13       0.3649
     20  OE1      -31.6020  -13.7310  -43.7880 O.co2  13  GLU13      -0.2457
     21  OE2      -30.9630  -15.7950  -44.1830 O.co2  13  GLU13      -0.2457
     22  N        -34.8010  -14.0440  -38.7240 N.am   14  GLY14      -0.1955
     23  CA       -36.1510  -13.6370  -38.3640 C.3    14  GLY14       0.1869
     24  C        -36.7000  -12.6410  -39.3620 C.2    14  GLY14       0.2309
     25  O        -36.3810  -12.7050  -40.5560 O.2    14  GLY14      -0.2863
     26  N        -29.7970  -14.0460  -36.5160 N.3    19  VAL19      -0.1245
     27  CA       -29.7270  -14.3500  -35.0830 C.3    19  VAL19       0.1561
     28  C        -28.6630  -15.4070  -34.7550 C.2    19  VAL19       0.2260
     29  O        -28.5810  -16.4510  -35.4060 O.2    19  VAL19      -0.2867
     30  CB       -31.1180  -14.7380  -34.5060 C.3    19  VAL19       0.0252
     31  CG1      -31.0360  -15.0450  -33.0100 C.3    19  VAL19       0.0019
     32  CG2      -32.1110  -13.6170  -34.7380 C.3    19  VAL19       0.0019
     33  N        -28.5040  -13.8640  -27.1200 N.3    32  ALA32      -0.1245
     34  CA       -28.7700  -13.8970  -28.5530 C.3    32  ALA32       0.1562
     35  C        -28.2420  -12.6100  -29.1860 C.2    32  ALA32       0.2260
     36  O        -28.4200  -11.5210  -28.6340 O.2    32  ALA32      -0.2867
     37  CB       -30.2600  -14.0560  -28.8310 C.3    32  ALA32       0.0290
     38  N        -28.4940  -10.3060  -32.6460 N.3    34  LYS34      -0.1245
     39  CA       -29.1580  -10.0400  -33.9150 C.3    34  LYS34       0.1561
     40  C        -28.2840   -9.0930  -34.7330 C.2    34  LYS34       0.2260
     41  O        -28.1180   -7.9260  -34.3770 O.2    34  LYS34      -0.2867
     42  CB       -30.5430   -9.4430  -33.6780 C.3    34  LYS34       0.0271
     43  CG       -31.5040   -9.5650  -34.8450 C.3    34  LYS34       0.0035
     44  CD       -32.8250   -8.9120  -34.4700 C.3    34  LYS34       0.0206
     45  CE       -34.0000   -9.6680  -35.0330 C.3    34  LYS34       0.1093
     46  NZ       -35.2640   -9.1370  -34.4720 N.3    34  LYS34      -0.1314
     47  N        -39.4170  -10.1310  -24.5000 N.3    65  VAL65      -0.1245
     48  CA       -37.9900  -10.4410  -24.5680 C.3    65  VAL65       0.1561
     49  C        -37.1560   -9.2180  -24.1680 C.2    65  VAL65       0.2260
     50  O        -37.4560   -8.0910  -24.5630 O.2    65  VAL65      -0.2867
     51  CB       -37.5980  -10.9720  -25.9830 C.3    65  VAL65       0.0252
     52  CG1      -37.7230   -9.8840  -27.0330 C.3    65  VAL65       0.0019
     53  CG2      -36.2020  -11.5870  -25.9910 C.3    65  VAL65       0.0019
     54  N        -29.7340   -9.6810  -26.8100 N.3    81  PHE81      -0.1227
     55  CA       -30.9100  -10.1390  -26.0860 C.3    81  PHE81       0.1736
     56  C        -30.5060  -11.1690  -25.0540 C.2    81  PHE81       0.2595
     57  O        -29.4860  -11.8340  -25.2020 O.2    81  PHE81      -0.2718
     58  CB       -31.9010  -10.8190  -27.0320 C.3    81  PHE81       0.0547
     59  CG       -32.4720   -9.9200  -28.0870 C.ar   81  PHE81      -0.0202
     60  CD1      -31.9280   -9.9030  -29.3680 C.ar   81  PHE81      -0.0042
     61  CD2      -33.5810   -9.1250  -27.8160 C.ar   81  PHE81      -0.0042
     62  CE1      -32.4730   -9.0920  -30.3700 C.ar   81  PHE81      -0.0003
     63  CE2      -34.1250   -8.3010  -28.8030 C.ar   81  PHE81      -0.0003
     64  CZ       -33.5730   -8.2920  -30.0870 C.ar   81  PHE81      -0.0000
     65  N        -31.3220  -11.3060  -24.0160 N.am   82  GLU82      -0.1965
     66  CA       -31.2450  -12.4620  -23.1360 C.3    82  GLU82       0.1733
     67  C        -31.5160  -13.7090  -23.9820 C.2    82  GLU82       0.2616
     68  O        -32.2930  -13.6570  -24.9390 O.2    82  GLU82      -0.2715
     69  CB       -32.2870  -12.3560  -22.0190 C.3    82  GLU82       0.0429
     70  CG       -33.7320  -12.3450  -22.5340 C.3    82  GLU82       0.1163
     71  CD       -34.7700  -12.3260  -21.4320 C.2    82  GLU82       0.3649
     72  OE1      -34.4320  -12.6310  -20.2650 O.co2  82  GLU82      -0.2457
     73  OE2      -35.9350  -12.0030  -21.7440 O.co2  82  GLU82      -0.2457
     74  N        -30.8580  -14.8120  -23.6460 N.am   83  PHE83      -0.1960
     75  CA       -31.1040  -16.0820  -24.3190 C.3    83  PHE83       0.1771
     76  C        -31.9830  -16.9370  -23.4220 C.2    83  PHE83       0.2619
     77  O        -31.7260  -17.0520  -22.2210 O.2    83  PHE83      -0.2715
     78  CB       -29.7870  -16.8010  -24.6210 C.3    83  PHE83       0.0574
     79  CG       -29.9120  -17.9000  -25.6390 C.ar   83  PHE83      -0.0200
     80  CD1      -29.9060  -17.6080  -26.9980 C.ar   83  PHE83      -0.0042
     81  CD2      -30.0240  -19.2310  -25.2380 C.ar   83  PHE83      -0.0042
     82  CE1      -30.0210  -18.6240  -27.9480 C.ar   83  PHE83      -0.0003
     83  CE2      -30.1440  -20.2560  -26.1780 C.ar   83  PHE83      -0.0003
     84  CZ       -30.1400  -19.9520  -27.5370 C.ar   83  PHE83      -0.0000
     85  N        -33.0200  -17.5250  -24.0090 N.am   84  LEU84      -0.1963
     86  CA       -33.9330  -18.3970  -23.2780 C.3    84  LEU84       0.1728
     87  C        -33.5990  -19.8590  -23.5860 C.2    84  LEU84       0.2616
     88  O        -32.4640  -20.2900  -23.3620 O.2    84  LEU84      -0.2715
     89  CB       -35.3950  -18.0420  -23.5940 C.3    84  LEU84       0.0311
     90  CG       -36.0030  -16.7970  -22.9250 C.3    84  LEU84       0.0022
     91  CD1      -35.3860  -15.5040  -23.4240 C.3    84  LEU84       0.0001
     92  CD2      -37.5070  -16.7540  -23.1320 C.3    84  LEU84       0.0001
     93  N        -34.5670  -20.6160  -24.0950 N.am   85  HIS85      -0.1959
     94  CA       -34.3280  -22.0170  -24.4610 C.3    85  HIS85       0.1787
     95  C        -34.5660  -22.3010  -25.9420 C.2    85  HIS85       0.2620
     96  O        -33.6580  -22.7620  -26.6350 O.2    85  HIS85      -0.2715
     97  CB       -35.1390  -22.9800  -23.5940 C.3    85  HIS85       0.0785
     98  CG       -34.8290  -24.4200  -23.8570 C.ar   85  HIS85       0.0821
     99  ND1      -33.6560  -25.0150  -23.4420 N.ar   85  HIS85      -0.2267
    100  CD2      -35.5260  -25.3780  -24.5130 C.ar   85  HIS85       0.1154
    101  CE1      -33.6490  -26.2800  -23.8220 C.ar   85  HIS85       0.1986
    102  NE2      -34.7730  -26.5260  -24.4740 N.ar   85  HIS85      -0.2212
    103  N        -35.7870  -22.0380  -26.4070 N.am   86  GLN86      -0.1963
    104  CA       -36.1660  -22.2410  -27.8070 C.3    86  GLN86       0.1733
    105  C        -37.4560  -21.4870  -28.1210 C.2    86  GLN86       0.2616
    106  O        -38.1620  -21.0460  -27.2120 O.2    86  GLN86      -0.2715
    107  CB       -36.3420  -23.7360  -28.1140 C.3    86  GLN86       0.0408
    108  CG       -37.5890  -24.3750  -27.4850 C.3    86  GLN86       0.0908
    109  CD       -37.6330  -25.8910  -27.6180 C.2    86  GLN86       0.2608
    110  OE1      -38.4440  -26.5490  -26.9700 O.2    86  GLN86      -0.2717
    111  NE2      -36.7620  -26.4490  -28.4510 N.am   86  GLN86      -0.0878
    112  N        -37.7660  -21.3370  -29.4050 N.am   87  ASP87      -0.1971
    113  CA       -39.0500  -20.7630  -29.7920 C.3    87  ASP87       0.1709
    114  C        -40.1820  -21.7950  -29.6620 C.2    87  ASP87       0.2293
    115  O        -39.9240  -22.9980  -29.5660 O.2    87  ASP87      -0.2864
    116  CB       -38.9920  -20.1200  -31.1920 C.3    87  ASP87       0.1436
    117  CG       -38.6710  -21.1090  -32.2960 C.2    87  ASP87       0.3671
    118  OD1      -39.2490  -22.2180  -32.3090 O.co2  87  ASP87      -0.2456
    119  OD2      -37.8630  -20.7560  -33.1850 O.co2  87  ASP87      -0.2456
    120  N        -42.8330  -19.1430  -34.1110 N.3   132  GLU132     -0.1231
    121  CA       -41.4230  -18.8620  -34.3510 C.3   132  GLU132      0.1699
    122  C        -40.9490  -17.6070  -33.6080 C.2   132  GLU132      0.2592
    123  O        -39.7900  -17.5300  -33.1940 O.2   132  GLU132     -0.2718
    124  CB       -41.1960  -18.7240  -35.8550 C.3   132  GLU132      0.0402
    125  CG       -39.8180  -18.2950  -36.2840 C.3   132  GLU132      0.1161
    126  CD       -39.7310  -18.1090  -37.7830 C.2   132  GLU132      0.3649
    127  OE1      -39.6130  -16.9490  -38.2330 O.co2 132  GLU132     -0.2457
    128  OE2      -39.7970  -19.1230  -38.5120 O.co2 132  GLU132     -0.2457
    129  N        -41.8520  -16.6410  -33.4350 N.am  133  ASN133     -0.1974
    130  CA       -41.5280  -15.3760  -32.7770 C.3   133  ASN133      0.1688
    131  C        -41.8490  -15.3660  -31.2820 C.2   133  ASN133      0.2292
    132  O        -41.8290  -14.3160  -30.6380 O.2   133  ASN133     -0.2864
    133  CB       -42.2270  -14.2050  -33.4790 C.3   133  ASN133      0.1181
    134  CG       -41.6940  -13.9530  -34.8830 C.2   133  ASN133      0.2629
    135  OD1      -40.6170  -14.4240  -35.2590 O.2   133  ASN133     -0.2716
    136  ND2      -42.4490  -13.1920  -35.6630 N.am  133  ASN133     -0.0877
    137  N        -40.9160  -17.1430  -27.5000 N.3   135  LEU135     -0.1245
    138  CA       -39.7850  -17.8110  -26.8660 C.3   135  LEU135      0.1561
    139  C        -40.1170  -18.3070  -25.4650 C.2   135  LEU135      0.2260
    140  O        -40.6980  -17.5790  -24.6630 O.2   135  LEU135     -0.2867
    141  CB       -38.5760  -16.8700  -26.8170 C.3   135  LEU135      0.0270
    142  CG       -38.1710  -16.1890  -28.1270 C.3   135  LEU135      0.0019
    143  CD1      -37.1220  -15.1300  -27.8540 C.3   135  LEU135      0.0001
    144  CD2      -37.6620  -17.1940  -29.1520 C.3   135  LEU135      0.0001
    145  N        -41.3630  -11.8900  -28.9080 N.3   145  ALA145     -0.1231
    146  CA       -40.0780  -11.5090  -29.4730 C.3   145  ALA145      0.1694
    147  C        -40.2110  -11.1490  -30.9470 C.2   145  ALA145      0.2592
    148  O        -41.2700  -11.3410  -31.5480 O.2   145  ALA145     -0.2718
    149  CB       -39.0650  -12.6340  -29.2920 C.3   145  ALA145      0.0304
    150  N        -39.1100  -10.6530  -31.5140 N.am  146  ASP146     -0.1974
    151  CA       -39.0290  -10.1660  -32.8970 C.3   146  ASP146      0.1709
    152  C        -40.0320   -9.0740  -33.2600 C.2   146  ASP146      0.2293
    153  O        -41.0180   -9.3120  -33.9710 O.2   146  ASP146     -0.2864
    154  CB       -39.0880  -11.3000  -33.9340 C.3   146  ASP146      0.1436
    155  CG       -38.5540  -10.8700  -35.2960 C.2   146  ASP146      0.3671
    156  OD1      -38.3730   -9.6530  -35.5160 O.co2 146  ASP146     -0.2456
    157  OD2      -38.3040  -11.7460  -36.1550 O.co2 146  ASP146     -0.2456
@<TRIPOS>BOND
     1    21    19   ar
     2    20    19   ar
     3    19    18    1
     4    18    17    1
     5    17    14    1
     6    25    24    2
     7    16    15    2
     8    14    15    1
     9    14    13    1
    10    15    22   am
    11    13    11   am
    12    24    23    1
    13    22    23    1
    14    11    10    1
    15    11    12    2
    16   128   126   ar
    17    10     9    1
    18   127   126   ar
    19   126   125    1
    20     9     3   am
    21     4     3    2
    22    26    27    1
    23     3     2    1
    24   125   124    1
    25   157   155   ar
    26   124   121    1
    27   136   134   am
    28   156   155   ar
    29     1     2    1
    30    29    28    2
    31   155   154    1
    32   135   134    2
    33     2     5    1
    34    27    28    1
    35    27    30    1
    36    45    46    1
    37    45    44    1
    38   134   133    1
    39    43    44    1
    40    43    42    1
    41    32    30    1
    42    40    41    2
    43    40    39    1
    44    30    31    1
    45   121   120    1
    46   121   122    1
    47     5     7    1
    48     5     6    1
    49   153   152    2
    50   154   151    1
    51    39    42    1
    52    39    38    1
    53   122   129   am
    54   122   123    2
    55   133   130    1
    56   129   130    1
    57   152   151    1
    58   119   117   ar
    59   151   150    1
    60   130   131    1
    61     6     8    1
    62   118   117   ar
    63   117   116    1
    64   148   147    2
    65   150   147   am
    66   131   132    2
    67   116   113    1
    68   147   146    1
    69    62    64   ar
    70    62    60   ar
    71    64    63   ar
    72   113   114    1
    73   113   112    1
    74   114   115    2
    75   146   149    1
    76   146   145    1
    77   112   105   am
    78    60    59   ar
    79    35    36    2
    80    35    34    1
    81   144   142    1
    82    37    34    1
    83    63    61   ar
    84    34    33    1
    85   111   109   am
    86   142   143    1
    87   142   141    1
    88   105   104    1
    89   105   106    2
    90   107   104    1
    91   107   108    1
    92    59    61   ar
    93    59    58    1
    94    82    84   ar
    95    82    80   ar
    96   104   103    1
    97   109   108    1
    98   109   110    2
    99    84    83   ar
   100   137   138    1
   101    52    51    1
   102    58    55    1
   103    80    79   ar
   104   138   141    1
   105   138   139    1
   106    54    55    1
   107    96    95    2
   108   103    95   am
   109    83    81   ar
   110    55    56    1
   111    53    51    1
   112    51    48    1
   113    95    94    1
   114    79    81   ar
   115    79    78    1
   116   139   140    2
   117    57    56    2
   118    56    65   am
   119    68    67    2
   120    78    75    1
   121    48    47    1
   122    48    49    1
   123    50    49    2
   124   100   102   ar
   125   100    98   ar
   126   102   101   ar
   127    94    93    1
   128    94    97    1
   129    75    74    1
   130    75    76    1
   131    93    87   am
   132    65    66    1
   133    85    76   am
   134    85    86    1
   135    67    74   am
   136    67    66    1
   137    98    97    1
   138    98    99   ar
   139   101    99   ar
   140    89    86    1
   141    89    90    1
   142    87    88    2
   143    87    86    1
   144    91    90    1
   145    76    77    2
   146    66    69    1
   147    92    90    1
   148    70    69    1
   149    70    71    1
   150    73    71   ar
   151    71    72   ar
