@<TRIPOS>MOLECULE
tmp/4eoxA00.pdb
 152 146 0 0 0
SMALL
GASTEIGER

@<TRIPOS>ATOM
      1  N         20.9900   -2.3900   -5.0140 N.3    55  SER55      -0.1202
      2  CA        21.2450   -3.6660   -4.3410 C.3    55  SER55       0.2020
      3  C         19.9990   -4.2000   -3.6570 C.2    55  SER55       0.2618
      4  O         19.8960   -5.4190   -3.4520 O.2    55  SER55      -0.2717
      5  CB        22.3840   -3.5080   -3.3270 C.3    55  SER55       0.2103
      6  OG        21.8950   -2.9440   -2.1180 O.3    55  SER55      -0.2182
      7  N         19.0670   -3.3330   -3.2610 N.am   56  GLN56      -0.1979
      8  CA        17.8350   -3.7320   -2.5890 C.3    56  GLN56       0.1601
      9  C         16.6900   -3.9170   -3.5690 C.2    56  GLN56       0.2287
     10  O         15.6030   -4.3260   -3.1460 O.2    56  GLN56      -0.2864
     11  CB        17.4440   -2.6860   -1.5500 C.3    56  GLN56       0.0394
     12  CG        18.3990   -2.6410   -0.3560 C.3    56  GLN56       0.0908
     13  CD        18.0220   -1.6010    0.6780 C.2    56  GLN56       0.2608
     14  OE1       16.8490   -1.1490    0.7620 O.2    56  GLN56      -0.2717
     15  NE2       18.9980   -1.2520    1.5380 N.am   56  GLN56      -0.0878
     16  N         25.0660   -8.0060   -4.2210 N.3    67  ARG67      -0.1231
     17  CA        24.7060   -8.4220   -2.8560 C.3    67  ARG67       0.1694
     18  C         23.9400   -7.2770   -2.1800 C.2    67  ARG67       0.2593
     19  O         24.4650   -6.1530   -2.0700 O.2    67  ARG67      -0.2718
     20  CB        25.9920   -8.6040   -2.0530 C.3    67  ARG67       0.0321
     21  CG        26.6610   -9.9860   -2.1290 C.3    67  ARG67       0.0489
     22  CD        27.9020  -10.0500   -1.1700 C.3    67  ARG67       0.2205
     23  NE        27.5700  -10.4140    0.2170 N.pl3  67  ARG67      -0.0865
     24  CZ        28.4390  -10.5130    1.2310 C.cat  67  ARG67       0.5346
     25  NH1       29.7340  -10.2710    1.0680 N.pl3  67  ARG67       0.1354
     26  NH2       28.0060  -10.8530    2.4470 N.pl3  67  ARG67       0.1354
     27  N         22.7120   -7.5560   -1.7370 N.am   68  GLY68      -0.1942
     28  CA        21.9100   -6.5120   -1.1190 C.3    68  GLY68       0.2014
     29  C         22.5810   -5.9750    0.1260 C.2    68  GLY68       0.2639
     30  O         23.0330   -6.7410    0.9950 O.2    68  GLY68      -0.2714
     31  N         22.5750   -4.6440    0.2620 N.am   69  GLY69      -0.1939
     32  CA        23.2750   -4.0090    1.3740 C.3    69  GLY69       0.2014
     33  C         22.4740   -2.8540    1.9350 C.2    69  GLY69       0.2639
     34  O         21.6020   -2.2660    1.2630 O.2    69  GLY69      -0.2714
     35  N         22.7160   -2.6050    3.2430 N.am   70  VAL70      -0.1963
     36  CA        22.0950   -1.5000    3.9770 C.3    70  VAL70       0.1727
     37  C         23.0590   -0.3600    4.2680 C.2    70  VAL70       0.2616
     38  O         22.6500    0.6480    4.8550 O.2    70  VAL70      -0.2715
     39  CB        21.3210   -1.9330    5.2480 C.3    70  VAL70       0.0290
     40  CG1       20.0910   -2.8490    4.8920 C.3    70  VAL70       0.0023
     41  CG2       22.2360   -2.5720    6.2890 C.3    70  VAL70       0.0023
     42  N         24.3080   -0.4760    3.8770 N.am   71  GLY71      -0.1955
     43  CA        25.2840    0.5570    4.2200 C.3    71  GLY71       0.1869
     44  C         26.5050    0.3500    3.3640 C.2    71  GLY71       0.2309
     45  O         26.7380   -0.7480    2.8620 O.2    71  GLY71      -0.2863
     46  N         35.4650    1.1080    1.3750 N.3    76  GLN76      -0.1245
     47  CA        35.1160   -0.1580    0.7220 C.3    76  GLN76       0.1566
     48  C         35.2100   -0.0470   -0.7990 C.2    76  GLN76       0.2260
     49  O         35.0830   -1.0790   -1.4640 O.2    76  GLN76      -0.2867
     50  CB        33.7120   -0.5810    1.1200 C.3    76  GLN76       0.0367
     51  CG        33.5750   -1.0330    2.6120 C.3    76  GLN76       0.0905
     52  CD        32.1740   -1.4510    2.8720 C.2    76  GLN76       0.2608
     53  OE1       31.3050   -0.5950    2.9990 O.2    76  GLN76      -0.2717
     54  NE2       31.9010   -2.7400    2.8400 N.am   76  GLN76      -0.0878
     55  N         15.6090   -0.3860    5.0000 N.3    89  PRO89      -0.2116
     56  CA        14.2300   -0.3800    4.5040 C.3    89  PRO89       0.1372
     57  C         13.2220   -0.4870    5.6350 C.2    89  PRO89       0.2244
     58  O         13.4920   -1.0170    6.7320 O.2    89  PRO89      -0.2868
     59  CB        14.1820   -1.5790    3.5430 C.3    89  PRO89       0.0268
     60  CG        15.3110   -2.5040    4.0370 C.3    89  PRO89       0.0207
     61  CD        16.3800   -1.5490    4.5020 C.3    89  PRO89       0.0892
     62  N         23.3750   -7.5860   17.0900 N.3   114  LEU114     -0.1245
     63  CA        22.3520   -8.2830   16.3290 C.3   114  LEU114      0.1561
     64  C         22.3960   -9.7610   16.6860 C.2   114  LEU114      0.2260
     65  O         23.4760  -10.3490   16.7490 O.2   114  LEU114     -0.2867
     66  CB        22.6220   -8.1500   14.8190 C.3   114  LEU114      0.0270
     67  CG        22.4220   -6.7140   14.2980 C.3   114  LEU114      0.0019
     68  CD1       22.6600   -6.6480   12.7130 C.3   114  LEU114      0.0001
     69  CD2       21.0540   -6.1440   14.6910 C.3   114  LEU114      0.0001
     70  N         26.5790  -10.3440   12.1330 N.3   118  GLU118     -0.1231
     71  CA        26.7510   -9.4130   11.0080 C.3   118  GLU118      0.1699
     72  C         27.5610  -10.0990    9.9140 C.2   118  GLU118      0.2593
     73  O         28.3260  -11.0450   10.1720 O.2   118  GLU118     -0.2718
     74  CB        27.5690   -8.1770   11.4310 C.3   118  GLU118      0.0402
     75  CG        26.8020   -7.3100   12.5150 C.3   118  GLU118      0.1161
     76  CD        27.4630   -5.9730   12.8450 C.2   118  GLU118      0.3649
     77  OE1       28.3510   -5.5180   12.0670 O.co2 118  GLU118     -0.2457
     78  OE2       27.1170   -5.3610   13.9280 O.co2 118  GLU118     -0.2457
     79  N         27.3490   -9.6650    8.6840 N.am  119  GLY119     -0.1942
     80  CA        28.3420   -9.8760    7.6440 C.3   119  GLY119      0.2014
     81  C         28.8640   -8.5580    7.0970 C.2   119  GLY119      0.2639
     82  O         28.5750   -7.4840    7.6580 O.2   119  GLY119     -0.2714
     83  N         29.5800   -8.6000    5.9740 N.am  120  CYS120     -0.1953
     84  CA        30.1550   -7.3840    5.4150 C.3   120  CYS120      0.1843
     85  C         30.2910   -7.5630    3.9080 C.2   120  CYS120      0.2625
     86  O         30.6440   -8.6500    3.4700 O.2   120  CYS120     -0.2714
     87  CB        31.5440   -7.1400    6.0310 C.3   120  CYS120      0.0997
     88  SG        32.3760   -5.5300    5.4890 S.3   120  CYS120     -0.0797
     89  N         30.0280   -6.5000    3.1110 N.am  121  LEU121     -0.1977
     90  CA        30.2580   -6.6500    1.6600 C.3   121  LEU121      0.1596
     91  C         31.7230   -6.8420    1.2980 C.2   121  LEU121      0.2287
     92  O         32.0260   -7.3430    0.2030 O.2   121  LEU121     -0.2864
     93  CB        29.7300   -5.4470    0.8790 C.3   121  LEU121      0.0297
     94  CG        28.2140   -5.2920    0.9360 C.3   121  LEU121      0.0022
     95  CD1       27.7030   -4.2110   -0.0290 C.3   121  LEU121      0.0001
     96  CD2       27.4860   -6.6150    0.7660 C.3   121  LEU121      0.0001
     97  N         18.3820   -1.5120   15.3060 N.3   156  TYR156     -0.1241
     98  CA        19.1450   -1.9300   14.1320 C.3   156  TYR156      0.1605
     99  C         19.8090   -0.7370   13.4840 C.2   156  TYR156      0.2264
    100  O         20.9550   -0.8410   13.0410 O.2   156  TYR156     -0.2867
    101  CB        18.1620   -2.5510   13.1590 C.3   156  TYR156      0.0534
    102  CG        18.7760   -3.0840   11.8610 C.ar  156  TYR156     -0.0201
    103  CD1       19.6270   -4.2010   11.8530 C.ar  156  TYR156     -0.0009
    104  CD2       18.4090   -2.5390   10.6540 C.ar  156  TYR156     -0.0009
    105  CE1       20.1380   -4.6960   10.6280 C.ar  156  TYR156      0.0417
    106  CE2       18.9140   -3.0230    9.4320 C.ar  156  TYR156      0.0417
    107  CZ        19.7540   -4.1120    9.4330 C.ar  156  TYR156      0.1957
    108  OH        20.1960   -4.5940    8.1910 O.3   156  TYR156     -0.2866
    109  N         23.1640   -0.0160   14.8980 N.3   159  ILE159     -0.1231
    110  CA        24.2050   -0.9870   14.5190 C.3   159  ILE159      0.1692
    111  C         24.7380   -0.6680   13.1380 C.2   159  ILE159      0.2591
    112  O         25.9620   -0.6700   12.8980 O.2   159  ILE159     -0.2718
    113  CB        23.5940   -2.4230   14.5690 C.3   159  ILE159      0.0266
    114  CG1       23.0280   -2.8000   15.9670 C.3   159  ILE159      0.0019
    115  CG2       24.5990   -3.5040   14.0780 C.3   159  ILE159      0.0020
    116  CD1       24.0880   -2.9810   17.0080 C.3   159  ILE159      0.0001
    117  N         23.8340   -0.3210   12.2100 N.am  160  VAL160     -0.1980
    118  CA        24.2480   -0.1150   10.8200 C.3   160  VAL160      0.1595
    119  C         25.2070    1.0510   10.7280 C.2   160  VAL160      0.2287
    120  O         26.2900    0.9380   10.1620 O.2   160  VAL160     -0.2864
    121  CB        23.0240    0.1050    9.8850 C.3   160  VAL160      0.0276
    122  CG1       23.5720    0.4860    8.4730 C.3   160  VAL160      0.0022
    123  CG2       22.0770   -1.1330    9.7990 C.3   160  VAL160      0.0022
    124  N         28.6070    0.1110   12.1410 N.3   163  HIS163     -0.1226
    125  CA        29.3900   -0.6830   11.1770 C.3   163  HIS163      0.1752
    126  C         30.0920    0.2200   10.1530 C.2   163  HIS163      0.2595
    127  O         31.3030    0.0890    9.8880 O.2   163  HIS163     -0.2718
    128  CB        28.4150   -1.6910   10.5420 C.3   163  HIS163      0.0759
    129  CG        29.0460   -2.6570    9.5710 C.ar  163  HIS163      0.0818
    130  ND1       29.0640   -4.0140    9.8130 N.ar  163  HIS163     -0.2268
    131  CD2       29.6360   -2.4850    8.3580 C.ar  163  HIS163      0.1154
    132  CE1       29.6480   -4.6380    8.8040 C.ar  163  HIS163      0.1986
    133  NE2       30.0200   -3.7340    7.9240 N.ar  163  HIS163     -0.2212
    134  N         29.3570    1.1780    9.5760 N.am  164  GLU164     -0.1979
    135  CA        30.0070    2.0140    8.5520 C.3   164  GLU164      0.1602
    136  C         31.0730    2.9210    9.1580 C.2   164  GLU164      0.2287
    137  O         32.1180    3.1920    8.5430 O.2   164  GLU164     -0.2864
    138  CB        28.9660    2.8360    7.8120 C.3   164  GLU164      0.0415
    139  CG        27.8320    2.0320    7.2440 C.3   164  GLU164      0.1163
    140  CD        28.2780    0.7950    6.4210 C.2   164  GLU164      0.3649
    141  OE1       29.3960    0.7530    5.8580 O.co2 164  GLU164     -0.2457
    142  OE2       27.4460   -0.1400    6.4010 O.co2 164  GLU164     -0.2457
    143  N         34.2370    1.1880    9.4120 N.3   167  HIS167     -0.1241
    144  CA        34.9810    1.1810    8.1310 C.3   167  HIS167      0.1621
    145  C         35.8750    2.4150    7.9600 C.2   167  HIS167      0.2264
    146  O         37.0040    2.3210    7.4600 O.2   167  HIS167     -0.2867
    147  CB        34.0190    0.9400    6.9210 C.3   167  HIS167      0.0745
    148  CG        33.6120   -0.5140    6.7020 C.ar  167  HIS167      0.0817
    149  ND1       34.5470   -1.5130    6.5930 N.ar  167  HIS167     -0.2268
    150  CD2       32.4170   -1.1140    6.4680 C.ar  167  HIS167      0.1154
    151  CE1       33.9690   -2.6810    6.3650 C.ar  167  HIS167      0.1986
    152  NE2       32.6720   -2.4830    6.2310 N.ar  167  HIS167     -0.2212
@<TRIPOS>BOND
     1     1     2    1
     2     2     3    1
     3     2     5    1
     4    16    17    1
     5     3     4    2
     6     3     7   am
     7     9    10    2
     8     9     8    1
     9     5     6    1
    10     7     8    1
    11    17    18    1
    12    17    20    1
    13     8    11    1
    14    18    19    2
    15    18    27   am
    16    21    20    1
    17    21    22    1
    18    27    28    1
    19    11    12    1
    20    49    48    2
    21    22    23    1
    22    28    29    1
    23    48    47    1
    24    12    13    1
    25    95    94    1
    26    29    31   am
    27    29    30    2
    28    92    91    2
    29    23    24    2
    30    31    32    1
    31    13    14    2
    32    13    15   am
    33    47    50    1
    34    47    46    1
    35    96    94    1
    36    93    94    1
    37    93    90    1
    38    25    24    1
    39    50    51    1
    40    24    26    1
    41    34    33    2
    42    91    90    1
    43    32    33    1
    44    90    89    1
    45    33    35   am
    46    51    52    1
    47    54    52   am
    48    45    44    2
    49    52    53    2
    50    89    85   am
    51    35    36    1
    52    44    43    1
    53    86    85    2
    54    59    60    1
    55    59    56    1
    56    42    43    1
    57    42    37   am
    58    85    84    1
    59    36    37    1
    60    36    39    1
    61    60    61    1
    62    37    38    2
    63    61    55    1
    64    56    55    1
    65    56    57    1
    66    40    39    1
    67    39    41    1
    68    84    83    1
    69    84    87    1
    70    88    87    1
    71    57    58    2
    72   141   140   ar
    73    83    81   am
    74   152   151   ar
    75   152   150   ar
    76   151   149   ar
    77   142   140   ar
    78   140   139    1
    79   150   148   ar
    80   149   148   ar
    81   148   147    1
    82   147   144    1
    83    81    80    1
    84    81    82    2
    85   139   138    1
    86   146   145    2
    87    80    79    1
    88   138   135    1
    89   133   131   ar
    90   133   132   ar
    91   145   144    1
    92   144   143    1
    93   108   107    1
    94   131   129   ar
    95   122   121    1
    96   137   136    2
    97   135   136    1
    98   135   134    1
    99    79    72   am
   100   132   130   ar
   101   106   107   ar
   102   106   104   ar
   103   107   105   ar
   104   129   130   ar
   105   129   128    1
   106   134   126   am
   107   123   121    1
   108   121   118    1
   109   127   126    2
   110    72    73    2
   111    72    71    1
   112   126   125    1
   113   120   119    2
   114   128   125    1
   115   105   103   ar
   116   104   102   ar
   117   119   118    1
   118   118   117    1
   119    71    74    1
   120    71    70    1
   121   125   124    1
   122    74    75    1
   123   103   102   ar
   124   102   101    1
   125    77    76   ar
   126   117   111   am
   127    75    76    1
   128    68    67    1
   129    76    78   ar
   130   112   111    2
   131   100    99    2
   132   111   110    1
   133   101    98    1
   134    99    98    1
   135   115   113    1
   136    98    97    1
   137    67    69    1
   138    67    66    1
   139   110   113    1
   140   110   109    1
   141   113   114    1
   142    66    63    1
   143   114   116    1
   144    63    64    1
   145    63    62    1
   146    64    65    2
