@<TRIPOS>MOLECULE
tmp/4eoyA00.pdb
 166 161 0 0 0
SMALL
GASTEIGER

@<TRIPOS>ATOM
      1  N          2.4980  -29.0640   21.4610 N.3    17  GLU17      -0.1231
      2  CA         2.5750  -29.7310   22.7700 C.3    17  GLU17       0.1699
      3  C          1.3650  -29.3920   23.6050 C.2    17  GLU17       0.2592
      4  O          0.6960  -30.2760   24.1140 O.2    17  GLU17      -0.2718
      5  CB         3.7970  -29.2780   23.5870 C.3    17  GLU17       0.0402
      6  CG         5.1740  -29.5680   23.0150 C.3    17  GLU17       0.1161
      7  CD         6.2720  -29.2110   24.0010 C.2    17  GLU17       0.3649
      8  OE1        6.9600  -28.1840   23.7970 O.co2  17  GLU17      -0.2457
      9  OE2        6.4250  -29.9490   24.9980 O.co2  17  GLU17      -0.2457
     10  N          1.1210  -28.0950   23.7810 N.am   18  THR18      -0.1953
     11  CA         0.0940  -27.6200   24.7100 C.3    18  THR18       0.1897
     12  C         -1.3150  -27.9080   24.1830 C.2    18  THR18       0.2313
     13  O         -2.2330  -28.1920   24.9610 O.2    18  THR18      -0.2863
     14  CB         0.2300  -26.1080   25.0370 C.3    18  THR18       0.1794
     15  OG1        0.1340  -25.3150   23.8400 O.3    18  THR18      -0.2208
     16  CG2        1.5540  -25.8230   25.7210 C.3    18  THR18       0.0378
     17  N         -1.9320  -31.6730   24.8550 N.3    21  ILE21      -0.1245
     18  CA        -2.0260  -31.9240   26.2930 C.3    21  ILE21       0.1561
     19  C         -3.3450  -31.3530   26.8630 C.2    21  ILE21       0.2260
     20  O         -3.9540  -31.9440   27.7670 O.2    21  ILE21      -0.2867
     21  CB        -0.7970  -31.3730   27.0520 C.3    21  ILE21       0.0252
     22  CG1       -0.5530  -32.1790   28.3300 C.3    21  ILE21       0.0019
     23  CG2       -0.9640  -29.8920   27.3620 C.3    21  ILE21       0.0019
     24  CD1       -0.0810  -33.5920   28.0700 C.3    21  ILE21       0.0001
     25  N         -6.5670  -29.8380   33.5120 N.3    28  ARG28      -0.1245
     26  CA        -5.2470  -29.4260   34.0140 C.3    28  ARG28       0.1563
     27  C         -4.6250  -28.3580   33.1070 C.2    28  ARG28       0.2260
     28  O         -4.9170  -28.2990   31.9000 O.2    28  ARG28      -0.2867
     29  CB        -4.3210  -30.6400   34.1290 C.3    28  ARG28       0.0307
     30  CG        -4.7160  -31.6190   35.2330 C.3    28  ARG28       0.0489
     31  CD        -3.6870  -32.7330   35.4180 C.3    28  ARG28       0.2205
     32  NE        -3.8460  -33.4980   36.6730 N.pl3  28  ARG28      -0.0865
     33  CZ        -3.1050  -33.3590   37.7820 C.cat  28  ARG28       0.5346
     34  NH1       -2.1130  -32.4760   37.8570 N.pl3  28  ARG28       0.1354
     35  NH2       -3.3560  -34.1250   38.8400 N.pl3  28  ARG28       0.1354
     36  N         -1.0410  -26.4630   31.6170 N.3    30  PRO30      -0.2102
     37  CA         0.3930  -26.6170   31.4650 C.3    30  PRO30       0.1504
     38  C          1.1520  -25.3780   31.9520 C.2    30  PRO30       0.2575
     39  O          0.9070  -24.2680   31.4640 O.2    30  PRO30      -0.2718
     40  CB         0.5620  -26.8220   29.9540 C.3    30  PRO30       0.0282
     41  CG        -0.6070  -26.1380   29.3430 C.3    30  PRO30       0.0208
     42  CD        -1.7210  -26.2860   30.3180 C.3    30  PRO30       0.0893
     43  N          2.0650  -25.5880   32.8980 N.am   31  VAL31      -0.1980
     44  CA         2.8320  -24.5200   33.5020 C.3    31  VAL31       0.1595
     45  C          4.3140  -24.8230   33.3610 C.2    31  VAL31       0.2287
     46  O          4.7270  -25.9600   33.5820 O.2    31  VAL31      -0.2864
     47  CB         2.4930  -24.3720   34.9920 C.3    31  VAL31       0.0276
     48  CG1        3.3690  -23.3160   35.6310 C.3    31  VAL31       0.0022
     49  CG2        1.0310  -24.0250   35.1610 C.3    31  VAL31       0.0022
     50  N         13.6110  -30.2160   36.5700 N.3    46  LYS46      -0.1245
     51  CA        12.2190  -30.4540   36.1740 C.3    46  LYS46       0.1561
     52  C         11.3730  -29.2040   36.4110 C.2    46  LYS46       0.2260
     53  O         11.1970  -28.7620   37.5570 O.2    46  LYS46      -0.2867
     54  CB        11.6400  -31.6630   36.9220 C.3    46  LYS46       0.0271
     55  CG        11.9790  -32.9850   36.2450 C.3    46  LYS46       0.0035
     56  CD        11.1750  -34.1540   36.7920 C.3    46  LYS46       0.0206
     57  CE        11.9630  -34.9570   37.8140 C.3    46  LYS46       0.1093
     58  NZ        13.0880  -35.7280   37.2150 N.3    46  LYS46      -0.1314
     59  N          8.3450  -28.3880   34.2070 N.3    48  LYS48      -0.1231
     60  CA         7.0410  -28.4410   33.5530 C.3    48  LYS48       0.1693
     61  C          6.0310  -29.0840   34.4950 C.2    48  LYS48       0.2592
     62  O          6.2680  -30.1710   35.0110 O.2    48  LYS48      -0.2718
     63  CB         7.1310  -29.2450   32.2520 C.3    48  LYS48       0.0285
     64  CG         8.1720  -28.7210   31.2810 C.3    48  LYS48       0.0035
     65  CD         7.7000  -28.7050   29.8330 C.3    48  LYS48       0.0206
     66  CE         7.5050  -30.1060   29.2820 C.3    48  LYS48       0.1093
     67  NZ         7.0860  -30.1150   27.8530 N.3    48  LYS48      -0.1314
     68  N          4.9140  -28.3990   34.7060 N.am   49  PHE49      -0.1962
     69  CA         3.8720  -28.8380   35.6080 C.3    49  PHE49       0.1771
     70  C          2.5390  -28.9280   34.8940 C.2    49  PHE49       0.2619
     71  O          2.2320  -28.1010   34.0280 O.2    49  PHE49      -0.2715
     72  CB         3.7320  -27.8370   36.7540 C.3    49  PHE49       0.0574
     73  CG         4.8520  -27.8920   37.7230 C.ar   49  PHE49      -0.0200
     74  CD1        6.0700  -27.3300   37.4100 C.ar   49  PHE49      -0.0042
     75  CD2        4.6950  -28.5410   38.9470 C.ar   49  PHE49      -0.0042
     76  CE1        7.1170  -27.3860   38.3040 C.ar   49  PHE49      -0.0003
     77  CE2        5.7420  -28.6020   39.8520 C.ar   49  PHE49      -0.0003
     78  CZ         6.9560  -28.0200   39.5260 C.ar   49  PHE49      -0.0000
     79  N          1.7520  -29.9220   35.2730 N.am   50  LEU50      -0.1963
     80  CA         0.3960  -30.0680   34.7830 C.3    50  LEU50       0.1728
     81  C         -0.4950  -29.9040   36.0000 C.2    50  LEU50       0.2616
     82  O         -0.7010  -30.8530   36.7590 O.2    50  LEU50      -0.2715
     83  CB         0.2410  -31.4360   34.1230 C.3    50  LEU50       0.0311
     84  CG        -0.8140  -31.5960   33.0410 C.3    50  LEU50       0.0022
     85  CD1       -0.7090  -30.4740   32.0080 C.3    50  LEU50       0.0001
     86  CD2       -0.6510  -32.9550   32.3780 C.3    50  LEU50       0.0001
     87  N         -0.9850  -28.6830   36.2170 N.am   51  VAL51      -0.1964
     88  CA        -1.6010  -28.3010   37.4940 C.3    51  VAL51       0.1712
     89  C         -3.1310  -28.3780   37.4410 C.2    51  VAL51       0.2458
     90  O         -3.7460  -27.8650   36.5090 O.2    51  VAL51      -0.2730
     91  CB        -1.2070  -26.8690   37.8530 C.3    51  VAL51       0.0289
     92  CG1       -1.7870  -26.4620   39.2010 C.3    51  VAL51       0.0023
     93  CG2        0.3090  -26.7400   37.8600 C.3    51  VAL51       0.0023
     94  N         -3.7570  -29.0060   38.4450 N.am   52  PRO52      -0.2727
     95  CA        -5.2150  -29.0810   38.4450 C.3    52  PRO52       0.1402
     96  C         -5.8400  -27.6940   38.3700 C.2    52  PRO52       0.2269
     97  O         -5.3800  -26.7750   39.0560 O.2    52  PRO52      -0.2865
     98  CB        -5.5430  -29.7370   39.7890 C.3    52  PRO52       0.0296
     99  CG        -4.3100  -30.4480   40.1780 C.3    52  PRO52       0.0237
    100  CD        -3.1820  -29.6290   39.6450 C.3    52  PRO52       0.0939
    101  N         -8.6130  -26.3610   39.4930 N.3    54  ASN54      -0.1225
    102  CA        -9.1970  -25.8510   40.7450 C.3    54  ASN54       0.1785
    103  C         -8.2220  -25.6860   41.9150 C.2    54  ASN54       0.2597
    104  O         -8.6110  -25.2310   42.9920 O.2    54  ASN54      -0.2718
    105  CB       -10.4120  -26.6810   41.1700 C.3    54  ASN54       0.1169
    106  CG       -11.7010  -26.2360   40.4960 C.2    54  ASN54       0.2627
    107  OD1      -11.8500  -25.0820   40.0880 O.2    54  ASN54      -0.2716
    108  ND2      -12.6490  -27.1400   40.4040 N.am   54  ASN54      -0.0877
    109  N         -6.9510  -26.0130   41.6980 N.am   55  MET55      -0.1979
    110  CA        -5.9230  -25.7550   42.7090 C.3    55  MET55       0.1605
    111  C         -5.7640  -24.2520   42.9540 C.2    55  MET55       0.2287
    112  O         -5.6320  -23.4700   42.0100 O.2    55  MET55      -0.2864
    113  CB        -4.5650  -26.3260   42.2900 C.3    55  MET55       0.0413
    114  CG        -3.4160  -25.9490   43.2130 C.3    55  MET55       0.0598
    115  SD        -1.9110  -26.9360   42.9620 S.3    55  MET55      -0.1393
    116  CE        -2.4170  -28.4610   43.7890 C.3    55  MET55       0.0692
    117  N         -1.8450  -22.5180   47.1660 N.3    59  GLU59      -0.1231
    118  CA        -1.4550  -23.9120   47.3440 C.3    59  GLU59       0.1699
    119  C         -0.3240  -24.2680   46.3860 C.2    59  GLU59       0.2592
    120  O          0.6580  -24.8910   46.7840 O.2    59  GLU59      -0.2718
    121  CB        -2.6570  -24.8390   47.1280 C.3    59  GLU59       0.0402
    122  CG        -3.7750  -24.6540   48.1420 C.3    59  GLU59       0.1161
    123  CD        -5.0670  -25.3770   47.7680 C.2    59  GLU59       0.3649
    124  OE1       -5.3070  -25.6200   46.5630 O.co2  59  GLU59      -0.2457
    125  OE2       -5.8630  -25.6860   48.6870 O.co2  59  GLU59      -0.2457
    126  N         -0.4580  -23.8670   45.1250 N.am   60  PHE60      -0.1976
    127  CA         0.5750  -24.1600   44.1290 C.3    60  PHE60       0.1639
    128  C          1.9010  -23.4620   44.4510 C.2    60  PHE60       0.2290
    129  O          2.9960  -24.0520   44.2500 O.2    60  PHE60      -0.2864
    130  CB         0.1250  -23.7730   42.7340 C.3    60  PHE60       0.0560
    131  CG         1.1530  -24.0560   41.6820 C.ar   60  PHE60      -0.0200
    132  CD1        1.5600  -25.3590   41.4360 C.ar   60  PHE60      -0.0042
    133  CD2        1.7500  -23.0190   40.9680 C.ar   60  PHE60      -0.0042
    134  CE1        2.5120  -25.6330   40.4720 C.ar   60  PHE60      -0.0003
    135  CE2        2.7040  -23.2880   40.0100 C.ar   60  PHE60      -0.0003
    136  CZ         3.0800  -24.5900   39.7530 C.ar   60  PHE60      -0.0000
    137  N          3.6080  -25.5580   47.1070 N.3    63  ILE63      -0.1245
    138  CA         4.2430  -26.6840   46.4210 C.3    63  ILE63       0.1561
    139  C          5.5020  -26.2480   45.6680 C.2    63  ILE63       0.2260
    140  O          6.5250  -26.9360   45.6730 O.2    63  ILE63      -0.2867
    141  CB         3.2540  -27.3370   45.4300 C.3    63  ILE63       0.0252
    142  CG1        2.0860  -27.9910   46.1950 C.3    63  ILE63       0.0019
    143  CG2        3.9670  -28.3290   44.5320 C.3    63  ILE63       0.0019
    144  CD1        0.9520  -28.4460   45.2990 C.3    63  ILE63       0.0001
    145  N          9.5310  -27.5160   45.9480 N.3    67  HIS67      -0.1241
    146  CA        10.2260  -28.0770   44.7800 C.3    67  HIS67       0.1621
    147  C         11.5290  -27.3550   44.5190 C.2    67  HIS67       0.2264
    148  O         12.5960  -27.9890   44.3910 O.2    67  HIS67      -0.2867
    149  CB         9.3070  -28.0620   43.5660 C.3    67  HIS67       0.0745
    150  CG         9.9140  -28.6560   42.3160 C.ar   67  HIS67       0.0817
    151  ND1       10.1140  -29.9840   42.1590 N.ar   67  HIS67      -0.2268
    152  CD2       10.3500  -28.0500   41.1350 C.ar   67  HIS67       0.1154
    153  CE1       10.6700  -30.2200   40.9520 C.ar   67  HIS67       0.1986
    154  NE2       10.8130  -29.0360   40.3200 N.ar   67  HIS67      -0.2212
    155  N          1.2810  -22.0650   27.0540 N.3   113  TYR113     -0.1241
    156  CA         1.8710  -22.2770   28.3770 C.3   113  TYR113      0.1605
    157  C          1.5790  -21.1250   29.3300 C.2   113  TYR113      0.2264
    158  O          1.4820  -19.9650   28.9170 O.2   113  TYR113     -0.2867
    159  CB         3.4000  -22.4470   28.2780 C.3   113  TYR113      0.0534
    160  CG         3.8680  -23.8270   27.8740 C.ar  113  TYR113     -0.0201
    161  CD1        3.7400  -24.9090   28.7540 C.ar  113  TYR113     -0.0009
    162  CD2        4.4230  -24.0600   26.6170 C.ar  113  TYR113     -0.0009
    163  CE1        4.1410  -26.1880   28.3940 C.ar  113  TYR113      0.0417
    164  CE2        4.8220  -25.3370   26.2440 C.ar  113  TYR113      0.0417
    165  CZ         4.6770  -26.3990   27.1450 C.ar  113  TYR113      0.1957
    166  OH         5.0780  -27.6770   26.8000 O.3   113  TYR113     -0.2866
@<TRIPOS>BOND
     1     1     2    1
     2     2     5    1
     3     2     3    1
     4     6     5    1
     5     6     7    1
     6     3    10   am
     7     3     4    2
     8    10    11    1
     9     8     7   ar
    10    15    14    1
    11     7     9   ar
    12    12    11    1
    13    12    13    2
    14    11    14    1
    15    17    18    1
    16    14    16    1
    17   164   162   ar
    18   164   165   ar
    19    18    19    1
    20    18    21    1
    21   162   160   ar
    22   166   165    1
    23    19    20    2
    24    21    23    1
    25    21    22    1
    26   155   156    1
    27   165   163   ar
    28    67    66    1
    29   160   159    1
    30   160   161   ar
    31    24    22    1
    32   159   156    1
    33   156   157    1
    34   163   161   ar
    35   158   157    2
    36    66    65    1
    37    41    40    1
    38    41    42    1
    39    65    64    1
    40    40    37    1
    41    42    36    1
    42    64    63    1
    43    39    38    2
    44    37    36    1
    45    37    38    1
    46    28    27    2
    47    38    43   am
    48    85    84    1
    49    63    60    1
    50    86    84    1
    51    43    44    1
    52    84    83    1
    53    27    26    1
    54    45    44    1
    55    45    46    2
    56    44    47    1
    57    25    26    1
    58    60    59    1
    59    60    61    1
    60    26    29    1
    61    71    70    2
    62    83    80    1
    63    29    30    1
    64    61    68   am
    65    61    62    2
    66    68    69    1
    67    80    79    1
    68    80    81    1
    69    70    79   am
    70    70    69    1
    71    47    49    1
    72    47    48    1
    73    30    31    1
    74    31    32    1
    75    69    72    1
    76    81    87   am
    77    81    82    2
    78    51    52    1
    79    51    50    1
    80    51    54    1
    81    87    88    1
    82    55    56    1
    83    55    54    1
    84    52    53    2
    85    90    89    2
    86    32    33    2
    87    72    73    1
    88    56    57    1
    89    58    57    1
    90    74    73   ar
    91    74    76   ar
    92    89    88    1
    93    89    94   am
    94    88    91    1
    95    73    75   ar
    96    33    34    1
    97    33    35    1
    98    91    93    1
    99    91    92    1
   100    76    78   ar
   101    96    95    1
   102    96    97    2
   103    94    95    1
   104    94   100    1
   105    95    98    1
   106    75    77   ar
   107   101   102    1
   108    78    77   ar
   109   100    99    1
   110   136   135   ar
   111   136   134   ar
   112    98    99    1
   113   135   133   ar
   114   107   106    2
   115   154   153   ar
   116   154   152   ar
   117   108   106   am
   118   134   132   ar
   119   106   105    1
   120   102   105    1
   121   102   103    1
   122   153   151   ar
   123   133   131   ar
   124   152   150   ar
   125   132   131   ar
   126   131   130    1
   127   109   103   am
   128   109   110    1
   129   103   104    2
   130   112   111    2
   131   151   150   ar
   132   113   110    1
   133   113   114    1
   134   150   149    1
   135   110   111    1
   136   130   127    1
   137   115   114    1
   138   115   116    1
   139   149   146    1
   140   127   128    1
   141   127   126    1
   142   129   128    2
   143   148   147    2
   144   147   146    1
   145   143   141    1
   146   146   145    1
   147   126   119   am
   148   144   142    1
   149   141   142    1
   150   141   138    1
   151   139   140    2
   152   139   138    1
   153   119   120    2
   154   119   118    1
   155   138   137    1
   156   124   123   ar
   157   121   118    1
   158   121   122    1
   159   117   118    1
   160   123   122    1
   161   123   125   ar
