@<TRIPOS>MOLECULE
tmp/4ep6A01.pdb
 146 137 0 0 0
SMALL
GASTEIGER

@<TRIPOS>ATOM
      1  N        -11.3660   21.9140    8.4800 N.3    63  GLY63      -0.1210
      2  CA       -10.5550   20.8630    7.8550 C.3    63  GLY63       0.1956
      3  C        -10.3300   19.6140    8.6960 C.2    63  GLY63       0.2611
      4  O        -10.0490   18.5400    8.1550 O.2    63  GLY63      -0.2717
      5  N        -10.4440   19.7520   10.0100 N.am   64  TRP64      -0.1976
      6  CA       -10.2460   18.6470   10.9030 C.3    64  TRP64       0.1640
      7  C        -11.5510   17.9860   11.4280 C.2    64  TRP64       0.2290
      8  O        -11.4900   17.0890   12.2960 O.2    64  TRP64      -0.2864
      9  CB        -9.4030   19.1360   12.0860 C.3    64  TRP64       0.0576
     10  CG        -8.0450   19.6010   11.6820 C.ar   64  TRP64       0.0006
     11  CD1       -7.6800   20.8710   11.3690 C.ar   64  TRP64       0.0946
     12  CD2       -6.8770   18.8010   11.5120 C.ar   64  TRP64       0.0152
     13  NE1       -6.3540   20.9190   11.0250 N.ar   64  TRP64      -0.2442
     14  CE2       -5.8300   19.6650   11.1330 C.ar   64  TRP64       0.0810
     15  CE3       -6.6100   17.4370   11.6450 C.ar   64  TRP64       0.0012
     16  CZ2       -4.5340   19.2150   10.9000 C.ar   64  TRP64       0.0191
     17  CZ3       -5.3160   16.9730   11.4100 C.ar   64  TRP64       0.0001
     18  CH2       -4.2920   17.8590   11.0460 C.ar   64  TRP64       0.0015
     19  N        -14.1170   15.8770   10.1860 N.3    66  ASP66      -0.1225
     20  CA       -14.1760   14.3970   10.0140 C.3    66  ASP66       0.1805
     21  C        -12.8410   13.9550    9.4080 C.2    66  ASP66       0.2597
     22  O        -12.7340   13.5670    8.2330 O.2    66  ASP66      -0.2718
     23  CB       -15.4090   13.9410    9.1850 C.3    66  ASP66       0.1424
     24  CG       -16.7830   14.3350    9.8670 C.2    66  ASP66       0.3668
     25  OD1      -17.0220   14.0140   11.0890 O.co2  66  ASP66      -0.2456
     26  OD2      -17.6340   14.9760    9.1710 O.co2  66  ASP66      -0.2456
     27  N        -11.8130   14.0590   10.2530 N.am   67  ALA67      -0.1979
     28  CA       -10.4370   13.8060    9.8380 C.3    67  ALA67       0.1597
     29  C        -10.1360   12.3060    9.7890 C.2    67  ALA67       0.2287
     30  O         -9.1850   11.9000    9.1350 O.2    67  ALA67      -0.2864
     31  CB        -9.4530   14.5140   10.7860 C.3    67  ALA67       0.0319
     32  N         -6.5700   10.8380   10.4520 N.3    70  TRP70      -0.1241
     33  CA        -5.8540   12.0760   10.7960 C.3    70  TRP70       0.1605
     34  C         -6.2550   12.7740   12.1250 C.2    70  TRP70       0.2264
     35  O         -5.6080   13.7430   12.5230 O.2    70  TRP70      -0.2867
     36  CB        -5.9220   13.0600    9.6670 C.3    70  TRP70       0.0550
     37  CG        -5.0630   12.6800    8.5080 C.ar   70  TRP70       0.0003
     38  CD1       -5.3400   11.7590    7.5530 C.ar   70  TRP70       0.0946
     39  CD2       -3.7900   13.2460    8.1570 C.ar   70  TRP70       0.0152
     40  NE1       -4.3130   11.6980    6.6190 N.ar   70  TRP70      -0.2442
     41  CE2       -3.3650   12.6220    6.9590 C.ar   70  TRP70       0.0810
     42  CE3       -2.9900   14.2350    8.7200 C.ar   70  TRP70       0.0012
     43  CZ2       -2.1710   12.9140    6.3620 C.ar   70  TRP70       0.0191
     44  CZ3       -1.8130   14.5250    8.1340 C.ar   70  TRP70       0.0001
     45  CH2       -1.4000   13.8630    6.9520 C.ar   70  TRP70       0.0015
     46  N         -3.4150   13.7360   14.4650 N.3    73  ALA73      -0.1245
     47  CA        -2.6130   14.9410   14.2960 C.3    73  ALA73       0.1562
     48  C         -3.3410   16.3030   14.6040 C.2    73  ALA73       0.2260
     49  O         -2.7450   17.3560   14.4150 O.2    73  ALA73      -0.2867
     50  CB        -1.9930   14.9630   12.9240 C.3    73  ALA73       0.0290
     51  N         -2.3340   19.7540   17.0760 N.3    76  THR76      -0.1218
     52  CA        -1.0310   20.3310   16.8020 C.3    76  THR76       0.1862
     53  C         -1.2620   21.7170   16.1820 C.2    76  THR76       0.2287
     54  O         -2.4000   22.1390   16.0270 O.2    76  THR76      -0.2866
     55  CB        -0.2640   19.4610   15.7950 C.3    76  THR76       0.1770
     56  OG1       -0.9040   19.6030   14.5460 O.3    76  THR76      -0.2211
     57  CG2       -0.2480   17.9840   16.2260 C.3    76  THR76       0.0375
     58  N         -1.2670   23.0170   13.1780 N.3    78  LEU78      -0.1245
     59  CA        -2.1370   23.1230   12.0080 C.3    78  LEU78       0.1561
     60  C         -3.6180   22.8790   12.3060 C.2    78  LEU78       0.2260
     61  O         -4.4490   23.0280   11.4140 O.2    78  LEU78      -0.2867
     62  CB        -1.6690   22.1990   10.8820 C.3    78  LEU78       0.0270
     63  CG        -2.2020   22.5110    9.4930 C.3    78  LEU78       0.0019
     64  CD1       -2.1760   24.0240    9.1240 C.3    78  LEU78       0.0001
     65  CD2       -1.4970   21.6280    8.3560 C.3    78  LEU78       0.0001
     66  N         -0.9270    9.6870    3.5540 N.3   162  MET162     -0.1245
     67  CA        -1.1430   10.8370    2.7020 C.3   162  MET162      0.1570
     68  C         -2.1410   10.5780    1.6060 C.2   162  MET162      0.2261
     69  O         -2.5810   11.5160    0.9580 O.2   162  MET162     -0.2867
     70  CB         0.1780   11.3210    2.0580 C.3   162  MET162      0.0387
     71  CG         1.1670   11.9210    3.0330 C.3   162  MET162      0.0595
     72  SD         0.5360   13.4190    3.8560 S.3   162  MET162     -0.1393
     73  CE         0.5380   14.4050    2.3200 C.3   162  MET162      0.0692
     74  N         -5.1610    9.8550    1.5710 N.3   164  MET164     -0.1230
     75  CA        -6.4710   10.4020    1.7980 C.3   164  MET164      0.1702
     76  C         -6.4830   11.9360    1.8110 C.2   164  MET164      0.2592
     77  O         -7.5170   12.5460    1.8970 O.2   164  MET164     -0.2718
     78  CB        -7.1460    9.8030    3.0140 C.3   164  MET164      0.0401
     79  CG        -6.5430   10.2380    4.2690 C.3   164  MET164      0.0596
     80  SD        -7.4790    9.5100    5.5660 S.3   164  MET164     -0.1393
     81  CE        -8.9280   10.6630    5.7270 C.3   164  MET164      0.0692
     82  N         -5.3420   12.5720    1.6330 N.am  165  GLN165     -0.1966
     83  CA        -5.3080   13.9940    1.3840 C.3   165  GLN165      0.1733
     84  C         -5.6480   14.3070   -0.1120 C.2   165  GLN165      0.2617
     85  O         -5.8680   15.4520   -0.4670 O.2   165  GLN165     -0.2715
     86  CB        -3.9390   14.5460    1.8070 C.3   165  GLN165      0.0408
     87  CG        -3.6830   14.4390    3.3720 C.3   165  GLN165      0.0908
     88  CD        -4.4350   15.4800    4.1780 C.2   165  GLN165      0.2608
     89  OE1       -4.9830   16.4310    3.6170 O.2   165  GLN165     -0.2717
     90  NE2       -4.4900   15.2920    5.5170 N.am  165  GLN165     -0.0878
     91  N         -5.7370   13.3230   -0.9850 N.am  166  SER166     -0.1950
     92  CA        -6.1740   13.6340   -2.3930 C.3   166  SER166      0.1924
     93  C         -7.5860   14.2080   -2.3960 C.2   166  SER166      0.2314
     94  O         -8.3630   13.9080   -1.5280 O.2   166  SER166     -0.2863
     95  CB        -6.1790   12.3820   -3.2760 C.3   166  SER166      0.2116
     96  OG        -6.6750   12.6580   -4.6130 O.3   166  SER166     -0.2180
     97  N          3.7400   14.2500   14.9580 N.3   227  VAL227     -0.1245
     98  CA         3.8070   14.9000   13.6450 C.3   227  VAL227      0.1561
     99  C          5.2780   15.1130   13.2370 C.2   227  VAL227      0.2260
    100  O          5.7300   14.7080   12.1190 O.2   227  VAL227     -0.2867
    101  CB         2.8970   16.2150   13.5450 C.3   227  VAL227      0.0252
    102  CG1        3.2730   17.1020   12.3370 C.3   227  VAL227      0.0019
    103  CG2        1.3880   15.8280   13.4930 C.3   227  VAL227      0.0019
    104  N          6.9500   13.3670   10.0430 N.3   231  VAL231     -0.1245
    105  CA         7.1610   14.1660    8.8540 C.3   231  VAL231      0.1561
    106  C          8.6080   14.6610    8.7570 C.2   231  VAL231      0.2260
    107  O          8.9850   15.2240    7.7360 O.2   231  VAL231     -0.2867
    108  CB         6.0850   15.2680    8.7100 C.3   231  VAL231      0.0252
    109  CG1        4.7680   14.6770    9.1690 C.3   231  VAL231      0.0019
    110  CG2        6.3790   16.5060    9.5070 C.3   231  VAL231      0.0019
    111  N          9.7630   13.8310    5.3080 N.3   234  MET234     -0.1245
    112  CA         8.7700   13.6890    4.2200 C.3   234  MET234      0.1570
    113  C          8.8450   14.6900    3.0800 C.2   234  MET234      0.2261
    114  O          9.3140   14.3410    1.9980 O.2   234  MET234     -0.2867
    115  CB         7.3240   13.5320    4.7900 C.3   234  MET234      0.0387
    116  CG         6.3200   12.8490    3.8000 C.3   234  MET234      0.0595
    117  SD         4.6210   12.9410    4.4490 S.3   234  MET234     -0.1393
    118  CE         4.2540   14.6670    4.1620 C.3   234  MET234      0.0692
    119  N          3.9320   19.8350   -1.5590 N.3   278  GLN278     -0.1245
    120  CA         2.5010   19.9670   -1.3020 C.3   278  GLN278      0.1566
    121  C          1.9580   21.0130   -2.2240 C.2   278  GLN278      0.2260
    122  O          2.3700   22.1420   -2.2100 O.2   278  GLN278     -0.2867
    123  CB         2.1950   20.3160    0.1670 C.3   278  GLN278      0.0367
    124  CG         0.6970   20.6010    0.4550 C.3   278  GLN278      0.0905
    125  CD         0.4550   20.6580    1.9710 C.2   278  GLN278      0.2608
    126  OE1        1.1560   20.0000    2.6960 O.2   278  GLN278     -0.2717
    127  NE2       -0.4820   21.4890    2.4350 N.am  278  GLN278     -0.0878
    128  N         -6.0650   23.9970    2.1930 N.3   282  LEU282     -0.1245
    129  CA        -7.4540   24.3200    2.3830 C.3   282  LEU282      0.1561
    130  C         -7.6000   25.2560    3.5470 C.2   282  LEU282      0.2260
    131  O         -6.9390   25.1090    4.6180 O.2   282  LEU282     -0.2867
    132  CB        -8.2640   23.0630    2.7280 C.3   282  LEU282      0.0270
    133  CG        -8.5070   22.0220    1.6560 C.3   282  LEU282      0.0019
    134  CD1       -9.1960   20.7580    2.2680 C.3   282  LEU282      0.0001
    135  CD2       -9.3470   22.6620    0.5500 C.3   282  LEU282      0.0001
    136  N         -2.3710   16.1110   -4.5060 N.3   380  PHE380     -0.1241
    137  CA        -2.0210   16.8960   -3.3530 C.3   380  PHE380      0.1605
    138  C         -0.5170   16.8720   -3.0110 C.2   380  PHE380      0.2264
    139  O          0.0260   17.8740   -2.5980 O.2   380  PHE380     -0.2867
    140  CB        -2.7970   16.3620   -2.1830 C.3   380  PHE380      0.0534
    141  CG        -2.6210   17.1340   -0.9190 C.ar  380  PHE380     -0.0203
    142  CD1       -3.3400   18.2900   -0.6900 C.ar  380  PHE380     -0.0042
    143  CD2       -1.7400   16.6970    0.0580 C.ar  380  PHE380     -0.0042
    144  CE1       -3.2060   18.9860    0.5210 C.ar  380  PHE380     -0.0003
    145  CE2       -1.6050   17.3560    1.2830 C.ar  380  PHE380     -0.0003
    146  CZ        -2.3320   18.4870    1.5220 C.ar  380  PHE380     -0.0000
@<TRIPOS>BOND
     1    96    95    1
     2   136   137    1
     3   137   138    1
     4   137   140    1
     5    95    92    1
     6   138   139    2
     7    93    92    1
     8    93    94    2
     9    92    91    1
    10   121   122    2
    11   121   120    1
    12   140   141    1
    13   119   120    1
    14   120   123    1
    15    91    84   am
    16   141   142   ar
    17   141   143   ar
    18   142   144   ar
    19    85    84    2
    20    84    83    1
    21   143   145   ar
    22   123   124    1
    23   124   125    1
    24   144   146   ar
    25   135   133    1
    26    69    68    2
    27   145   146   ar
    28    83    82    1
    29    83    86    1
    30    74    75    1
    31    68    67    1
    32    82    76   am
    33   133   134    1
    34   133   132    1
    35    75    76    1
    36    75    78    1
    37    86    87    1
    38    76    77    2
    39   125   127   am
    40   125   126    2
    41   114   113    2
    42    70    67    1
    43    70    71    1
    44   128   129    1
    45    73    72    1
    46   129   132    1
    47   129   130    1
    48    67    66    1
    49    78    79    1
    50    71    72    1
    51   113   112    1
    52    87    88    1
    53   130   131    2
    54    89    88    2
    55   116   117    1
    56   116   115    1
    57   118   117    1
    58    88    90   am
    59   112   115    1
    60   112   111    1
    61    79    80    1
    62    80    81    1
    63    43    45   ar
    64    43    41   ar
    65    40    41   ar
    66    40    38   ar
    67    45    44   ar
    68    41    39   ar
    69    38    37   ar
    70   107   106    2
    71     2     1    1
    72     2     3    1
    73    44    42   ar
    74     4     3    2
    75    39    37   ar
    76    39    42   ar
    77    22    21    2
    78    65    63    1
    79    37    36    1
    80     3     5   am
    81   108   105    1
    82   108   109    1
    83   108   110    1
    84   106   105    1
    85   105   104    1
    86    64    63    1
    87    30    29    2
    88    26    24   ar
    89    23    24    1
    90    23    20    1
    91    21    20    1
    92    21    27   am
    93    63    62    1
    94    36    33    1
    95    29    28    1
    96    28    27    1
    97    28    31    1
    98    24    25   ar
    99     5     6    1
   100    20    19    1
   101    32    33    1
   102    33    34    1
   103    62    59    1
   104    16    18   ar
   105    16    14   ar
   106     6     7    1
   107     6     9    1
   108    13    14   ar
   109    13    11   ar
   110    18    17   ar
   111    14    12   ar
   112    11    10   ar
   113    17    15   ar
   114    61    60    2
   115     7     8    2
   116    12    15   ar
   117    12    10   ar
   118    10     9    1
   119    59    60    1
   120    59    58    1
   121   100    99    2
   122    34    35    2
   123   102   101    1
   124    50    47    1
   125    99    98    1
   126   103   101    1
   127   101    98    1
   128    98    97    1
   129    47    46    1
   130    47    48    1
   131    49    48    2
   132    56    55    1
   133    55    57    1
   134    55    52    1
   135    54    53    2
   136    53    52    1
   137    52    51    1
