@<TRIPOS>MOLECULE
tmp/4ep9A01.pdb
 200 196 0 0 0
SMALL
GASTEIGER

@<TRIPOS>ATOM
      1  N         -6.9590  -12.5110   56.1860 N.3   102  PRO102     -0.2102
      2  CA        -7.5300  -12.8680   54.8870 C.3   102  PRO102      0.1504
      3  C         -8.5000  -11.7940   54.3480 C.2   102  PRO102      0.2576
      4  O         -8.7320  -10.7870   55.0200 O.2   102  PRO102     -0.2718
      5  CB        -8.2980  -14.1480   55.2220 C.3   102  PRO102      0.0282
      6  CG        -8.9090  -13.8400   56.5650 C.3   102  PRO102      0.0208
      7  CD        -7.8660  -12.9040   57.2890 C.3   102  PRO102      0.0893
      8  N         -9.0350  -11.9910   53.1410 N.am  103  PHE103     -0.1963
      9  CA       -10.1250  -11.1230   52.6330 C.3   103  PHE103      0.1771
     10  C        -11.2710  -11.9400   52.0830 C.2   103  PHE103      0.2619
     11  O        -11.0940  -13.1250   51.7340 O.2   103  PHE103     -0.2715
     12  CB        -9.6600  -10.0990   51.5610 C.3   103  PHE103      0.0574
     13  CG        -9.4480  -10.6920   50.1640 C.ar  103  PHE103     -0.0200
     14  CD1      -10.4960  -10.7210   49.2260 C.ar  103  PHE103     -0.0042
     15  CD2       -8.1930  -11.1920   49.7900 C.ar  103  PHE103     -0.0042
     16  CE1      -10.2940  -11.2420   47.9430 C.ar  103  PHE103     -0.0003
     17  CE2       -7.9760  -11.7450   48.5220 C.ar  103  PHE103     -0.0003
     18  CZ        -9.0350  -11.7700   47.5890 C.ar  103  PHE103     -0.0000
     19  N        -12.4380  -11.3020   52.0070 N.am  104  MET104     -0.1977
     20  CA       -13.5440  -11.7900   51.1850 C.3   104  MET104      0.1605
     21  C        -14.0970  -10.6100   50.4250 C.2   104  MET104      0.2287
     22  O        -14.3570   -9.5680   51.0260 O.2   104  MET104     -0.2864
     23  CB       -14.6670  -12.3770   52.0340 C.3   104  MET104      0.0413
     24  CG       -14.3090  -13.6210   52.8240 C.3   104  MET104      0.0598
     25  SD       -15.7470  -14.2740   53.7190 S.3   104  MET104     -0.1393
     26  CE       -16.4040  -12.7880   54.4550 C.3   104  MET104      0.0692
     27  N         -8.7770  -10.2340   38.2790 N.3   304  LEU304     -0.1245
     28  CA        -8.9650  -10.9300   39.5490 C.3   304  LEU304      0.1561
     29  C         -7.6910  -11.0180   40.3660 C.2   304  LEU304      0.2260
     30  O         -7.7600  -11.0460   41.5950 O.2   304  LEU304     -0.2867
     31  CB        -9.5560  -12.3340   39.3480 C.3   304  LEU304      0.0270
     32  CG       -11.0190  -12.4070   38.9160 C.3   304  LEU304      0.0019
     33  CD1      -11.4430  -13.8540   38.7690 C.3   304  LEU304      0.0001
     34  CD2      -11.9590  -11.6480   39.8660 C.3   304  LEU304      0.0001
     35  N         -9.9260   -8.6390   57.1120 N.3   339  PHE339     -0.1241
     36  CA       -10.0280   -8.6420   58.5720 C.3   339  PHE339      0.1605
     37  C         -8.8300   -9.2050   59.2930 C.2   339  PHE339      0.2264
     38  O         -8.0640   -9.9810   58.7230 O.2   339  PHE339     -0.2867
     39  CB       -11.3440   -9.2750   59.0790 C.3   339  PHE339      0.0534
     40  CG       -11.4720  -10.7720   58.8680 C.ar  339  PHE339     -0.0203
     41  CD1      -11.3100  -11.6560   59.9440 C.ar  339  PHE339     -0.0042
     42  CD2      -11.8570  -11.2930   57.6250 C.ar  339  PHE339     -0.0042
     43  CE1      -11.4690  -13.0590   59.7720 C.ar  339  PHE339     -0.0003
     44  CE2      -12.0220  -12.6900   57.4390 C.ar  339  PHE339     -0.0003
     45  CZ       -11.8260  -13.5670   58.5140 C.ar  339  PHE339     -0.0000
     46  N         -7.4910  -11.5950   62.1800 N.3   341  HIS341     -0.1241
     47  CA        -8.0670  -12.9100   62.4670 C.3   341  HIS341      0.1621
     48  C         -8.1210  -13.2790   63.9360 C.2   341  HIS341      0.2264
     49  O         -8.8840  -14.1630   64.3200 O.2   341  HIS341     -0.2867
     50  CB        -7.3770  -14.0170   61.6530 C.3   341  HIS341      0.0745
     51  CG        -8.3040  -15.1190   61.2280 C.ar  341  HIS341      0.0817
     52  ND1       -9.1780  -15.7380   62.0950 N.ar  341  HIS341     -0.2268
     53  CD2       -8.4960  -15.7060   60.0240 C.ar  341  HIS341      0.1154
     54  CE1       -9.8790  -16.6480   61.4420 C.ar  341  HIS341      0.1986
     55  NE2       -9.4850  -16.6480   60.1840 N.ar  341  HIS341     -0.2212
     56  N        -14.4840  -17.0390   60.5760 N.3   346  GLY346     -0.1225
     57  CA       -15.1530  -16.9470   59.2720 C.3   346  GLY346      0.1811
     58  C        -16.6550  -16.8140   59.3080 C.2   346  GLY346      0.2280
     59  O        -17.2170  -15.9820   58.6040 O.2   346  GLY346     -0.2866
     60  N         -6.2210  -17.6630   39.7710 N.3   414  SER414     -0.1202
     61  CA        -7.4680  -18.3780   40.0140 C.3   414  SER414      0.2020
     62  C         -7.8870  -19.2680   38.8640 C.2   414  SER414      0.2619
     63  O         -7.3610  -19.1560   37.7500 O.2   414  SER414     -0.2717
     64  CB        -8.6050  -17.4140   40.4030 C.3   414  SER414      0.2103
     65  OG        -8.9960  -16.5930   39.3170 O.3   414  SER414     -0.2182
     66  N         -8.8030  -20.1860   39.1570 N.am  415  ILE415     -0.1965
     67  CA        -9.5130  -20.9200   38.1150 C.3   415  ILE415      0.1727
     68  C        -11.0070  -20.8730   38.3570 C.2   415  ILE415      0.2616
     69  O        -11.4660  -20.7410   39.4890 O.2   415  ILE415     -0.2715
     70  CB        -9.0290  -22.3940   37.9310 C.3   415  ILE415      0.0290
     71  CG1       -9.2720  -23.2420   39.1870 C.3   415  ILE415      0.0022
     72  CG2       -7.5610  -22.4310   37.4620 C.3   415  ILE415      0.0023
     73  CD1       -9.1470  -24.7260   38.9460 C.3   415  ILE415      0.0001
     74  N        -11.7610  -20.9760   37.2750 N.am  416  GLN416     -0.1977
     75  CA       -13.2010  -21.0720   37.3460 C.3   416  GLN416      0.1601
     76  C        -13.5450  -22.3430   36.5530 C.2   416  GLN416      0.2287
     77  O        -13.4990  -22.3520   35.3260 O.2   416  GLN416     -0.2864
     78  CB       -13.8660  -19.8210   36.7480 C.3   416  GLN416      0.0394
     79  CG       -13.4740  -18.4580   37.4090 C.3   416  GLN416      0.0908
     80  CD       -12.0200  -17.9840   37.1110 C.2   416  GLN416      0.2608
     81  OE1      -11.4380  -18.3120   36.0730 O.2   416  GLN416     -0.2717
     82  NE2      -11.4460  -17.2090   38.0350 N.am  416  GLN416     -0.0878
     83  N         -9.4320  -23.1860   52.7410 N.3   559  SER559     -0.1217
     84  CA       -10.5670  -22.6610   53.4680 C.3   559  SER559      0.1889
     85  C        -11.6770  -22.3840   52.4780 C.2   559  SER559      0.2288
     86  O        -11.4450  -21.8970   51.3750 O.2   559  SER559     -0.2866
     87  CB       -10.1640  -21.3820   54.2170 C.3   559  SER559      0.2089
     88  OG       -11.2680  -20.7350   54.8300 O.3   559  SER559     -0.2183
     89  N        -15.7620  -20.7080   52.2860 N.3   561  LEU561     -0.1245
     90  CA       -17.0250  -20.1510   52.7520 C.3   561  LEU561      0.1561
     91  C        -17.9000  -19.8930   51.5320 C.2   561  LEU561      0.2260
     92  O        -17.4000  -19.4690   50.4960 O.2   561  LEU561     -0.2867
     93  CB       -16.7960  -18.8560   53.5290 C.3   561  LEU561      0.0270
     94  CG       -16.4160  -18.9650   55.0190 C.3   561  LEU561      0.0019
     95  CD1      -16.1360  -17.5920   55.5730 C.3   561  LEU561      0.0001
     96  CD2      -17.5050  -19.6600   55.8580 C.3   561  LEU561      0.0001
     97  N        -20.5500  -13.3320   48.2320 N.3   566  VAL566     -0.1231
     98  CA       -19.0820  -13.3860   48.0550 C.3   566  VAL566      0.1692
     99  C        -18.7330  -13.6750   46.6000 C.2   566  VAL566      0.2593
    100  O        -19.1960  -14.6620   46.0510 O.2   566  VAL566     -0.2718
    101  CB       -18.4220  -14.4980   48.9710 C.3   566  VAL566      0.0266
    102  CG1      -16.8940  -14.5190   48.8020 C.3   566  VAL566      0.0020
    103  CG2      -18.7860  -14.3160   50.4420 C.3   566  VAL566      0.0020
    104  N        -17.9360  -12.8140   45.9680 N.am  567  SER567     -0.1938
    105  CA       -17.4330  -13.0900   44.6170 C.3   567  SER567      0.2055
    106  C        -16.2190  -14.0050   44.7150 C.2   567  SER567      0.2643
    107  O        -16.1370  -15.0170   44.0290 O.2   567  SER567     -0.2714
    108  CB       -17.0680  -11.7920   43.8820 C.3   567  SER567      0.2130
    109  OG       -16.0920  -11.0580   44.6040 O.3   567  SER567     -0.2179
    110  N        -15.2770  -13.6470   45.5850 N.am  568  LEU568     -0.1963
    111  CA       -14.1290  -14.5010   45.8820 C.3   568  LEU568      0.1728
    112  C        -13.4200  -14.1010   47.1810 C.2   568  LEU568      0.2617
    113  O        -13.7020  -13.0510   47.7630 O.2   568  LEU568     -0.2715
    114  CB       -13.1270  -14.5280   44.7220 C.3   568  LEU568      0.0311
    115  CG       -12.1900  -13.3470   44.5220 C.3   568  LEU568      0.0022
    116  CD1      -10.9830  -13.7820   43.7140 C.3   568  LEU568      0.0001
    117  CD2      -12.9260  -12.2040   43.8500 C.3   568  LEU568      0.0001
    118  N        -12.5080  -14.9590   47.6210 N.am  569  GLY569     -0.1940
    119  CA       -11.7380  -14.7110   48.8230 C.3   569  GLY569      0.2014
    120  C        -10.3100  -15.1530   48.6220 C.2   569  GLY569      0.2639
    121  O         -9.9620  -15.7760   47.6070 O.2   569  GLY569     -0.2714
    122  N         -9.4730  -14.8170   49.5850 N.am  570  GLY570     -0.1939
    123  CA        -8.0820  -15.1660   49.4920 C.3   570  GLY570      0.2014
    124  C         -7.3350  -15.0540   50.7980 C.2   570  GLY570      0.2638
    125  O         -7.7770  -14.3720   51.7200 O.2   570  GLY570     -0.2714
    126  N         -6.2070  -15.7570   50.8620 N.am  571  PHE571     -0.1973
    127  CA        -5.2420  -15.6640   51.9530 C.3   571  PHE571      0.1639
    128  C         -3.9020  -16.1770   51.4230 C.2   571  PHE571      0.2290
    129  O         -3.8620  -16.9220   50.4480 O.2   571  PHE571     -0.2864
    130  CB        -5.6850  -16.4540   53.1980 C.3   571  PHE571      0.0560
    131  CG        -6.0480  -17.9020   52.9280 C.ar  571  PHE571     -0.0200
    132  CD1       -5.1230  -18.9230   53.1470 C.ar  571  PHE571     -0.0042
    133  CD2       -7.3260  -18.2460   52.5030 C.ar  571  PHE571     -0.0042
    134  CE1       -5.4640  -20.2690   52.9260 C.ar  571  PHE571     -0.0003
    135  CE2       -7.6750  -19.5850   52.2800 C.ar  571  PHE571     -0.0003
    136  CZ        -6.7300  -20.5970   52.4850 C.ar  571  PHE571     -0.0000
    137  N         -8.2580  -20.6780   48.6750 N.3   582  ALA582     -0.1231
    138  CA        -9.5850  -20.2670   48.9880 C.3   582  ALA582      0.1694
    139  C        -10.3960  -20.8650   47.8600 C.2   582  ALA582      0.2592
    140  O        -10.0790  -20.6570   46.6960 O.2   582  ALA582     -0.2718
    141  CB        -9.6820  -18.7500   48.9570 C.3   582  ALA582      0.0304
    142  N        -11.4460  -21.5930   48.1870 N.am  583  TYR583     -0.1962
    143  CA       -12.2040  -22.2630   47.1320 C.3   583  TYR583      0.1771
    144  C        -13.6770  -22.2270   47.4860 C.2   583  TYR583      0.2619
    145  O        -14.0380  -22.0390   48.6590 O.2   583  TYR583     -0.2715
    146  CB       -11.7010  -23.7100   46.9420 C.3   583  TYR583      0.0574
    147  CG       -12.0410  -24.6180   48.1070 C.ar  583  TYR583     -0.0198
    148  CD1      -13.1720  -25.4400   48.0830 C.ar  583  TYR583     -0.0009
    149  CD2      -11.2440  -24.6270   49.2450 C.ar  583  TYR583     -0.0009
    150  CE1      -13.4860  -26.2750   49.1830 C.ar  583  TYR583      0.0417
    151  CE2      -11.5400  -25.4330   50.3280 C.ar  583  TYR583      0.0417
    152  CZ       -12.6470  -26.2550   50.2930 C.ar  583  TYR583      0.1957
    153  OH       -12.8980  -27.0250   51.4010 O.3   583  TYR583     -0.2866
    154  N        -14.5290  -22.3840   46.4720 N.am  584  ALA584     -0.1977
    155  CA       -15.9500  -22.5790   46.6880 C.3   584  ALA584      0.1597
    156  C        -16.4890  -23.4760   45.5780 C.2   584  ALA584      0.2287
    157  O        -16.1400  -23.3420   44.4100 O.2   584  ALA584     -0.2864
    158  CB       -16.6840  -21.2450   46.7240 C.3   584  ALA584      0.0319
    159  N        -19.7470  -24.0420   43.8280 N.3   586  HIS586     -0.1241
    160  CA       -21.0610  -23.4150   43.6750 C.3   586  HIS586      0.1621
    161  C        -21.9990  -24.4180   43.0190 C.2   586  HIS586      0.2264
    162  O        -21.5780  -25.5230   42.6720 O.2   586  HIS586     -0.2867
    163  CB       -20.9810  -22.1620   42.7920 C.3   586  HIS586      0.0745
    164  CG       -20.0270  -21.1240   43.2890 C.ar  586  HIS586      0.0817
    165  ND1      -18.6650  -21.2140   43.0930 N.ar  586  HIS586     -0.2268
    166  CD2      -20.2380  -19.9670   43.9580 C.ar  586  HIS586      0.1154
    167  CE1      -18.0790  -20.1620   43.6310 C.ar  586  HIS586      0.1986
    168  NE2      -19.0110  -19.3920   44.1620 N.ar  586  HIS586     -0.2212
    169  N        -20.4380  -24.5530   39.2060 N.3   589  TRP589     -0.1241
    170  CA       -19.0290  -24.3560   38.8710 C.3   589  TRP589      0.1605
    171  C        -18.2100  -24.3850   40.1610 C.2   589  TRP589      0.2264
    172  O        -18.7840  -24.3420   41.2490 O.2   589  TRP589     -0.2867
    173  CB       -18.8200  -23.0410   38.1030 C.3   589  TRP589      0.0550
    174  CG       -19.2000  -21.8290   38.8700 C.ar  589  TRP589      0.0003
    175  CD1      -20.4710  -21.4050   39.1620 C.ar  589  TRP589      0.0946
    176  CD2      -18.3080  -20.8500   39.4450 C.ar  589  TRP589      0.0152
    177  NE1      -20.4260  -20.2340   39.8930 N.ar  589  TRP589     -0.2442
    178  CE2      -19.1130  -19.8740   40.0830 C.ar  589  TRP589      0.0810
    179  CE3      -16.9110  -20.7250   39.5110 C.ar  589  TRP589      0.0012
    180  CZ2      -18.5670  -18.7770   40.7650 C.ar  589  TRP589      0.0191
    181  CZ3      -16.3610  -19.6200   40.1910 C.ar  589  TRP589      0.0001
    182  CH2      -17.1920  -18.6580   40.7940 C.ar  589  TRP589      0.0015
    183  N        -14.6850  -22.6590   42.0290 N.3   591  GLY591     -0.1210
    184  CA       -13.7140  -21.5780   41.9740 C.3   591  GLY591      0.1956
    185  C        -12.6720  -21.7800   43.0460 C.2   591  GLY591      0.2612
    186  O        -13.0260  -22.0180   44.2100 O.2   591  GLY591     -0.2717
    187  N        -11.4030  -21.7130   42.6330 N.am  592  CYS592     -0.1956
    188  CA       -10.2300  -21.7040   43.5370 C.3   592  CYS592      0.1843
    189  C         -9.3400  -20.4990   43.2770 C.2   592  CYS592      0.2625
    190  O         -8.8970  -20.2740   42.1450 O.2   592  CYS592     -0.2714
    191  CB        -9.3510  -22.9440   43.3580 C.3   592  CYS592      0.0997
    192  SG       -10.2370  -24.4540   43.1880 S.3   592  CYS592     -0.0797
    193  N         -9.0500  -19.7600   44.3340 N.am  593  ASN593     -0.1972
    194  CA        -8.0780  -18.6730   44.3030 C.3   593  ASN593      0.1688
    195  C         -6.8530  -19.1120   45.1030 C.2   593  ASN593      0.2292
    196  O         -6.9380  -19.3670   46.3200 O.2   593  ASN593     -0.2864
    197  CB        -8.7220  -17.4250   44.9250 C.3   593  ASN593      0.1181
    198  CG        -8.0420  -16.1590   44.5240 C.2   593  ASN593      0.2629
    199  OD1       -7.3940  -16.1080   43.4850 O.2   593  ASN593     -0.2716
    200  ND2       -8.1850  -15.1060   45.3470 N.am  593  ASN593     -0.0877
@<TRIPOS>BOND
     1    77    76    2
     2    81    80    2
     3    76    75    1
     4    78    75    1
     5    78    79    1
     6    80    79    1
     7    80    82   am
     8    74    75    1
     9    74    68   am
    10    72    70    1
    11    63    62    2
    12    70    67    1
    13    70    71    1
    14   173   174    1
    15   173   170    1
    16    67    68    1
    17    67    66    1
    18    27    28    1
    19    68    69    2
    20    33    32    1
    21    62    66   am
    22    62    61    1
    23   174   175   ar
    24   174   176   ar
    25   170   169    1
    26   170   171    1
    27    32    31    1
    28    32    34    1
    29    73    71    1
    30   175   177   ar
    31    65    64    1
    32    31    28    1
    33   176   179   ar
    34   176   178   ar
    35   179   181   ar
    36    28    29    1
    37    60    61    1
    38   177   178   ar
    39    61    64    1
    40   178   180   ar
    41   171   172    2
    42   181   182   ar
    43    29    30    2
    44   180   182   ar
    45   184   183    1
    46   184   185    1
    47   190   189    2
    48   187   185   am
    49   187   188    1
    50   162   161    2
    51   163   164    1
    52   163   160    1
    53   161   160    1
    54   185   186    2
    55   165   164   ar
    56   165   167   ar
    57   192   191    1
    58   189   188    1
    59   189   193   am
    60   164   166   ar
    61   191   188    1
    62   199   198    2
    63   167   168   ar
    64   160   159    1
    65   116   115    1
    66   117   115    1
    67   108   109    1
    68   108   105    1
    69   166   168   ar
    70   107   106    2
    71   194   193    1
    72   194   197    1
    73   194   195    1
    74   157   156    2
    75   115   114    1
    76   198   197    1
    77   198   200   am
    78   105   106    1
    79   105   104    1
    80   106   110   am
    81   114   111    1
    82   195   196    2
    83   156   155    1
    84   110   111    1
    85   111   112    1
    86   104    99   am
    87   100    99    2
    88   154   155    1
    89   154   144   am
    90    99    98    1
    91   155   158    1
    92   140   139    2
    93   146   143    1
    94   146   147    1
    95   143   144    1
    96   143   142    1
    97   112   118   am
    98   112   113    2
    99   144   145    2
   100    18    16   ar
   101    18    17   ar
   102   121   120    2
   103   118   119    1
   104   139   142   am
   105   139   138    1
   106    16    14   ar
   107    98    97    1
   108    98   101    1
   109   148   147   ar
   110   148   150   ar
   111   147   149   ar
   112    17    15   ar
   113   120   119    1
   114   120   122   am
   115   137   138    1
   116   102   101    1
   117   141   138    1
   118   101   103    1
   119   150   152   ar
   120    14    13   ar
   121   149   151   ar
   122   123   122    1
   123   123   124    1
   124    15    13   ar
   125    13    12    1
   126   152   151   ar
   127   152   153    1
   128    21    22    2
   129    21    20    1
   130   129   128    2
   131    92    91    2
   132   124   126   am
   133   124   125    2
   134   126   127    1
   135    20    19    1
   136    20    23    1
   137    86    85    2
   138   128   127    1
   139    91    90    1
   140    12     9    1
   141    11    10    2
   142   127   130    1
   143    19    10   am
   144    23    24    1
   145    10     9    1
   146   135   136   ar
   147   135   133   ar
   148    89    90    1
   149    85    84    1
   150   136   134   ar
   151   133   131   ar
   152     9     8    1
   153    83    84    1
   154    90    93    1
   155    24    25    1
   156   134   132   ar
   157   131   132   ar
   158   131   130    1
   159     8     3   am
   160    84    87    1
   161    93    94    1
   162    25    26    1
   163    87    88    1
   164     3     2    1
   165     3     4    2
   166     2     5    1
   167     2     1    1
   168    94    95    1
   169    94    96    1
   170     5     6    1
   171     1     7    1
   172     6     7    1
   173    35    36    1
   174    44    42   ar
   175    44    45   ar
   176    42    40   ar
   177    45    43   ar
   178    36    39    1
   179    36    37    1
   180    59    58    2
   181    38    37    2
   182    40    39    1
   183    40    41   ar
   184    57    58    1
   185    57    56    1
   186    43    41   ar
   187    53    55   ar
   188    53    51   ar
   189    55    54   ar
   190    51    50    1
   191    51    52   ar
   192    54    52   ar
   193    50    47    1
   194    46    47    1
   195    47    48    1
   196    48    49    2
