@<TRIPOS>MOLECULE
tmp/4ep9A00.pdb
 169 159 0 0 0
SMALL
GASTEIGER

@<TRIPOS>ATOM
      1  N         -6.9590  -12.5110   56.1860 N.3   102  PRO102     -0.2116
      2  CA        -7.5300  -12.8680   54.8870 C.3   102  PRO102      0.1372
      3  C         -8.5000  -11.7940   54.3480 C.2   102  PRO102      0.2244
      4  O         -8.7320  -10.7870   55.0200 O.2   102  PRO102     -0.2868
      5  CB        -8.2980  -14.1480   55.2220 C.3   102  PRO102      0.0268
      6  CG        -8.9090  -13.8400   56.5650 C.3   102  PRO102      0.0207
      7  CD        -7.8660  -12.9040   57.2890 C.3   102  PRO102      0.0892
      8  N        -27.8420  -22.9670   62.9100 N.3   145  PHE145     -0.1241
      9  CA       -27.6360  -23.9190   61.8120 C.3   145  PHE145      0.1605
     10  C        -28.7660  -24.9450   61.8250 C.2   145  PHE145      0.2264
     11  O        -28.8760  -25.7530   62.7560 O.2   145  PHE145     -0.2867
     12  CB       -26.2570  -24.5800   61.9230 C.3   145  PHE145      0.0534
     13  CG       -25.9440  -25.5390   60.8010 C.ar  145  PHE145     -0.0203
     14  CD1      -25.7060  -25.0770   59.5110 C.ar  145  PHE145     -0.0042
     15  CD2      -25.8820  -26.9100   61.0390 C.ar  145  PHE145     -0.0042
     16  CE1      -25.4170  -25.9690   58.4710 C.ar  145  PHE145     -0.0003
     17  CE2      -25.5940  -27.8070   60.0030 C.ar  145  PHE145     -0.0003
     18  CZ       -25.3570  -27.3320   58.7230 C.ar  145  PHE145     -0.0000
     19  N         -9.9260   -8.6390   57.1120 N.3   339  PHE339     -0.1241
     20  CA       -10.0280   -8.6420   58.5720 C.3   339  PHE339      0.1605
     21  C         -8.8300   -9.2050   59.2930 C.2   339  PHE339      0.2264
     22  O         -8.0640   -9.9810   58.7230 O.2   339  PHE339     -0.2867
     23  CB       -11.3440   -9.2750   59.0790 C.3   339  PHE339      0.0534
     24  CG       -11.4720  -10.7720   58.8680 C.ar  339  PHE339     -0.0203
     25  CD1      -11.3100  -11.6560   59.9440 C.ar  339  PHE339     -0.0042
     26  CD2      -11.8570  -11.2930   57.6250 C.ar  339  PHE339     -0.0042
     27  CE1      -11.4690  -13.0590   59.7720 C.ar  339  PHE339     -0.0003
     28  CE2      -12.0220  -12.6900   57.4390 C.ar  339  PHE339     -0.0003
     29  CZ       -11.8260  -13.5670   58.5140 C.ar  339  PHE339     -0.0000
     30  N         -7.4910  -11.5950   62.1800 N.3   341  HIS341     -0.1241
     31  CA        -8.0670  -12.9100   62.4670 C.3   341  HIS341      0.1621
     32  C         -8.1210  -13.2790   63.9360 C.2   341  HIS341      0.2264
     33  O         -8.8840  -14.1630   64.3200 O.2   341  HIS341     -0.2867
     34  CB        -7.3770  -14.0170   61.6530 C.3   341  HIS341      0.0745
     35  CG        -8.3040  -15.1190   61.2280 C.ar  341  HIS341      0.0817
     36  ND1       -9.1780  -15.7380   62.0950 N.ar  341  HIS341     -0.2268
     37  CD2       -8.4960  -15.7060   60.0240 C.ar  341  HIS341      0.1154
     38  CE1       -9.8790  -16.6480   61.4420 C.ar  341  HIS341      0.1986
     39  NE2       -9.4850  -16.6480   60.1840 N.ar  341  HIS341     -0.2212
     40  N        -13.8600  -15.4450   63.8470 N.3   345  ASP345     -0.1225
     41  CA       -13.7290  -16.4160   62.7790 C.3   345  ASP345      0.1805
     42  C        -14.6230  -16.1540   61.5610 C.2   345  ASP345      0.2598
     43  O        -15.4210  -15.2050   61.5300 O.2   345  ASP345     -0.2718
     44  CB       -13.9810  -17.8080   63.3520 C.3   345  ASP345      0.1424
     45  CG       -12.9940  -18.1700   64.4600 C.2   345  ASP345      0.3668
     46  OD1      -11.7690  -18.0370   64.2430 O.co2 345  ASP345     -0.2456
     47  OD2      -13.4400  -18.5680   65.5570 O.co2 345  ASP345     -0.2456
     48  N        -14.4840  -17.0390   60.5760 N.am  346  GLY346     -0.1942
     49  CA       -15.1530  -16.9470   59.2720 C.3   346  GLY346      0.2014
     50  C        -16.6550  -16.8140   59.3080 C.2   346  GLY346      0.2638
     51  O        -17.2170  -15.9820   58.6040 O.2   346  GLY346     -0.2714
     52  N        -17.2970  -17.6280   60.1450 N.am  347  VAL347     -0.1977
     53  CA       -18.7550  -17.6310   60.3080 C.3   347  VAL347      0.1596
     54  C        -19.3370  -16.2990   60.8190 C.2   347  VAL347      0.2287
     55  O        -20.4170  -15.8670   60.3770 O.2   347  VAL347     -0.2864
     56  CB       -19.2140  -18.8160   61.2010 C.3   347  VAL347      0.0276
     57  CG1      -20.6970  -18.7580   61.4640 C.3   347  VAL347      0.0022
     58  CG2      -18.8620  -20.1450   60.5270 C.3   347  VAL347      0.0022
     59  N        -18.7200  -13.6100   58.0460 N.3   350  LEU350     -0.1245
     60  CA       -19.5890  -13.9040   56.9140 C.3   350  LEU350      0.1561
     61  C        -21.0240  -13.4630   57.1430 C.2   350  LEU350      0.2260
     62  O        -21.6720  -13.0190   56.2070 O.2   350  LEU350     -0.2867
     63  CB       -19.5600  -15.3960   56.5490 C.3   350  LEU350      0.0270
     64  CG       -20.4150  -15.8520   55.3730 C.3   350  LEU350      0.0019
     65  CD1      -19.8640  -15.2740   54.0530 C.3   350  LEU350      0.0001
     66  CD2      -20.5090  -17.3950   55.3170 C.3   350  LEU350      0.0001
     67  N        -22.8250  -11.0300   54.7630 N.3   354  ASN354     -0.1240
     68  CA       -24.1200  -11.3140   54.1370 C.3   354  ASN354      0.1653
     69  C        -25.2040  -10.2770   54.3880 C.2   354  ASN354      0.2266
     70  O        -25.9150   -9.8890   53.4510 O.2   354  ASN354     -0.2867
     71  CB       -24.6270  -12.6900   54.5620 C.3   354  ASN354      0.1155
     72  CG       -23.7940  -13.8090   53.9970 C.2   354  ASN354      0.2627
     73  OD1      -22.9680  -13.5820   53.1120 O.2   354  ASN354     -0.2716
     74  ND2      -24.0140  -15.0400   54.5000 N.am  354  ASN354     -0.0877
     75  N        -21.8080  -28.3400   42.6810 N.3   422  LYS422     -0.1245
     76  CA       -22.5560  -28.9830   43.7460 C.3   422  LYS422      0.1561
     77  C        -23.7650  -29.8260   43.2730 C.2   422  LYS422      0.2260
     78  O        -23.9380  -30.9710   43.7120 O.2   422  LYS422     -0.2867
     79  CB       -22.9850  -27.8840   44.7160 C.3   422  LYS422      0.0271
     80  CG       -23.5540  -28.3370   46.0330 C.3   422  LYS422      0.0035
     81  CD       -23.5290  -27.1900   47.0320 C.3   422  LYS422      0.0206
     82  CE       -22.1070  -26.9290   47.4990 C.3   422  LYS422      0.1093
     83  NZ       -21.8360  -25.4920   47.7300 N.3   422  LYS422     -0.1314
     84  N        -17.5640  -30.7530   48.9540 N.3   433  ASP433     -0.1239
     85  CA       -16.3520  -30.3790   49.6870 C.3   433  ASP433      0.1674
     86  C        -15.2660  -31.4490   49.5520 C.2   433  ASP433      0.2266
     87  O        -14.1110  -31.1210   49.2870 O.2   433  ASP433     -0.2867
     88  CB       -16.6500  -30.0620   51.1680 C.3   433  ASP433      0.1410
     89  CG       -15.5240  -29.2590   51.8310 C.2   433  ASP433      0.3668
     90  OD1      -15.1590  -28.1910   51.3150 O.co2 433  ASP433     -0.2456
     91  OD2      -15.0010  -29.6800   52.8720 O.co2 433  ASP433     -0.2456
     92  N         -7.8810  -27.9340   56.5360 N.3   456  GLU456     -0.1231
     93  CA        -9.1620  -27.2880   56.1950 C.3   456  GLU456      0.1699
     94  C         -9.8260  -26.7420   57.4620 C.2   456  GLU456      0.2593
     95  O         -9.9730  -27.4670   58.4360 O.2   456  GLU456     -0.2718
     96  CB       -10.1330  -28.2440   55.4880 C.3   456  GLU456      0.0402
     97  CG       -11.4180  -27.5740   55.0370 C.3   456  GLU456      0.1161
     98  CD       -12.4650  -28.5300   54.4520 C.2   456  GLU456      0.3649
     99  OE1      -12.1450  -29.7160   54.2140 O.co2 456  GLU456     -0.2457
    100  OE2      -13.6170  -28.0710   54.2190 O.co2 456  GLU456     -0.2457
    101  N        -10.2570  -25.4830   57.4180 N.am  457  SER457     -0.1938
    102  CA       -10.9390  -24.8250   58.5400 C.3   457  SER457      0.2055
    103  C        -12.3360  -25.3480   58.7280 C.2   457  SER457      0.2643
    104  O        -13.0970  -25.4660   57.7580 O.2   457  SER457     -0.2714
    105  CB       -11.0400  -23.2990   58.3250 C.3   457  SER457      0.2130
    106  OG        -9.8360  -22.7290   57.8480 O.3   457  SER457     -0.2179
    107  N        -12.6820  -25.6200   59.9820 N.am  458  CYS458     -0.1953
    108  CA       -14.0330  -26.0100   60.3440 C.3   458  CYS458      0.1843
    109  C        -14.4780  -25.2570   61.5960 C.2   458  CYS458      0.2626
    110  O        -13.7900  -25.2550   62.6150 O.2   458  CYS458     -0.2714
    111  CB       -14.1660  -27.5150   60.5870 C.3   458  CYS458      0.0997
    112  SG       -15.9080  -28.0620   60.7190 S.3   458  CYS458     -0.0797
    113  N        -15.6460  -24.6320   61.5140 N.am  459  SER459     -0.1950
    114  CA       -16.1770  -23.8940   62.6600 C.3   459  SER459      0.1924
    115  C        -16.6020  -24.8380   63.7790 C.2   459  SER459      0.2314
    116  O        -17.3150  -25.8370   63.5440 O.2   459  SER459     -0.2863
    117  CB       -17.3640  -23.0210   62.2330 C.3   459  SER459      0.2116
    118  OG       -18.0260  -22.4840   63.3760 O.3   459  SER459     -0.2180
    119  N        -12.4600  -22.7120   65.8280 N.3   468  THR468     -0.1218
    120  CA       -12.3300  -23.6240   64.6890 C.3   468  THR468      0.1862
    121  C        -11.6900  -24.9380   65.1650 C.2   468  THR468      0.2287
    122  O        -11.0770  -24.9980   66.2500 O.2   468  THR468     -0.2866
    123  CB       -11.4550  -23.0270   63.5190 C.3   468  THR468      0.1770
    124  OG1      -10.1580  -22.6570   64.0060 O.3   468  THR468     -0.2211
    125  CG2      -12.1070  -21.8080   62.8940 C.3   468  THR468      0.0375
    126  N         -9.9900  -29.8020   60.0260 N.3   471  ILE471     -0.1245
    127  CA       -10.2920  -30.9700   59.2000 C.3   471  ILE471      0.1561
    128  C         -9.0040  -31.3210   58.4800 C.2   471  ILE471      0.2260
    129  O         -8.3140  -30.4340   57.9430 O.2   471  ILE471     -0.2867
    130  CB       -11.4560  -30.7240   58.1780 C.3   471  ILE471      0.0252
    131  CG1      -12.7640  -30.4740   58.9280 C.3   471  ILE471      0.0019
    132  CG2      -11.6130  -31.9380   57.2100 C.3   471  ILE471      0.0019
    133  CD1      -13.9140  -29.9250   58.0770 C.3   471  ILE471      0.0001
    134  N        -15.4420  -34.2490   58.7490 N.3   512  THR512     -0.1218
    135  CA       -16.1320  -32.9640   58.8300 C.3   512  THR512      0.1862
    136  C        -17.0990  -32.8910   60.0260 C.2   512  THR512      0.2287
    137  O        -17.0830  -31.9310   60.7920 O.2   512  THR512     -0.2866
    138  CB       -16.8610  -32.6880   57.5110 C.3   512  THR512      0.1770
    139  OG1      -15.8940  -32.6200   56.4550 O.3   512  THR512     -0.2211
    140  CG2      -17.6980  -31.3650   57.5650 C.3   512  THR512      0.0375
    141  N         -9.4320  -23.1860   52.7410 N.3   559  SER559     -0.1202
    142  CA       -10.5670  -22.6610   53.4680 C.3   559  SER559      0.2020
    143  C        -11.6770  -22.3840   52.4780 C.2   559  SER559      0.2619
    144  O        -11.4450  -21.8970   51.3750 O.2   559  SER559     -0.2717
    145  CB       -10.1640  -21.3820   54.2170 C.3   559  SER559      0.2103
    146  OG       -11.2680  -20.7350   54.8300 O.3   559  SER559     -0.2182
    147  N        -12.8910  -22.7130   52.8680 N.am  560  THR560     -0.1938
    148  CA       -14.0350  -22.3550   52.0570 C.3   560  THR560      0.2028
    149  C        -15.1180  -21.6950   52.8940 C.2   560  THR560      0.2642
    150  O        -15.3280  -22.0550   54.0590 O.2   560  THR560     -0.2714
    151  CB       -14.6230  -23.5550   51.3040 C.3   560  THR560      0.1808
    152  OG1      -15.5990  -23.0920   50.3690 O.3   560  THR560     -0.2208
    153  CG2      -15.2630  -24.5800   52.2470 C.3   560  THR560      0.0379
    154  N        -15.7620  -20.7080   52.2860 N.am  561  LEU561     -0.1963
    155  CA       -17.0250  -20.1510   52.7520 C.3   561  LEU561      0.1728
    156  C        -17.9000  -19.8930   51.5320 C.2   561  LEU561      0.2616
    157  O        -17.4000  -19.4690   50.4960 O.2   561  LEU561     -0.2715
    158  CB       -16.7960  -18.8560   53.5290 C.3   561  LEU561      0.0311
    159  CG       -16.4160  -18.9650   55.0190 C.3   561  LEU561      0.0022
    160  CD1      -16.1360  -17.5920   55.5730 C.3   561  LEU561      0.0001
    161  CD2      -17.5050  -19.6600   55.8580 C.3   561  LEU561      0.0001
    162  N        -19.1940  -20.1790   51.6240 N.am  562  ASN562     -0.1972
    163  CA       -20.0850  -19.8770   50.4990 C.3   562  ASN562      0.1688
    164  C        -21.2870  -19.0320   50.8680 C.2   562  ASN562      0.2292
    165  O        -21.9410  -19.2530   51.8960 O.2   562  ASN562     -0.2864
    166  CB       -20.5430  -21.1310   49.7480 C.3   562  ASN562      0.1181
    167  CG       -21.2210  -20.7980   48.4090 C.2   562  ASN562      0.2629
    168  OD1      -20.6570  -20.0960   47.5580 O.2   562  ASN562     -0.2716
    169  ND2      -22.4420  -21.2940   48.2310 N.am  562  ASN562     -0.0877
@<TRIPOS>BOND
     1    75    76    1
     2    77    78    2
     3    77    76    1
     4    76    79    1
     5    79    80    1
     6    80    81    1
     7    81    82    1
     8    82    83    1
     9   168   167    2
    10   169   167   am
    11   167   166    1
    12    84    85    1
    13    87    86    2
    14    86    85    1
    15    85    88    1
    16   166   163    1
    17   152   151    1
    18   157   156    2
    19   163   164    1
    20   163   162    1
    21   164   165    2
    22    88    89    1
    23   151   148    1
    24   151   153    1
    25    90    89   ar
    26   144   143    2
    27   156   162   am
    28   156   155    1
    29    89    91   ar
    30   148   147    1
    31   148   149    1
    32   154   155    1
    33   154   149   am
    34   143   147   am
    35   143   142    1
    36   141   142    1
    37   155   158    1
    38   149   150    2
    39    73    72    2
    40    70    69    2
    41   142   145    1
    42   158   159    1
    43    72    74   am
    44    72    71    1
    45    65    64    1
    46    68    69    1
    47    68    71    1
    48    68    67    1
    49    99    98   ar
    50   145   146    1
    51   100    98   ar
    52     3     2    1
    53     3     4    2
    54    98    97    1
    55     2     5    1
    56     2     1    1
    57   159   160    1
    58   159   161    1
    59    97    96    1
    60     5     6    1
    61    66    64    1
    62    64    63    1
    63    96    93    1
    64     1     7    1
    65    93    92    1
    66    93    94    1
    67    62    61    2
    68   139   138    1
    69    63    60    1
    70     6     7    1
    71    60    61    1
    72    60    59    1
    73    19    20    1
    74   132   130    1
    75   101    94   am
    76   101   102    1
    77    28    26   ar
    78    28    29   ar
    79    94    95    2
    80   138   140    1
    81   138   135    1
    82    26    24   ar
    83   104   103    2
    84   106   105    1
    85   129   128    2
    86   133   131    1
    87   130   131    1
    88   130   127    1
    89   105   102    1
    90    16    18   ar
    91    16    14   ar
    92   128   127    1
    93    29    27   ar
    94   102   103    1
    95    20    23    1
    96    20    21    1
    97    51    50    2
    98    18    17   ar
    99    22    21    2
   100   103   107   am
   101   134   135    1
   102   135   136    1
   103    24    23    1
   104    24    25   ar
   105   127   126    1
   106    49    50    1
   107    49    48    1
   108    50    52   am
   109    14    13   ar
   110    27    25   ar
   111   107   108    1
   112    17    15   ar
   113    37    39   ar
   114    37    35   ar
   115   136   137    2
   116    52    53    1
   117    39    38   ar
   118    53    54    1
   119    53    56    1
   120   108   111    1
   121   108   109    1
   122    55    54    2
   123    58    56    1
   124    48    42   am
   125   111   112    1
   126    13    15   ar
   127    13    12    1
   128    56    57    1
   129    35    34    1
   130    35    36   ar
   131    38    36   ar
   132   113   109   am
   133   113   114    1
   134    43    42    2
   135    42    41    1
   136   109   110    2
   137    34    31    1
   138     9    10    1
   139     9    12    1
   140     9     8    1
   141    10    11    2
   142    30    31    1
   143   117   114    1
   144   117   118    1
   145    31    32    1
   146   114   115    1
   147    41    44    1
   148    41    40    1
   149   125   123    1
   150    44    45    1
   151   123   124    1
   152   123   120    1
   153   116   115    2
   154    32    33    2
   155    46    45   ar
   156    45    47   ar
   157   120   121    1
   158   120   119    1
   159   121   122    2
