@<TRIPOS>MOLECULE
tmp/4epaA01.pdb
 92 90 0 0 0
SMALL
GASTEIGER

@<TRIPOS>ATOM
      1  N         51.5620   74.7150  103.9940 N.3   126  PRO126     -0.2116
      2  CA        50.7770   74.4620  105.1830 C.3   126  PRO126      0.1372
      3  C         51.2590   73.2210  105.8850 C.2   126  PRO126      0.2244
      4  O         51.6100   72.2500  105.2310 O.2   126  PRO126     -0.2868
      5  CB        49.3730   74.2290  104.6320 C.3   126  PRO126      0.0268
      6  CG        49.3980   74.8300  103.2730 C.3   126  PRO126      0.0207
      7  CD        50.7620   74.5190  102.7850 C.3   126  PRO126      0.0892
      8  N         49.4520   74.3500  114.1330 N.3   146  LEU146     -0.1231
      9  CA        48.9590   74.6620  112.8030 C.3   146  LEU146      0.1693
     10  C         49.7740   75.8180  112.3010 C.2   146  LEU146      0.2593
     11  O         49.9330   76.7750  113.0270 O.2   146  LEU146     -0.2718
     12  CB        47.5010   75.0850  112.8980 C.3   146  LEU146      0.0284
     13  CG        46.7580   75.3250  111.5880 C.3   146  LEU146      0.0019
     14  CD1       47.0150   74.1910  110.6080 C.3   146  LEU146      0.0001
     15  CD2       45.2510   75.4780  111.8410 C.3   146  LEU146      0.0001
     16  N         50.3150   75.7410  111.0920 N.am  147  SER147     -0.1938
     17  CA        51.0420   76.8820  110.5280 C.3   147  SER147      0.2055
     18  C         50.8080   77.0220  109.0380 C.2   147  SER147      0.2644
     19  O         50.2160   76.1410  108.4110 O.2   147  SER147     -0.2714
     20  CB        52.5230   76.7180  110.7560 C.3   147  SER147      0.2130
     21  OG        53.0420   75.8650  109.7660 O.3   147  SER147     -0.2179
     22  N         51.2820   78.1150  108.4570 N.am  148  GLY148     -0.1940
     23  CA        51.0990   78.3250  107.0200 C.3   148  GLY148      0.1999
     24  C         50.7350   79.7440  106.6470 C.2   148  GLY148      0.2481
     25  O         50.7770   80.6280  107.4830 O.2   148  GLY148     -0.2729
     26  N         50.3700   79.9700  105.3840 N.am  149  PRO149     -0.2715
     27  CA        50.1080   81.3060  104.8730 C.3   149  PRO149      0.1536
     28  C         48.8470   81.9410  105.3940 C.2   149  PRO149      0.2598
     29  O         47.8160   81.2880  105.4550 O.2   149  PRO149     -0.2715
     30  CB        49.9650   81.0770  103.3750 C.3   149  PRO149      0.0310
     31  CG        49.5020   79.7050  103.2570 C.3   149  PRO149      0.0237
     32  CD        50.1990   78.9540  104.3410 C.3   149  PRO149      0.0939
     33  N         48.9530   83.2120  105.7630 N.am  150  ILE150     -0.1978
     34  CA        47.8100   84.0290  106.1530 C.3   150  ILE150      0.1596
     35  C         47.3540   84.8430  104.9610 C.2   150  ILE150      0.2287
     36  O         46.1560   84.9760  104.7290 O.2   150  ILE150     -0.2864
     37  CB        48.1570   84.9910  107.2980 C.3   150  ILE150      0.0276
     38  CG1       48.3390   84.2060  108.5960 C.3   150  ILE150      0.0022
     39  CG2       47.0620   86.0270  107.4740 C.3   150  ILE150      0.0022
     40  CD1       48.4120   85.0710  109.8340 C.3   150  ILE150      0.0001
     41  N         52.0670   82.4200  109.3420 N.3   157  GLY157     -0.1210
     42  CA        51.7360   82.3480  110.7610 C.3   157  GLY157      0.1956
     43  C         51.7270   80.9470  111.3250 C.2   157  GLY157      0.2613
     44  O         51.6720   79.9660  110.5840 O.2   157  GLY157     -0.2717
     45  N         51.8000   80.8560  112.6450 N.am  158  SER158     -0.1938
     46  CA        51.7200   79.5750  113.3160 C.3   158  SER158      0.2055
     47  C         51.2440   79.7240  114.7350 C.2   158  SER158      0.2642
     48  O         51.3500   80.7800  115.3270 O.2   158  SER158     -0.2714
     49  CB        53.0640   78.8370  113.2980 C.3   158  SER158      0.2130
     50  OG        53.9110   79.2430  114.3560 O.3   158  SER158     -0.2179
     51  N         50.7020   78.6350  115.2570 N.am  159  VAL159     -0.1977
     52  CA        50.1280   78.5930  116.5850 C.3   159  VAL159      0.1596
     53  C         50.4220   77.2300  117.1600 C.2   159  VAL159      0.2287
     54  O         50.1790   76.2280  116.4990 O.2   159  VAL159     -0.2864
     55  CB        48.6180   78.7380  116.5480 C.3   159  VAL159      0.0276
     56  CG1       48.0810   78.8330  117.9570 C.3   159  VAL159      0.0022
     57  CG2       48.2430   79.9560  115.7670 C.3   159  VAL159      0.0022
     58  N         52.4290   81.9160  119.5150 N.3   189  VAL189     -0.1231
     59  CA        52.0880   82.3600  118.1470 C.3   189  VAL189      0.1692
     60  C         53.2530   82.9870  117.3850 C.2   189  VAL189      0.2592
     61  O         54.0810   83.6470  117.9790 O.2   189  VAL189     -0.2718
     62  CB        50.9700   83.3640  118.1670 C.3   189  VAL189      0.0266
     63  CG1       49.7870   82.7660  118.8790 C.3   189  VAL189      0.0020
     64  CG2       51.4150   84.6290  118.8370 C.3   189  VAL189      0.0020
     65  N         53.3160   82.7800  116.0710 N.am  190  LYS190     -0.1966
     66  CA        54.3350   83.4190  115.2270 C.3   190  LYS190      0.1728
     67  C         53.7260   84.1370  114.0350 C.2   190  LYS190      0.2616
     68  O         52.8110   83.6420  113.4190 O.2   190  LYS190     -0.2715
     69  CB        55.3230   82.3930  114.7090 C.3   190  LYS190      0.0311
     70  CG        56.1480   81.7480  115.8090 C.3   190  LYS190      0.0038
     71  CD        57.2510   80.8260  115.2390 C.3   190  LYS190      0.0206
     72  CE        58.2950   80.4510  116.2960 C.3   190  LYS190      0.1093
     73  NZ        57.7140   79.6520  117.4300 N.3   190  LYS190     -0.1314
     74  N         54.2280   85.3190  113.7240 N.am  191  LEU191     -0.1977
     75  CA        53.9260   85.9750  112.4740 C.3   191  LEU191      0.1596
     76  C         55.2320   86.1960  111.7390 C.2   191  LEU191      0.2287
     77  O         56.2250   86.6100  112.3310 O.2   191  LEU191     -0.2864
     78  CB        53.2550   87.3090  112.7290 C.3   191  LEU191      0.0297
     79  CG        51.7900   87.2090  113.1140 C.3   191  LEU191      0.0022
     80  CD1       51.2720   88.5630  113.6080 C.3   191  LEU191      0.0001
     81  CD2       50.9820   86.7040  111.9200 C.3   191  LEU191      0.0001
     82  N         47.4110   67.9080  106.6690 N.3   617  PHE617     -0.1241
     83  CA        47.7790   68.1750  105.2790 C.3   617  PHE617      0.1605
     84  C         48.7070   67.0980  104.7170 C.2   617  PHE617      0.2264
     85  O         48.3830   66.4290  103.7370 O.2   617  PHE617     -0.2867
     86  CB        48.4580   69.5350  105.1480 C.3   617  PHE617      0.0534
     87  CG        47.7410   70.6550  105.8390 C.ar  617  PHE617     -0.0203
     88  CD1       46.6780   71.2840  105.2430 C.ar  617  PHE617     -0.0042
     89  CD2       48.1690   71.1160  107.0620 C.ar  617  PHE617     -0.0042
     90  CE1       46.0290   72.3450  105.8710 C.ar  617  PHE617     -0.0003
     91  CE2       47.5270   72.1710  107.6920 C.ar  617  PHE617     -0.0003
     92  CZ        46.4520   72.7810  107.0950 C.ar  617  PHE617     -0.0000
@<TRIPOS>BOND
     1     7     6    1
     2     7     1    1
     3    31    30    1
     4    31    32    1
     5     6     5    1
     6    30    27    1
     7    85    84    2
     8     1     2    1
     9    32    26    1
    10     5     2    1
    11    84    83    1
    12    36    35    2
    13    27    26    1
    14    27    28    1
    15    35    34    1
    16    86    83    1
    17    86    87    1
    18     2     3    1
    19     4     3    2
    20    88    87   ar
    21    88    90   ar
    22    83    82    1
    23    26    24   am
    24    28    29    2
    25    28    33   am
    26    33    34    1
    27    87    89   ar
    28    90    92   ar
    29    34    37    1
    30    24    23    1
    31    24    25    2
    32    23    22    1
    33    89    91   ar
    34    92    91   ar
    35    37    39    1
    36    37    38    1
    37    19    18    2
    38    22    18   am
    39    38    40    1
    40    18    17    1
    41    41    42    1
    42    21    20    1
    43    17    20    1
    44    17    16    1
    45    44    43    2
    46    14    13    1
    47    42    43    1
    48    16    10   am
    49    43    45   am
    50    13    15    1
    51    13    12    1
    52    76    77    2
    53    76    75    1
    54    81    79    1
    55    10     9    1
    56    10    11    2
    57    75    78    1
    58    75    74    1
    59    45    46    1
    60    78    79    1
    61     9    12    1
    62     9     8    1
    63    79    80    1
    64    49    46    1
    65    49    50    1
    66    46    47    1
    67    68    67    2
    68    74    67   am
    69    67    66    1
    70    69    66    1
    71    69    70    1
    72    47    51   am
    73    47    48    2
    74    66    65    1
    75    71    70    1
    76    71    72    1
    77    51    52    1
    78    57    55    1
    79    65    60   am
    80    72    73    1
    81    54    53    2
    82    55    52    1
    83    55    56    1
    84    52    53    1
    85    60    61    2
    86    60    59    1
    87    59    62    1
    88    59    58    1
    89    62    64    1
    90    62    63    1
