@<TRIPOS>MOLECULE
tmp/4ephA01.pdb
 198 194 0 0 0
SMALL
GASTEIGER

@<TRIPOS>ATOM
      1  N         -0.4660  -11.4540   55.6310 N.3    98  LEU98      -0.1231
      2  CA        -0.0750  -12.6430   54.8630 C.3    98  LEU98       0.1693
      3  C         -0.0030  -13.8930   55.7460 C.2    98  LEU98       0.2592
      4  O         -0.5650  -14.9130   55.3880 O.2    98  LEU98      -0.2718
      5  CB         1.2550  -12.4120   54.1410 C.3    98  LEU98       0.0284
      6  CG         1.3470  -11.9970   52.6660 C.3    98  LEU98       0.0019
      7  CD1        0.3540  -10.9260   52.1870 C.3    98  LEU98       0.0001
      8  CD2        2.8120  -11.6780   52.3300 C.3    98  LEU98       0.0001
      9  N          0.6460  -13.8100   56.9040 N.am   99  ASN99      -0.1960
     10  CA         0.6820  -14.9310   57.8200 C.3    99  ASN99       0.1819
     11  C         -0.7220  -15.2590   58.3850 C.2    99  ASN99       0.2621
     12  O         -1.0440  -16.4560   58.5910 O.2    99  ASN99      -0.2715
     13  CB         1.6900  -14.6890   58.9500 C.3    99  ASN99       0.1195
     14  CG         3.1520  -14.5380   58.4420 C.2    99  ASN99       0.2630
     15  OD1        3.8240  -13.5330   58.7090 O.2    99  ASN99      -0.2716
     16  ND2        3.6310  -15.5300   57.7220 N.am   99  ASN99      -0.0877
     17  N         -1.5510  -14.2190   58.6220 N.am  100  PHE100     -0.1974
     18  CA        -2.8190  -14.3940   59.3510 C.3   100  PHE100      0.1639
     19  C         -4.0570  -13.7400   58.7430 C.2   100  PHE100      0.2290
     20  O         -5.1220  -14.3660   58.7340 O.2   100  PHE100     -0.2864
     21  CB        -2.7070  -13.9860   60.8280 C.3   100  PHE100      0.0560
     22  CG        -1.5890  -14.6650   61.5650 C.ar  100  PHE100     -0.0200
     23  CD1       -1.7700  -15.9460   62.1200 C.ar  100  PHE100     -0.0042
     24  CD2       -0.3440  -14.0170   61.7240 C.ar  100  PHE100     -0.0042
     25  CE1       -0.7260  -16.5910   62.8200 C.ar  100  PHE100     -0.0003
     26  CE2        0.7080  -14.6320   62.4120 C.ar  100  PHE100     -0.0003
     27  CZ         0.5240  -15.9330   62.9560 C.ar  100  PHE100     -0.0000
     28  N         -6.8080  -12.7340   56.2510 N.3   102  PRO102     -0.2102
     29  CA        -7.3710  -13.0630   54.9460 C.3   102  PRO102      0.1504
     30  C         -8.2950  -11.9520   54.4410 C.2   102  PRO102      0.2576
     31  O         -8.4750  -10.9540   55.1360 O.2   102  PRO102     -0.2718
     32  CB        -8.2270  -14.2900   55.2650 C.3   102  PRO102      0.0282
     33  CG        -8.8320  -13.9490   56.6120 C.3   102  PRO102      0.0208
     34  CD        -7.7560  -13.0790   57.3340 C.3   102  PRO102      0.0893
     35  N         -8.8890  -12.1420   53.2630 N.am  103  PHE103     -0.1963
     36  CA        -9.9990  -11.2670   52.7950 C.3   103  PHE103      0.1771
     37  C        -11.1310  -12.1000   52.2110 C.2   103  PHE103      0.2619
     38  O        -10.9410  -13.2700   51.8650 O.2   103  PHE103     -0.2715
     39  CB        -9.5360  -10.2080   51.7710 C.3   103  PHE103      0.0574
     40  CG        -9.2840  -10.7730   50.3650 C.ar  103  PHE103     -0.0200
     41  CD1      -10.3250  -10.8820   49.4360 C.ar  103  PHE103     -0.0042
     42  CD2       -8.0000  -11.1830   49.9880 C.ar  103  PHE103     -0.0042
     43  CE1      -10.1070  -11.3890   48.1670 C.ar  103  PHE103     -0.0003
     44  CE2       -7.7630  -11.7100   48.6970 C.ar  103  PHE103     -0.0003
     45  CZ        -8.8260  -11.8080   47.7830 C.ar  103  PHE103     -0.0000
     46  N        -12.3060  -11.4960   52.1370 N.am  104  MET104     -0.1977
     47  CA       -13.4370  -11.9780   51.3440 C.3   104  MET104      0.1605
     48  C        -13.9750  -10.7980   50.5430 C.2   104  MET104      0.2287
     49  O        -14.2500   -9.7690   51.1320 O.2   104  MET104     -0.2864
     50  CB       -14.5470  -12.4730   52.2650 C.3   104  MET104      0.0413
     51  CG       -14.3910  -13.8790   52.7950 C.3   104  MET104      0.0598
     52  SD       -15.5960  -14.3150   54.1070 S.3   104  MET104     -0.1393
     53  CE       -16.4660  -12.7800   54.4150 C.3   104  MET104      0.0692
     54  N         -9.6050   -8.8190   57.0840 N.3   339  PHE339     -0.1241
     55  CA        -9.7430   -8.8490   58.5380 C.3   339  PHE339      0.1605
     56  C         -8.6060   -9.5310   59.3120 C.2   339  PHE339      0.2264
     57  O         -7.8670  -10.3630   58.7830 O.2   339  PHE339     -0.2867
     58  CB       -11.1580   -9.3400   58.9660 C.3   339  PHE339      0.0534
     59  CG       -11.3580  -10.8200   58.8510 C.ar  339  PHE339     -0.0203
     60  CD1      -11.1760  -11.6520   59.9660 C.ar  339  PHE339     -0.0042
     61  CD2      -11.7300  -11.4050   57.6320 C.ar  339  PHE339     -0.0042
     62  CE1      -11.3730  -13.0570   59.8740 C.ar  339  PHE339     -0.0003
     63  CE2      -11.9470  -12.8040   57.5380 C.ar  339  PHE339     -0.0003
     64  CZ       -11.7450  -13.6220   58.6630 C.ar  339  PHE339     -0.0000
     65  N         -7.2500  -11.9480   62.1930 N.3   341  HIS341     -0.1241
     66  CA        -7.8570  -13.2230   62.5210 C.3   341  HIS341      0.1621
     67  C         -7.9570  -13.5610   64.0100 C.2   341  HIS341      0.2264
     68  O         -8.6780  -14.4870   64.3790 O.2   341  HIS341     -0.2867
     69  CB        -7.2310  -14.3690   61.7040 C.3   341  HIS341      0.0745
     70  CG        -8.2270  -15.4290   61.2860 C.ar  341  HIS341      0.0817
     71  ND1       -9.1690  -15.9580   62.1500 N.ar  341  HIS341     -0.2268
     72  CD2       -8.4300  -16.0470   60.0950 C.ar  341  HIS341      0.1154
     73  CE1       -9.9240  -16.8340   61.5040 C.ar  341  HIS341      0.1986
     74  NE2       -9.5010  -16.9040   60.2550 N.ar  341  HIS341     -0.2212
     75  N        -14.2020  -16.8930   60.4480 N.3   346  GLY346     -0.1225
     76  CA       -14.8870  -16.6830   59.1610 C.3   346  GLY346      0.1811
     77  C        -16.4010  -16.6740   59.2480 C.2   346  GLY346      0.2280
     78  O        -17.0720  -15.8780   58.5690 O.2   346  GLY346     -0.2866
     79  N         -4.3430  -28.8870   55.6470 N.3   455  TYR455     -0.1241
     80  CA        -5.1520  -28.2520   56.6710 C.3   455  TYR455      0.1605
     81  C         -6.4490  -27.7740   56.0190 C.2   455  TYR455      0.2264
     82  O         -6.4200  -27.1600   54.9520 O.2   455  TYR455     -0.2867
     83  CB        -4.3830  -27.0510   57.2110 C.3   455  TYR455      0.0534
     84  CG        -5.0210  -26.3220   58.3590 C.ar  455  TYR455     -0.0201
     85  CD1       -4.5170  -26.4510   59.6440 C.ar  455  TYR455     -0.0009
     86  CD2       -6.1130  -25.4730   58.1590 C.ar  455  TYR455     -0.0009
     87  CE1       -5.0850  -25.7740   60.6930 C.ar  455  TYR455      0.0417
     88  CE2       -6.6920  -24.8110   59.2040 C.ar  455  TYR455      0.0417
     89  CZ        -6.1800  -24.9490   60.4690 C.ar  455  TYR455      0.1957
     90  OH        -6.7600  -24.2660   61.5350 O.3   455  TYR455     -0.2866
     91  N         -9.8610  -25.6610   57.5780 N.3   457  SER457     -0.1217
     92  CA       -10.6010  -25.0940   58.7230 C.3   457  SER457      0.1889
     93  C        -12.0700  -25.5590   58.8440 C.2   457  SER457      0.2288
     94  O        -12.7680  -25.7810   57.8450 O.2   457  SER457     -0.2866
     95  CB       -10.5490  -23.5600   58.6790 C.3   457  SER457      0.2089
     96  OG       -10.6010  -23.0370   60.0040 O.3   457  SER457     -0.2183
     97  N         -2.7610  -25.5120   52.6100 N.3   557  SER557     -0.1202
     98  CA        -3.5950  -24.8420   53.6010 C.3   557  SER557      0.2020
     99  C         -4.7830  -24.3300   52.8410 C.2   557  SER557      0.2619
    100  O         -4.6420  -23.5170   51.9240 O.2   557  SER557     -0.2717
    101  CB        -2.8280  -23.7030   54.2660 C.3   557  SER557      0.2103
    102  OG        -3.4670  -23.3070   55.4630 O.3   557  SER557     -0.2182
    103  N         -5.9570  -24.8380   53.2020 N.am  558  THR558     -0.1938
    104  CA        -7.1590  -24.6810   52.4030 C.3   558  THR558      0.2028
    105  C         -8.2940  -24.0460   53.2300 C.2   558  THR558      0.2643
    106  O         -8.3170  -24.1200   54.4670 O.2   558  THR558     -0.2714
    107  CB        -7.6940  -26.0600   51.8860 C.3   558  THR558      0.1808
    108  OG1       -8.2290  -26.7990   52.9950 O.3   558  THR558     -0.2208
    109  CG2       -6.6110  -26.8810   51.1890 C.3   558  THR558      0.0379
    110  N         -9.2560  -23.4500   52.5480 N.am  559  SER559     -0.1935
    111  CA       -10.3840  -22.8540   53.2470 C.3   559  SER559      0.2055
    112  C        -11.4300  -22.5680   52.2340 C.2   559  SER559      0.2644
    113  O        -11.1190  -22.1410   51.1450 O.2   559  SER559     -0.2714
    114  CB        -9.9990  -21.5270   53.9490 C.3   559  SER559      0.2130
    115  OG       -10.7920  -21.3140   55.1040 O.3   559  SER559     -0.2179
    116  N        -12.6710  -22.7850   52.6380 N.am  560  THR560     -0.1936
    117  CA       -13.8390  -22.4300   51.8590 C.3   560  THR560      0.2028
    118  C        -14.9040  -21.8120   52.7610 C.2   560  THR560      0.2642
    119  O        -15.1960  -22.3230   53.8510 O.2   560  THR560     -0.2714
    120  CB       -14.4030  -23.6720   51.1190 C.3   560  THR560      0.1808
    121  OG1      -15.3820  -23.2680   50.1590 O.3   560  THR560     -0.2208
    122  CG2      -14.9680  -24.7260   52.0870 C.3   560  THR560      0.0379
    123  N        -15.4330  -20.6780   52.3200 N.am  561  LEU561     -0.1977
    124  CA       -16.7290  -20.1800   52.7790 C.3   561  LEU561      0.1596
    125  C        -17.5130  -19.8120   51.5240 C.2   561  LEU561      0.2287
    126  O        -16.9200  -19.3740   50.5480 O.2   561  LEU561     -0.2864
    127  CB       -16.5900  -19.0130   53.7710 C.3   561  LEU561      0.0297
    128  CG       -16.1090  -19.4190   55.1880 C.3   561  LEU561      0.0022
    129  CD1      -15.6520  -18.2380   56.0030 C.3   561  LEU561      0.0001
    130  CD2      -17.1520  -20.2060   55.9610 C.3   561  LEU561      0.0001
    131  N        -20.3770  -13.4930   48.2980 N.3   566  VAL566     -0.1245
    132  CA       -18.9060  -13.5940   48.1250 C.3   566  VAL566      0.1561
    133  C        -18.5650  -13.9390   46.6790 C.2   566  VAL566      0.2260
    134  O        -19.0800  -14.9480   46.1390 O.2   566  VAL566     -0.2867
    135  CB       -18.2670  -14.7110   49.0270 C.3   566  VAL566      0.0252
    136  CG1      -16.7070  -14.6800   48.9830 C.3   566  VAL566      0.0019
    137  CG2      -18.7900  -14.6730   50.4720 C.3   566  VAL566      0.0019
    138  N        -15.0910  -14.0240   45.7250 N.3   568  LEU568     -0.1231
    139  CA       -13.8840  -14.8210   45.9620 C.3   568  LEU568      0.1693
    140  C        -13.1980  -14.3730   47.2510 C.2   568  LEU568      0.2593
    141  O        -13.4320  -13.2640   47.7420 O.2   568  LEU568     -0.2718
    142  CB       -12.8930  -14.7350   44.7910 C.3   568  LEU568      0.0284
    143  CG       -12.0370  -13.4770   44.5870 C.3   568  LEU568      0.0019
    144  CD1      -10.8040  -13.8170   43.7740 C.3   568  LEU568      0.0001
    145  CD2      -12.8090  -12.3280   43.9140 C.3   568  LEU568      0.0001
    146  N        -12.3470  -15.2330   47.7900 N.am  569  GLY569     -0.1942
    147  CA       -11.5070  -14.8710   48.9130 C.3   569  GLY569      0.2014
    148  C        -10.0660  -15.2440   48.6290 C.2   569  GLY569      0.2639
    149  O         -9.7330  -15.7710   47.5710 O.2   569  GLY569     -0.2714
    150  N         -9.2120  -14.9930   49.6010 N.am  570  GLY570     -0.1939
    151  CA        -7.7840  -15.1660   49.4070 C.3   570  GLY570      0.2014
    152  C         -7.0710  -15.0890   50.7230 C.2   570  GLY570      0.2639
    153  O         -7.5210  -14.4110   51.6360 O.2   570  GLY570     -0.2714
    154  N         -5.9890  -15.8570   50.8280 N.am  571  PHE571     -0.1959
    155  CA        -5.0640  -15.7460   51.9450 C.3   571  PHE571      0.1771
    156  C         -3.7450  -16.2790   51.4340 C.2   571  PHE571      0.2619
    157  O         -3.7450  -17.0310   50.4710 O.2   571  PHE571     -0.2715
    158  CB        -5.5500  -16.4910   53.1850 C.3   571  PHE571      0.0574
    159  CG        -5.8770  -17.9490   52.9520 C.ar  571  PHE571     -0.0200
    160  CD1       -4.8890  -18.9500   53.1300 C.ar  571  PHE571     -0.0042
    161  CD2       -7.1820  -18.3430   52.6030 C.ar  571  PHE571     -0.0042
    162  CE1       -5.1930  -20.3090   52.9620 C.ar  571  PHE571     -0.0003
    163  CE2       -7.4910  -19.6850   52.4170 C.ar  571  PHE571     -0.0003
    164  CZ        -6.4960  -20.6810   52.6090 C.ar  571  PHE571     -0.0000
    165  N         -2.6370  -15.8550   52.0430 N.am  572  ALA572     -0.1977
    166  CA        -1.3110  -16.3570   51.6900 C.3   572  ALA572      0.1597
    167  C         -1.0390  -17.7490   52.2980 C.2   572  ALA572      0.2287
    168  O         -1.7860  -18.1900   53.1990 O.2   572  ALA572     -0.2864
    169  CB        -0.2490  -15.3660   52.1500 C.3   572  ALA572      0.0319
    170  N          0.6970  -20.4270   54.8270 N.3   574  VAL574     -0.1245
    171  CA         1.1940  -20.3830   56.2210 C.3   574  VAL574      0.1561
    172  C          2.7180  -20.6880   56.3840 C.2   574  VAL574      0.2260
    173  O          3.3480  -20.3120   57.3920 O.2   574  VAL574     -0.2867
    174  CB         0.3420  -21.3020   57.1620 C.3   574  VAL574      0.0252
    175  CG1       -1.0690  -20.7860   57.2790 C.3   574  VAL574      0.0019
    176  CG2        0.2990  -22.7200   56.6710 C.3   574  VAL574      0.0019
    177  N         -7.9160  -20.9060   48.6710 N.3   582  ALA582     -0.1231
    178  CA        -9.2730  -20.4610   48.9480 C.3   582  ALA582      0.1694
    179  C        -10.1330  -20.9970   47.8190 C.2   582  ALA582      0.2592
    180  O         -9.8950  -20.7130   46.6420 O.2   582  ALA582     -0.2718
    181  CB        -9.3540  -18.9380   49.0010 C.3   582  ALA582      0.0304
    182  N        -11.1490  -21.7680   48.1670 N.am  583  TYR583     -0.1962
    183  CA       -11.9350  -22.4170   47.1440 C.3   583  TYR583      0.1771
    184  C        -13.3980  -22.3670   47.5160 C.2   583  TYR583      0.2619
    185  O        -13.7410  -22.1330   48.6760 O.2   583  TYR583     -0.2715
    186  CB       -11.4670  -23.8590   46.9460 C.3   583  TYR583      0.0574
    187  CG       -11.7380  -24.7570   48.1350 C.ar  583  TYR583     -0.0198
    188  CD1      -12.8670  -25.5770   48.1570 C.ar  583  TYR583     -0.0009
    189  CD2      -10.8570  -24.8080   49.2290 C.ar  583  TYR583     -0.0009
    190  CE1      -13.1190  -26.4020   49.2200 C.ar  583  TYR583      0.0417
    191  CE2      -11.1060  -25.6470   50.3090 C.ar  583  TYR583      0.0417
    192  CZ       -12.2450  -26.4380   50.2920 C.ar  583  TYR583      0.1957
    193  OH       -12.5330  -27.2860   51.3350 O.3   583  TYR583     -0.2866
    194  N        -14.2360  -22.5620   46.4980 N.am  584  ALA584     -0.1977
    195  CA       -15.6710  -22.7080   46.6550 C.3   584  ALA584      0.1597
    196  C        -16.2270  -23.6070   45.5440 C.2   584  ALA584      0.2287
    197  O        -15.9410  -23.4040   44.3710 O.2   584  ALA584     -0.2864
    198  CB       -16.3720  -21.3210   46.6530 C.3   584  ALA584      0.0319
@<TRIPOS>BOND
     1   144   143    1
     2   145   143    1
     3   197   196    2
     4   143   142    1
     5   142   139    1
     6   196   195    1
     7   138   139    1
     8   139   140    1
     9   134   133    2
    10   194   195    1
    11   194   184   am
    12   180   179    2
    13   198   195    1
    14   133   132    1
    15   186   183    1
    16   186   187    1
    17   183   184    1
    18   183   182    1
    19   140   141    2
    20   140   146   am
    21   184   185    2
    22   149   148    2
    23    45    43   ar
    24    45    44   ar
    25   146   147    1
    26   179   182   am
    27   179   178    1
    28   132   131    1
    29   132   135    1
    30   187   188   ar
    31   187   189   ar
    32   188   190   ar
    33    43    41   ar
    34   148   147    1
    35   148   150   am
    36   177   178    1
    37    44    42   ar
    38   178   181    1
    39   136   135    1
    40   135   137    1
    41   190   192   ar
    42   189   191   ar
    43   151   150    1
    44   151   152    1
    45    41    40   ar
    46    42    40   ar
    47   121   120    1
    48   192   191   ar
    49   192   193    1
    50    40    39    1
    51   157   156    2
    52    48    49    2
    53    48    47    1
    54   126   125    2
    55   152   154   am
    56   152   153    2
    57   154   155    1
    58   120   117    1
    59   120   122    1
    60   113   112    2
    61   109   107    1
    62    47    46    1
    63    47    50    1
    64   156   155    1
    65   156   165   am
    66   125   124    1
    67   166   165    1
    68   166   169    1
    69   166   167    1
    70    39    36    1
    71   117   116    1
    72   117   118    1
    73    38    37    2
    74   107   104    1
    75   107   108    1
    76   100    99    2
    77   155   158    1
    78    46    37   am
    79     7     6    1
    80    37    36    1
    81   112   116   am
    82   112   111    1
    83    50    51    1
    84   167   168    2
    85   123   118   am
    86   123   124    1
    87     8     6    1
    88   104   103    1
    89   104   105    1
    90   163   161   ar
    91   163   164   ar
    92   110   105   am
    93   110   111    1
    94   161   159   ar
    95   164   162   ar
    96    97    98    1
    97     6     5    1
    98   118   119    2
    99   124   127    1
   100    36    35    1
   101    51    52    1
   102    99   103   am
   103    99    98    1
   104   159   160   ar
   105   159   158    1
   106   162   160   ar
   107   105   106    2
   108   111   114    1
   109    35    30   am
   110    98   101    1
   111   127   128    1
   112   114   115    1
   113    52    53    1
   114     5     2    1
   115   101   102    1
   116    30    29    1
   117    30    31    2
   118   170   171    1
   119     2     1    1
   120     2     3    1
   121    29    32    1
   122    29    28    1
   123    82    81    2
   124   128   130    1
   125   128   129    1
   126    32    33    1
   127     4     3    2
   128    79    80    1
   129     3     9   am
   130    81    80    1
   131   171   172    1
   132   171   174    1
   133    28    34    1
   134   172   173    2
   135    33    34    1
   136    80    83    1
   137   176   174    1
   138     9    10    1
   139    54    55    1
   140   174   175    1
   141    83    84    1
   142    63    61   ar
   143    63    64   ar
   144    91    92    1
   145    61    59   ar
   146    16    14   am
   147    10    11    1
   148    10    13    1
   149    94    93    2
   150    86    84   ar
   151    86    88   ar
   152    84    85   ar
   153    11    12    2
   154    11    17   am
   155    14    15    2
   156    14    13    1
   157    55    58    1
   158    55    56    1
   159    78    77    2
   160    17    18    1
   161    64    62   ar
   162    95    92    1
   163    95    96    1
   164    92    93    1
   165    20    19    2
   166    19    18    1
   167    57    56    2
   168    59    58    1
   169    59    60   ar
   170    76    77    1
   171    76    75    1
   172    88    89   ar
   173    18    21    1
   174    85    87   ar
   175    62    60   ar
   176    72    74   ar
   177    72    70   ar
   178    74    73   ar
   179    89    87   ar
   180    89    90    1
   181    21    22    1
   182    70    69    1
   183    70    71   ar
   184    73    71   ar
   185    22    24   ar
   186    22    23   ar
   187    69    66    1
   188    24    26   ar
   189    23    25   ar
   190    65    66    1
   191    26    27   ar
   192    66    67    1
   193    25    27   ar
   194    67    68    2
