@<TRIPOS>MOLECULE
tmp/4eplA00.pdb
 185 175 0 0 0
SMALL
GASTEIGER

@<TRIPOS>ATOM
      1  N         45.9060  -16.3140  -21.2180 N.3    89  LEU89      -0.1231
      2  CA        46.6810  -17.5410  -21.3280 C.3    89  LEU89       0.1693
      3  C         45.7030  -18.7110  -21.2330 C.2    89  LEU89       0.2593
      4  O         45.0690  -18.9150  -20.1950 O.2    89  LEU89      -0.2718
      5  CB        47.7250  -17.6210  -20.2030 C.3    89  LEU89       0.0284
      6  CG        48.4540  -18.9650  -20.1140 C.3    89  LEU89       0.0019
      7  CD1       49.2810  -19.2030  -21.3670 C.3    89  LEU89       0.0001
      8  CD2       49.3160  -19.0860  -18.8460 C.3    89  LEU89       0.0001
      9  N         45.5770  -19.4820  -22.3080 N.am   90  SER90      -0.1938
     10  CA        44.5620  -20.5370  -22.3750 C.3    90  SER90       0.2055
     11  C         45.0690  -21.9160  -21.9330 C.2    90  SER90       0.2643
     12  O         46.2750  -22.1720  -21.9120 O.2    90  SER90      -0.2714
     13  CB        44.0210  -20.6250  -23.8090 C.3    90  SER90       0.2130
     14  OG        43.0710  -21.6670  -23.9320 O.3    90  SER90      -0.2179
     15  N         44.1480  -22.8080  -21.5700 N.am   91  SER91      -0.1949
     16  CA        44.5100  -24.2050  -21.3410 C.3    91  SER91       0.1924
     17  C         44.7520  -24.8280  -22.7120 C.2    91  SER91       0.2314
     18  O         44.3230  -24.2770  -23.7290 O.2    91  SER91      -0.2863
     19  CB        43.4020  -24.9580  -20.5950 C.3    91  SER91       0.2116
     20  OG        42.1830  -24.8640  -21.3020 O.3    91  SER91      -0.2180
     21  N         42.0720  -10.7840  -25.0870 N.3   103  PHE103     -0.1241
     22  CA        40.9640  -10.4620  -24.1870 C.3   103  PHE103      0.1605
     23  C         40.5580   -9.0070  -24.4210 C.2   103  PHE103      0.2264
     24  O         41.3590   -8.0980  -24.2050 O.2   103  PHE103     -0.2867
     25  CB        41.3780  -10.6300  -22.7290 C.3   103  PHE103      0.0534
     26  CG        40.2420  -10.4640  -21.7590 C.ar  103  PHE103     -0.0203
     27  CD1       39.3980  -11.5300  -21.4720 C.ar  103  PHE103     -0.0042
     28  CD2       40.0070   -9.2380  -21.1430 C.ar  103  PHE103     -0.0042
     29  CE1       38.3420  -11.3890  -20.5710 C.ar  103  PHE103     -0.0003
     30  CE2       38.9500   -9.0810  -20.2430 C.ar  103  PHE103     -0.0003
     31  CZ        38.1150  -10.1580  -19.9550 C.ar  103  PHE103     -0.0000
     32  N         34.6010   -8.7930  -24.5530 N.3   107  LEU107     -0.1245
     33  CA        34.5020  -10.0630  -23.8360 C.3   107  LEU107      0.1561
     34  C         34.0490   -9.8220  -22.4100 C.2   107  LEU107      0.2260
     35  O         33.3220  -10.6380  -21.8380 O.2   107  LEU107     -0.2867
     36  CB        35.8280  -10.8310  -23.8360 C.3   107  LEU107      0.0270
     37  CG        36.2610  -11.4670  -25.1520 C.3   107  LEU107      0.0019
     38  CD1       37.3520  -12.5200  -24.9130 C.3   107  LEU107      0.0001
     39  CD2       35.0770  -12.0820  -25.8640 C.3   107  LEU107      0.0001
     40  N         30.6840  -11.2960  -20.6520 N.3   111  THR111     -0.1218
     41  CA        30.7240  -12.0340  -19.3850 C.3   111  THR111      0.1862
     42  C         29.6360  -11.5120  -18.4560 C.2   111  THR111      0.2287
     43  O         28.9240  -12.2760  -17.7960 O.2   111  THR111     -0.2866
     44  CB        32.1040  -11.8790  -18.7000 C.3   111  THR111      0.1770
     45  OG1       33.1260  -12.3850  -19.5680 O.3   111  THR111     -0.2211
     46  CG2       32.1520  -12.6430  -17.3670 C.3   111  THR111      0.0375
     47  N         26.3930  -13.5380  -17.1540 N.3   115  PHE115     -0.1241
     48  CA        26.1930  -13.7420  -15.7160 C.3   115  PHE115      0.1605
     49  C         24.8240  -13.2210  -15.3090 C.2   115  PHE115      0.2264
     50  O         24.1140  -13.8450  -14.5110 O.2   115  PHE115     -0.2867
     51  CB        27.2790  -13.0380  -14.9080 C.3   115  PHE115      0.0534
     52  CG        28.4590  -13.9160  -14.5860 C.ar  115  PHE115     -0.0203
     53  CD1       29.3510  -14.2950  -15.5760 C.ar  115  PHE115     -0.0042
     54  CD2       28.6750  -14.3620  -13.2880 C.ar  115  PHE115     -0.0042
     55  CE1       30.4410  -15.1040  -15.2840 C.ar  115  PHE115     -0.0003
     56  CE2       29.7660  -15.1740  -12.9840 C.ar  115  PHE115     -0.0003
     57  CZ        30.6500  -15.5410  -13.9900 C.ar  115  PHE115     -0.0000
     58  N         45.1050  -15.6710  -16.9520 N.3   154  THR154     -0.1203
     59  CA        44.0630  -16.5680  -17.4070 C.3   154  THR154      0.1994
     60  C         42.8150  -15.7390  -17.6860 C.2   154  THR154      0.2618
     61  O         42.7240  -14.5670  -17.2880 O.2   154  THR154     -0.2717
     62  CB        43.7300  -17.6370  -16.3580 C.3   154  THR154      0.1784
     63  OG1       43.2990  -16.9880  -15.1570 O.3   154  THR154     -0.2211
     64  CG2       44.9670  -18.5010  -16.0690 C.3   154  THR154      0.0376
     65  N         41.8510  -16.3400  -18.3670 N.am  155  ALA155     -0.1965
     66  CA        40.6210  -15.6320  -18.6890 C.3   155  ALA155      0.1728
     67  C         39.9090  -15.1530  -17.4200 C.2   155  ALA155      0.2616
     68  O         39.4940  -13.9980  -17.3400 O.2   155  ALA155     -0.2715
     69  CB        39.7110  -16.5120  -19.5340 C.3   155  ALA155      0.0334
     70  N         39.7680  -16.0220  -16.4240 N.am  156  THR156     -0.1951
     71  CA        39.1090  -15.6110  -15.1760 C.3   156  THR156      0.1897
     72  C         39.8770  -14.4700  -14.5220 C.2   156  THR156      0.2313
     73  O         39.2810  -13.5380  -13.9910 O.2   156  THR156     -0.2863
     74  CB        38.9560  -16.7750  -14.1680 C.3   156  THR156      0.1794
     75  OG1       40.2450  -17.3410  -13.8900 O.3   156  THR156     -0.2208
     76  CG2       38.0110  -17.8690  -14.7240 C.3   156  THR156      0.0378
     77  N         38.9990  -11.3300  -16.2290 N.3   159  VAL159     -0.1245
     78  CA        37.6840  -10.9090  -15.7490 C.3   159  VAL159      0.1561
     79  C         37.7780  -10.3080  -14.3280 C.2   159  VAL159      0.2260
     80  O         37.3110   -9.1950  -14.1020 O.2   159  VAL159     -0.2867
     81  CB        36.6680  -12.0820  -15.8360 C.3   159  VAL159      0.0252
     82  CG1       35.3500  -11.7400  -15.1290 C.3   159  VAL159      0.0019
     83  CG2       36.4190  -12.4610  -17.3070 C.3   159  VAL159      0.0019
     84  N         34.4540  -21.8810  -10.0100 N.3   212  VAL212     -0.1231
     85  CA        34.2760  -21.9820  -11.4610 C.3   212  VAL212      0.1692
     86  C         34.0750  -23.4360  -11.8620 C.2   212  VAL212      0.2592
     87  O         33.2010  -23.7520  -12.6720 O.2   212  VAL212     -0.2718
     88  CB        35.4610  -21.3980  -12.2330 C.3   212  VAL212      0.0266
     89  CG1       35.2870  -21.6550  -13.7320 C.3   212  VAL212      0.0020
     90  CG2       35.5790  -19.8920  -11.9740 C.3   212  VAL212      0.0020
     91  N         34.8670  -24.3250  -11.2690 N.am  213  PHE213     -0.1976
     92  CA        34.8370  -25.7420  -11.6400 C.3   213  PHE213      0.1639
     93  C         34.4560  -26.6610  -10.4890 C.2   213  PHE213      0.2290
     94  O         34.8300  -26.4080   -9.3400 O.2   213  PHE213     -0.2864
     95  CB        36.2170  -26.1600  -12.1410 C.3   213  PHE213      0.0560
     96  CG        36.6510  -25.4390  -13.3820 C.ar  213  PHE213     -0.0200
     97  CD1       36.1260  -25.7870  -14.6190 C.ar  213  PHE213     -0.0042
     98  CD2       37.5950  -24.4240  -13.3120 C.ar  213  PHE213     -0.0042
     99  CE1       36.5420  -25.1230  -15.7770 C.ar  213  PHE213     -0.0003
    100  CE2       38.0020  -23.7630  -14.4490 C.ar  213  PHE213     -0.0003
    101  CZ        37.4770  -24.1140  -15.6860 C.ar  213  PHE213     -0.0000
    102  N         30.8610  -25.3150  -12.7640 N.3   294  ILE294     -0.1245
    103  CA        30.8180  -26.1620  -13.9630 C.3   294  ILE294      0.1561
    104  C         30.7870  -27.6360  -13.5510 C.2   294  ILE294      0.2260
    105  O         31.7020  -28.1220  -12.8620 O.2   294  ILE294     -0.2867
    106  CB        31.9950  -25.8490  -14.9270 C.3   294  ILE294      0.0252
    107  CG1       31.8340  -24.4250  -15.4820 C.3   294  ILE294      0.0019
    108  CG2       32.0470  -26.8680  -16.0830 C.3   294  ILE294      0.0019
    109  CD1       33.0200  -23.9150  -16.2940 C.3   294  ILE294      0.0001
    110  N         27.1140  -24.3120  -14.0800 N.3   318  HIS318     -0.1241
    111  CA        27.6250  -23.0170  -14.5160 C.3   318  HIS318      0.1621
    112  C         27.7880  -23.0920  -16.0340 C.2   318  HIS318      0.2264
    113  O         27.7570  -24.1760  -16.6170 O.2   318  HIS318     -0.2867
    114  CB        28.9480  -22.7350  -13.7950 C.3   318  HIS318      0.0745
    115  CG        29.5190  -21.3740  -14.0460 C.ar  318  HIS318      0.0817
    116  ND1       28.7500  -20.2340  -14.1250 N.ar  318  HIS318     -0.2268
    117  CD2       30.8060  -20.9660  -14.1930 C.ar  318  HIS318      0.1154
    118  CE1       29.5300  -19.1880  -14.3380 C.ar  318  HIS318      0.1986
    119  NE2       30.7850  -19.6090  -14.3810 N.ar  318  HIS318     -0.2212
    120  N         31.5710  -21.7750  -21.7320 N.3   321  GLY321     -0.1210
    121  CA        32.4920  -20.8570  -22.3850 C.3   321  GLY321      0.1956
    122  C         33.9330  -21.2680  -22.1380 C.2   321  GLY321      0.2613
    123  O         34.1920  -22.2220  -21.4110 O.2   321  GLY321     -0.2717
    124  N         34.8720  -20.5540  -22.7520 N.am  322  SER322     -0.1938
    125  CA        36.2910  -20.8290  -22.5600 C.3   322  SER322      0.2055
    126  C         37.0830  -19.5340  -22.7140 C.2   322  SER322      0.2643
    127  O         36.4990  -18.4520  -22.7980 O.2   322  SER322     -0.2714
    128  CB        36.7610  -21.8750  -23.5710 C.3   322  SER322      0.2130
    129  OG        36.6330  -21.3680  -24.8920 O.3   322  SER322     -0.2179
    130  N         38.4060  -19.6390  -22.7620 N.am  323  SER323     -0.1949
    131  CA        39.2480  -18.4610  -22.9260 C.3   323  SER323      0.1924
    132  C         38.9130  -17.7560  -24.2260 C.2   323  SER323      0.2314
    133  O         39.1760  -16.5560  -24.3790 O.2   323  SER323     -0.2863
    134  CB        40.7280  -18.8510  -22.9380 C.3   323  SER323      0.2116
    135  OG        41.0790  -19.5430  -21.7540 O.3   323  SER323     -0.2180
    136  N         35.9570  -17.2300  -25.3390 N.3   325  GLY325     -0.1210
    137  CA        34.6840  -16.5210  -25.2170 C.3   325  GLY325      0.1956
    138  C         33.5060  -17.3600  -24.7300 C.2   325  GLY325      0.2611
    139  O         33.6030  -18.5970  -24.6210 O.2   325  GLY325     -0.2717
    140  N         32.3870  -16.6970  -24.4260 N.am  326  TRP326     -0.1976
    141  CA        31.1890  -17.4030  -23.9670 C.3   326  TRP326      0.1640
    142  C         30.3300  -17.8660  -25.1330 C.2   326  TRP326      0.2290
    143  O         30.2930  -17.2230  -26.1910 O.2   326  TRP326     -0.2864
    144  CB        30.3560  -16.4980  -23.0690 C.3   326  TRP326      0.0576
    145  CG        31.0520  -16.1610  -21.8030 C.ar  326  TRP326      0.0006
    146  CD1       31.7120  -14.9990  -21.5070 C.ar  326  TRP326      0.0946
    147  CD2       31.1770  -16.9990  -20.6570 C.ar  326  TRP326      0.0152
    148  NE1       32.2370  -15.0680  -20.2320 N.ar  326  TRP326     -0.2442
    149  CE2       31.9200  -16.2890  -19.6920 C.ar  326  TRP326      0.0810
    150  CE3       30.7260  -18.2870  -20.3470 C.ar  326  TRP326      0.0012
    151  CZ2       32.2230  -16.8240  -18.4470 C.ar  326  TRP326      0.0191
    152  CZ3       31.0250  -18.8130  -19.1110 C.ar  326  TRP326      0.0001
    153  CH2       31.7610  -18.0830  -18.1730 C.ar  326  TRP326      0.0015
    154  N         41.1670  -29.6250  -15.6120 N.3   416  ILE416     -0.1245
    155  CA        41.2790  -28.4860  -16.5230 C.3   416  ILE416      0.1561
    156  C         42.4620  -28.5800  -17.4870 C.2   416  ILE416      0.2260
    157  O         42.6250  -27.7320  -18.3630 O.2   416  ILE416     -0.2867
    158  CB        41.3600  -27.1530  -15.7530 C.3   416  ILE416      0.0252
    159  CG1       42.6160  -27.1120  -14.8830 C.3   416  ILE416      0.0019
    160  CG2       40.1110  -26.9510  -14.9080 C.3   416  ILE416      0.0019
    161  CD1       42.8930  -25.7530  -14.2780 C.3   416  ILE416      0.0001
    162  N         44.6120  -30.0120  -20.6480 N.3   418  LYS418     -0.1245
    163  CA        44.2590  -30.5190  -21.9680 C.3   418  LYS418      0.1561
    164  C         45.5480  -30.8070  -22.7140 C.2   418  LYS418      0.2260
    165  O         46.2880  -29.8870  -23.0740 O.2   418  LYS418     -0.2867
    166  CB        43.4190  -29.5020  -22.7540 C.3   418  LYS418      0.0271
    167  CG        42.0840  -29.1100  -22.1130 C.3   418  LYS418      0.0035
    168  CD        41.3800  -28.0140  -22.9380 C.3   418  LYS418      0.0206
    169  CE        40.2180  -27.3760  -22.1720 C.3   418  LYS418      0.1093
    170  NZ        39.2980  -28.3960  -21.5710 N.3   418  LYS418     -0.1314
    171  N         48.6350  -24.4750  -19.6840 N.3   487  ALA487     -0.1231
    172  CA        48.2980  -23.6670  -18.5040 C.3   487  ALA487      0.1694
    173  C         47.3550  -24.3970  -17.5490 C.2   487  ALA487      0.2592
    174  O         47.4130  -24.2010  -16.3370 O.2   487  ALA487     -0.2718
    175  CB        47.7050  -22.3230  -18.9070 C.3   487  ALA487      0.0304
    176  N         46.4640  -25.2120  -18.1000 N.am  488  GLY488     -0.1957
    177  CA        45.5610  -25.9890  -17.2730 C.3   488  GLY488      0.1869
    178  C         46.3290  -26.9890  -16.4180 C.2   488  GLY488      0.2309
    179  O         46.1250  -27.0520  -15.2100 O.2   488  GLY488     -0.2863
    180  N         48.4570  -25.0580  -13.8270 N.3   491  SER491     -0.1217
    181  CA        47.5980  -24.5060  -12.7760 C.3   491  SER491      0.1889
    182  C         47.1580  -25.5820  -11.7620 C.2   491  SER491      0.2288
    183  O         47.1510  -25.3390  -10.5560 O.2   491  SER491     -0.2866
    184  CB        46.3790  -23.8150  -13.4120 C.3   491  SER491      0.2089
    185  OG        45.4370  -23.4170  -12.4290 O.3   491  SER491     -0.2183
@<TRIPOS>BOND
     1   143   142    2
     2    39    37    1
     3   136   137    1
     4   137   138    1
     5    37    38    1
     6    37    36    1
     7   142   141    1
     8    21    22    1
     9   129   128    1
    10   138   139    2
    11   138   140   am
    12    32    33    1
    13   140   141    1
    14    23    24    2
    15    23    22    1
    16   133   132    2
    17   132   131    1
    18    22    25    1
    19   141   144    1
    20    14    13    1
    21    33    36    1
    22    33    34    1
    23    13    10    1
    24    18    17    2
    25   128   125    1
    26   165   164    2
    27   144   145    1
    28   168   169    1
    29   168   167    1
    30   134   131    1
    31   134   135    1
    32   131   130    1
    33   127   126    2
    34   130   126   am
    35   166   167    1
    36   166   163    1
    37   124   125    1
    38   124   122   am
    39    25    26    1
    40   164   163    1
    41   126   125    1
    42    17    16    1
    43    34    35    2
    44   121   122    1
    45   121   120    1
    46    10     9    1
    47    10    11    1
    48     9     3   am
    49   169   170    1
    50   122   123    2
    51   163   162    1
    52    11    12    2
    53    11    15   am
    54   145   146   ar
    55   145   147   ar
    56    26    27   ar
    57    26    28   ar
    58    15    16    1
    59   146   148   ar
    60    27    29   ar
    61     7     6    1
    62    16    19    1
    63     2     3    1
    64     2     1    1
    65     2     5    1
    66    20    19    1
    67     3     4    2
    68    28    30   ar
    69   147   150   ar
    70   147   149   ar
    71    40    41    1
    72    29    31   ar
    73   150   152   ar
    74    30    31   ar
    75   148   149   ar
    76     5     6    1
    77     6     8    1
    78   149   151   ar
    79   171   172    1
    80    45    44    1
    81    69    66    1
    82    41    44    1
    83    41    42    1
    84   152   153   ar
    85   175   172    1
    86    44    46    1
    87    66    65    1
    88    66    67    1
    89   172   173    1
    90    42    43    2
    91   151   153   ar
    92    65    60   am
    93   157   156    2
    94   176   173   am
    95   176   177    1
    96    60    59    1
    97    60    61    2
    98   173   174    2
    99   156   155    1
   100    67    68    2
   101    67    70   am
   102    59    58    1
   103    59    62    1
   104    83    81    1
   105   177   178    1
   106    47    48    1
   107   113   112    2
   108   155   158    1
   109   155   154    1
   110    70    71    1
   111   178   179    2
   112    62    64    1
   113    62    63    1
   114   109   107    1
   115    77    78    1
   116   108   106    1
   117   112   111    1
   118    81    78    1
   119    81    82    1
   120    99   101   ar
   121    99    97   ar
   122   158   160    1
   123   158   159    1
   124    78    79    1
   125    48    49    1
   126    48    51    1
   127   101   100   ar
   128    53    55   ar
   129    53    52   ar
   130   107   106    1
   131    49    50    2
   132    55    57   ar
   133    71    72    1
   134    71    74    1
   135   106   103    1
   136    51    52    1
   137   159   161    1
   138    76    74    1
   139    97    96   ar
   140    52    54   ar
   141    72    73    2
   142   111   110    1
   143   111   114    1
   144   100    98   ar
   145   119   118   ar
   146   119   117   ar
   147   118   116   ar
   148    79    80    2
   149   117   115   ar
   150    74    75    1
   151   116   115   ar
   152   115   114    1
   153    57    56   ar
   154   103   104    1
   155   103   102    1
   156   180   181    1
   157    89    88    1
   158   104   105    2
   159   184   181    1
   160   184   185    1
   161    96    98   ar
   162    96    95    1
   163    54    56   ar
   164   181   182    1
   165    87    86    2
   166    88    90    1
   167    88    85    1
   168    95    92    1
   169    86    85    1
   170    86    91   am
   171   182   183    2
   172    92    91    1
   173    92    93    1
   174    85    84    1
   175    93    94    2
