@<TRIPOS>MOLECULE
tmp/4epmA00.pdb
 173 165 0 0 0
SMALL
GASTEIGER

@<TRIPOS>ATOM
      1  N        -21.3010   39.7800  -21.1590 N.3    86  LEU86      -0.1231
      2  CA       -20.8070   38.9330  -20.0810 C.3    86  LEU86       0.1693
      3  C        -21.0190   37.4610  -20.4150 C.2    86  LEU86       0.2593
      4  O        -22.1530   36.9990  -20.5160 O.2    86  LEU86      -0.2718
      5  CB       -21.5290   39.2680  -18.7680 C.3    86  LEU86       0.0284
      6  CG       -21.1010   40.5570  -18.0570 C.3    86  LEU86       0.0019
      7  CD1      -22.1040   40.9670  -16.9810 C.3    86  LEU86       0.0001
      8  CD2      -19.7080   40.3990  -17.4570 C.3    86  LEU86       0.0001
      9  N        -19.9260   36.7290  -20.5920 N.am   87  SER87      -0.1938
     10  CA       -20.0080   35.3020  -20.8700 C.3    87  SER87       0.2055
     11  C        -20.1980   34.5220  -19.5760 C.2    87  SER87       0.2643
     12  O        -19.7880   34.9770  -18.5040 O.2    87  SER87      -0.2714
     13  CB       -18.7350   34.8170  -21.5450 C.3    87  SER87       0.2130
     14  OG       -18.8050   33.4200  -21.7990 O.3    87  SER87      -0.2179
     15  N        -20.8200   33.3520  -19.6820 N.am   88  SER88      -0.1949
     16  CA       -20.9090   32.4360  -18.5540 C.3    88  SER88       0.1924
     17  C        -19.5510   31.7690  -18.3760 C.2    88  SER88       0.2314
     18  O        -19.2240   31.2750  -17.3000 O.2    88  SER88      -0.2863
     19  CB       -21.9920   31.3820  -18.7850 C.3    88  SER88       0.2116
     20  OG       -21.6630   30.5520  -19.8940 O.3    88  SER88      -0.2180
     21  N        -16.9270   39.9150  -23.8370 N.3    98  MET98      -0.1245
     22  CA       -16.8290   39.8850  -25.2890 C.3    98  MET98       0.1570
     23  C        -17.3480   41.1920  -25.8730 C.2    98  MET98       0.2261
     24  O        -18.3480   41.7460  -25.3960 O.2    98  MET98      -0.2867
     25  CB       -17.6240   38.7100  -25.8440 C.3    98  MET98       0.0387
     26  CG       -17.2330   37.3670  -25.2280 C.3    98  MET98       0.0595
     27  SD       -15.5630   36.8410  -25.6670 S.3    98  MET98      -0.1393
     28  CE       -15.6160   35.1130  -25.1830 C.3    98  MET98       0.0692
     29  N        -32.9450   28.3550  -21.2040 N.3   210  PHE210     -0.1241
     30  CA       -32.3890   27.0420  -20.8860 C.3   210  PHE210      0.1605
     31  C        -33.3500   26.2150  -20.0490 C.2   210  PHE210      0.2264
     32  O        -34.1030   26.7670  -19.2430 O.2   210  PHE210     -0.2867
     33  CB       -31.0200   27.2040  -20.1920 C.3   210  PHE210      0.0534
     34  CG       -29.9710   27.8130  -21.0840 C.ar  210  PHE210     -0.0203
     35  CD1      -29.4630   27.0950  -22.1660 C.ar  210  PHE210     -0.0042
     36  CD2      -29.5140   29.0990  -20.8680 C.ar  210  PHE210     -0.0042
     37  CE1      -28.5070   27.6550  -23.0160 C.ar  210  PHE210     -0.0003
     38  CE2      -28.5590   29.6700  -21.7080 C.ar  210  PHE210     -0.0003
     39  CZ       -28.0530   28.9440  -22.7820 C.ar  210  PHE210     -0.0000
     40  N        -33.9470   25.2890  -24.4330 N.3   291  VAL291     -0.1245
     41  CA       -32.8080   24.4660  -24.8380 C.3   291  VAL291      0.1561
     42  C        -32.6980   23.2230  -23.9540 C.2   291  VAL291      0.2260
     43  O        -32.6190   23.3200  -22.7310 O.2   291  VAL291     -0.2867
     44  CB       -31.4920   25.2470  -24.7670 C.3   291  VAL291      0.0252
     45  CG1      -30.3040   24.3050  -24.8430 C.3   291  VAL291      0.0019
     46  CG2      -31.4340   26.2960  -25.8640 C.3   291  VAL291      0.0019
     47  N        -30.3920   20.7200  -24.9250 N.3   293  THR293     -0.1203
     48  CA       -29.1740   20.0590  -25.3830 C.3   293  THR293      0.1994
     49  C        -27.9860   20.4110  -24.4960 C.2   293  THR293      0.2618
     50  O        -28.0890   21.2630  -23.6170 O.2   293  THR293     -0.2717
     51  CB       -28.8760   20.4240  -26.8330 C.3   293  THR293      0.1784
     52  OG1      -28.8840   21.8480  -26.9660 O.3   293  THR293     -0.2211
     53  CG2      -29.9570   19.8210  -27.7570 C.3   293  THR293      0.0376
     54  N        -26.8560   19.7510  -24.7170 N.am  294  GLY294     -0.1942
     55  CA       -25.7120   19.9360  -23.8430 C.3   294  GLY294      0.2014
     56  C        -26.0890   19.5240  -22.4250 C.2   294  GLY294      0.2640
     57  O        -26.8460   18.5700  -22.2260 O.2   294  GLY294     -0.2714
     58  N        -25.5780   20.2450  -21.4360 N.am  295  SER295     -0.1935
     59  CA       -25.8160   19.8830  -20.0370 C.3   295  SER295      0.2055
     60  C        -27.2930   20.0130  -19.6520 C.2   295  SER295      0.2642
     61  O        -27.7340   19.4110  -18.6860 O.2   295  SER295     -0.2714
     62  CB       -24.9440   20.7270  -19.1050 C.3   295  SER295      0.2130
     63  OG       -25.1380   22.0950  -19.3860 O.3   295  SER295     -0.2179
     64  N        -28.0590   20.7850  -20.4140 N.am  296  MET296     -0.1976
     65  CA       -29.4990   20.8840  -20.1770 C.3   296  MET296      0.1605
     66  C        -30.2670   19.5700  -20.4380 C.2   296  MET296      0.2287
     67  O        -31.4380   19.4450  -20.0740 O.2   296  MET296     -0.2864
     68  CB       -30.0960   22.0460  -20.9750 C.3   296  MET296      0.0413
     69  CG       -29.4950   23.4020  -20.5870 C.3   296  MET296      0.0598
     70  SD       -29.9160   23.7920  -18.8620 S.3   296  MET296     -0.1393
     71  CE       -28.5590   24.8660  -18.3950 C.3   296  MET296      0.0692
     72  N        -32.2320   27.1880  -30.6100 N.3   316  THR316     -0.1203
     73  CA       -31.0880   28.0210  -30.9610 C.3   316  THR316      0.1994
     74  C        -29.7990   27.6610  -30.2450 C.2   316  THR316      0.2618
     75  O        -29.7940   27.3700  -29.0480 O.2   316  THR316     -0.2717
     76  CB       -31.3810   29.5010  -30.6250 C.3   316  THR316      0.1784
     77  OG1      -32.6730   29.8640  -31.1280 O.3   316  THR316     -0.2211
     78  CG2      -30.2860   30.4270  -31.2040 C.3   316  THR316      0.0376
     79  N        -28.6960   27.7350  -30.9720 N.am  317  TYR317     -0.1961
     80  CA       -27.3840   27.5540  -30.3720 C.3   317  TYR317      0.1771
     81  C        -26.6050   28.8510  -30.5740 C.2   317  TYR317      0.2620
     82  O        -26.4450   29.3380  -31.7040 O.2   317  TYR317     -0.2715
     83  CB       -26.7000   26.3380  -31.0030 C.3   317  TYR317      0.0574
     84  CG       -25.2260   26.1630  -30.7230 C.ar  317  TYR317     -0.0198
     85  CD1      -24.6930   26.4000  -29.4650 C.ar  317  TYR317     -0.0009
     86  CD2      -24.3690   25.7190  -31.7300 C.ar  317  TYR317     -0.0009
     87  CE1      -23.3300   26.2270  -29.2210 C.ar  317  TYR317      0.0417
     88  CE2      -23.0200   25.5470  -31.5040 C.ar  317  TYR317      0.0417
     89  CZ       -22.5020   25.7960  -30.2430 C.ar  317  TYR317      0.1957
     90  OH       -21.1560   25.6150  -30.0270 O.3   317  TYR317     -0.2866
     91  N        -26.1800   29.4540  -29.4720 N.am  318  GLY318     -0.1940
     92  CA       -25.4260   30.6840  -29.5500 C.3   318  GLY318      0.2014
     93  C        -24.4560   30.8770  -28.4050 C.2   318  GLY318      0.2640
     94  O        -24.4110   30.0850  -27.4570 O.2   318  GLY318     -0.2714
     95  N        -23.6840   31.9550  -28.4860 N.am  319  SER319     -0.1935
     96  CA       -22.6610   32.2200  -27.4960 C.3   319  SER319      0.2055
     97  C        -22.3840   33.7020  -27.4530 C.2   319  SER319      0.2644
     98  O        -23.0000   34.4930  -28.1850 O.2   319  SER319     -0.2714
     99  CB       -21.3770   31.4730  -27.8480 C.3   319  SER319      0.2130
    100  OG       -20.7490   32.0680  -28.9740 O.3   319  SER319     -0.2179
    101  N        -21.4460   34.0670  -26.5870 N.am  320  SER320     -0.1935
    102  CA       -21.0200   35.4430  -26.4480 C.3   320  SER320      0.2055
    103  C        -20.2410   35.8580  -27.6770 C.2   320  SER320      0.2642
    104  O        -20.1060   37.0430  -27.9480 O.2   320  SER320     -0.2714
    105  CB       -20.1560   35.6100  -25.1950 C.3   320  SER320      0.2130
    106  OG       -20.9760   35.6800  -24.0460 O.3   320  SER320     -0.2179
    107  N        -19.7080   34.8830  -28.4060 N.am  321  GLU321     -0.1976
    108  CA       -18.9720   35.2020  -29.6240 C.3   321  GLU321      0.1602
    109  C        -19.9450   35.5700  -30.7350 C.2   321  GLU321      0.2287
    110  O        -19.7600   36.5610  -31.4400 O.2   321  GLU321     -0.2864
    111  CB       -18.0980   34.0290  -30.0860 C.3   321  GLU321      0.0415
    112  CG       -16.8730   33.7420  -29.2320 C.3   321  GLU321      0.1163
    113  CD       -17.1500   32.7140  -28.1600 C.2   321  GLU321      0.3649
    114  OE1      -18.2620   32.1420  -28.1710 O.co2 321  GLU321     -0.2457
    115  OE2      -16.2580   32.4880  -27.3090 O.co2 321  GLU321     -0.2457
    116  N        -28.3020   21.6120  -34.7290 N.3   339  TYR339     -0.1241
    117  CA       -28.3890   23.0280  -35.0550 C.3   339  TYR339      0.1605
    118  C        -27.7100   23.3120  -36.3870 C.2   339  TYR339      0.2264
    119  O        -26.5260   23.0270  -36.5560 O.2   339  TYR339     -0.2867
    120  CB       -27.7480   23.8770  -33.9440 C.3   339  TYR339      0.0534
    121  CG       -28.4030   23.6600  -32.5930 C.ar  339  TYR339     -0.0201
    122  CD1      -29.5990   24.2950  -32.2760 C.ar  339  TYR339     -0.0009
    123  CD2      -27.8340   22.8230  -31.6390 C.ar  339  TYR339     -0.0009
    124  CE1      -30.2160   24.0880  -31.0700 C.ar  339  TYR339      0.0417
    125  CE2      -28.4430   22.6270  -30.4080 C.ar  339  TYR339      0.0417
    126  CZ       -29.6300   23.2670  -30.1320 C.ar  339  TYR339      0.1957
    127  OH       -30.2580   23.0810  -28.9300 O.3   339  TYR339     -0.2866
    128  N        -13.9600   28.5850  -29.8250 N.3   388  VAL388     -0.1245
    129  CA       -15.1480   28.7790  -28.9950 C.3   388  VAL388      0.1561
    130  C        -15.1510   27.8820  -27.7510 C.2   388  VAL388      0.2260
    131  O        -15.7910   28.1950  -26.7500 O.2   388  VAL388     -0.2867
    132  CB       -16.4320   28.5420  -29.8240 C.3   388  VAL388      0.0252
    133  CG1      -17.6460   28.4280  -28.9320 C.3   388  VAL388      0.0019
    134  CG2      -16.6260   29.6730  -30.8140 C.3   388  VAL388      0.0019
    135  N        -16.3700   24.8360  -27.5570 N.3   390  ASP390     -0.1239
    136  CA       -17.3970   23.8020  -27.6230 C.3   390  ASP390      0.1674
    137  C        -16.9760   22.7260  -28.6170 C.2   390  ASP390      0.2266
    138  O        -16.2210   22.9970  -29.5430 O.2   390  ASP390     -0.2867
    139  CB       -18.7420   24.3670  -28.0870 C.3   390  ASP390      0.1410
    140  CG       -19.3570   25.3340  -27.0980 C.2   390  ASP390      0.3668
    141  OD1      -19.0940   25.2290  -25.8770 O.co2 390  ASP390     -0.2456
    142  OD2      -20.1300   26.1980  -27.5590 O.co2 390  ASP390     -0.2456
    143  N        -24.6600   19.4520  -30.5600 N.3   406  PHE406     -0.1241
    144  CA       -23.7670   19.9880  -29.5580 C.3   406  PHE406      0.1605
    145  C        -23.3260   18.8140  -28.7040 C.2   406  PHE406      0.2264
    146  O        -24.1630   18.1250  -28.1320 O.2   406  PHE406     -0.2867
    147  CB       -24.4780   21.0390  -28.7000 C.3   406  PHE406      0.0534
    148  CG       -23.6030   21.6420  -27.6320 C.ar  406  PHE406     -0.0203
    149  CD1      -23.5100   21.0550  -26.3840 C.ar  406  PHE406     -0.0042
    150  CD2      -22.8720   22.7950  -27.8840 C.ar  406  PHE406     -0.0042
    151  CE1      -22.7070   21.5970  -25.4080 C.ar  406  PHE406     -0.0003
    152  CE2      -22.0670   23.3490  -26.9110 C.ar  406  PHE406     -0.0003
    153  CZ       -21.9850   22.7450  -25.6620 C.ar  406  PHE406     -0.0000
    154  N        -19.1520   21.2910  -23.8390 N.3   409  ARG409     -0.1245
    155  CA       -18.1250   22.3190  -23.6880 C.3   409  ARG409      0.1563
    156  C        -16.8740   21.6690  -23.0940 C.2   409  ARG409      0.2260
    157  O        -16.9320   21.0490  -22.0330 O.2   409  ARG409     -0.2867
    158  CB       -18.5970   23.4920  -22.8300 C.3   409  ARG409      0.0307
    159  CG       -17.5470   24.5790  -22.7230 C.3   409  ARG409      0.0489
    160  CD       -18.1150   25.8560  -22.1500 C.3   409  ARG409      0.2205
    161  NE       -17.1560   26.9490  -22.2540 N.pl3 409  ARG409     -0.0865
    162  CZ       -16.9220   27.6170  -23.3780 C.cat 409  ARG409      0.5346
    163  NH1      -17.5860   27.2960  -24.4840 N.pl3 409  ARG409      0.1354
    164  NH2      -16.0290   28.6030  -23.3990 N.pl3 409  ARG409      0.1354
    165  N        -20.5810   26.8270  -15.2580 N.3   420  LYS420     -0.1245
    166  CA       -19.8470   25.8440  -16.0280 C.3   420  LYS420      0.1561
    167  C        -18.4860   25.6770  -15.3730 C.2   420  LYS420      0.2260
    168  O        -17.5550   26.4190  -15.6630 O.2   420  LYS420     -0.2867
    169  CB       -19.7260   26.2790  -17.4950 C.3   420  LYS420      0.0271
    170  CG       -21.0670   26.3850  -18.2110 C.3   420  LYS420      0.0035
    171  CD       -20.9010   26.7510  -19.6840 C.3   420  LYS420      0.0206
    172  CE       -22.2490   26.8990  -20.3880 C.3   420  LYS420      0.1093
    173  NZ       -23.0470   28.0580  -19.8750 N.3   420  LYS420     -0.1314
@<TRIPOS>BOND
     1   119   118    2
     2   118   117    1
     3   117   116    1
     4   117   120    1
     5   120   121    1
     6   121   122   ar
     7   121   123   ar
     8   122   124   ar
     9    86    88   ar
    10    86    84   ar
    11    82    81    2
    12   123   125   ar
    13    88    89   ar
    14   110   109    2
    15    78    76    1
    16    77    76    1
    17   124   126   ar
    18    83    84    1
    19    83    80    1
    20    79    80    1
    21    79    74   am
    22    73    76    1
    23    73    72    1
    24    73    74    1
    25   134   132    1
    26   109   108    1
    27    84    85   ar
    28    81    80    1
    29    81    91   am
    30   143   144    1
    31   125   126   ar
    32    74    75    2
    33    89    90    1
    34    89    87   ar
    35   126   127    1
    36   111   108    1
    37   111   112    1
    38   128   129    1
    39   132   129    1
    40   132   133    1
    41   108   107    1
    42   144   145    1
    43   144   147    1
    44    92    91    1
    45    92    93    1
    46   138   137    2
    47    85    87   ar
    48   112   113    1
    49   129   130    1
    50   100    99    1
    51   145   146    2
    52   147   148    1
    53   137   136    1
    54    95    93   am
    55    95    96    1
    56   107   103   am
    57    93    94    2
    58    98    97    2
    59   114   113   ar
    60   113   115   ar
    61   139   136    1
    62   139   140    1
    63   104   103    2
    64   150   148   ar
    65   150   152   ar
    66    99    96    1
    67    53    51    1
    68   130   131    2
    69   103   102    1
    70   148   149   ar
    71   136   135    1
    72   142   140   ar
    73    96    97    1
    74    97   101   am
    75   140   141   ar
    76    52    51    1
    77   152   153   ar
    78    51    48    1
    79   101   102    1
    80   102   105    1
    81   149   151   ar
    82    23    24    2
    83    23    22    1
    84    46    44    1
    85    25    22    1
    86    25    26    1
    87    27    26    1
    88    27    28    1
    89   153   151   ar
    90    48    47    1
    91    48    49    1
    92    22    21    1
    93   105   106    1
    94    45    44    1
    95    41    44    1
    96    41    40    1
    97    41    42    1
    98    54    49   am
    99    54    55    1
   100    49    50    2
   101   163   162    1
   102    42    43    2
   103    55    56    1
   104   154   155    1
   105   155   156    1
   106   155   158    1
   107   164   162    1
   108   162   161    2
   109   156   157    2
   110    37    39   ar
   111    37    35   ar
   112   158   159    1
   113    39    38   ar
   114   159   160    1
   115    56    57    2
   116    56    58   am
   117   161   160    1
   118    35    34   ar
   119    14    13    1
   120    38    36   ar
   121    13    10    1
   122    58    59    1
   123    29    30    1
   124     1     2    1
   125    34    36   ar
   126    34    33    1
   127    68    69    1
   128    68    65    1
   129    30    33    1
   130    30    31    1
   131    10     9    1
   132    10    11    1
   133     9     3   am
   134    69    70    1
   135     4     3    2
   136    66    65    1
   137    66    67    2
   138     3     2    1
   139    64    65    1
   140    64    60   am
   141   172   173    1
   142   172   171    1
   143     2     5    1
   144    31    32    2
   145    59    60    1
   146    59    62    1
   147    20    19    1
   148   171   170    1
   149    15    11   am
   150    15    16    1
   151    60    61    2
   152    11    12    2
   153    63    62    1
   154    70    71    1
   155    19    16    1
   156     5     6    1
   157    16    17    1
   158    17    18    2
   159   170   169    1
   160     6     8    1
   161     6     7    1
   162   169   166    1
   163   166   167    1
   164   166   165    1
   165   168   167    2
