@<TRIPOS>MOLECULE
tmp/4eppB00.pdb
 198 195 0 0 0
SMALL
GASTEIGER

@<TRIPOS>ATOM
      1  N          5.9870   10.2140   53.0640 N.3   213  LEU213     -0.1231
      2  CA         7.1920    9.8790   52.3020 C.3   213  LEU213      0.1693
      3  C          8.4440   10.4970   52.9170 C.2   213  LEU213      0.2592
      4  O          8.3580   11.3360   53.8080 O.2   213  LEU213     -0.2718
      5  CB         7.0400   10.2700   50.8300 C.3   213  LEU213      0.0284
      6  CG         5.8150    9.6360   50.1540 C.3   213  LEU213      0.0019
      7  CD1        5.6370   10.1510   48.7440 C.3   213  LEU213      0.0001
      8  CD2        5.9330    8.1210   50.1420 C.3   213  LEU213      0.0001
      9  N          9.6040   10.0610   52.4440 N.am  214  ILE214     -0.1966
     10  CA        10.8690   10.4700   53.0410 C.3   214  ILE214      0.1727
     11  C         10.9990   11.9970   53.0830 C.2   214  ILE214      0.2616
     12  O         11.4160   12.5750   54.0940 O.2   214  ILE214     -0.2715
     13  CB        12.0550    9.8070   52.3010 C.3   214  ILE214      0.0290
     14  CG1       12.1690    8.3470   52.7580 C.3   214  ILE214      0.0022
     15  CG2       13.3570   10.5740   52.5420 C.3   214  ILE214      0.0023
     16  CD1       12.9930    7.4390   51.8240 C.3   214  ILE214      0.0001
     17  N         10.5960   12.6440   51.9950 N.am  215  GLU215     -0.1977
     18  CA        10.6780   14.0950   51.8930 C.3   215  GLU215      0.1602
     19  C          9.6220   14.8240   52.7220 C.2   215  GLU215      0.2287
     20  O          9.5810   16.0560   52.7430 O.2   215  GLU215     -0.2864
     21  CB        10.6160   14.5230   50.4260 C.3   215  GLU215      0.0415
     22  CG         9.2630   14.3070   49.7260 C.3   215  GLU215      0.1163
     23  CD         9.0770   12.9080   49.1310 C.2   215  GLU215      0.3649
     24  OE1        9.8650   11.9850   49.4490 O.co2 215  GLU215     -0.2457
     25  OE2        8.1280   12.7350   48.3280 O.co2 215  GLU215     -0.2457
     26  N         17.6390    6.8070   47.5620 N.3   225  PHE225     -0.1227
     27  CA        17.9530    5.4160   47.2280 C.3   225  PHE225      0.1736
     28  C         18.7440    5.4110   45.9180 C.2   225  PHE225      0.2595
     29  O         18.1790    5.2440   44.8340 O.2   225  PHE225     -0.2718
     30  CB        16.6690    4.5820   47.0870 C.3   225  PHE225      0.0547
     31  CG        15.8110    4.5460   48.3290 C.ar  225  PHE225     -0.0202
     32  CD1       16.3380    4.8640   49.5760 C.ar  225  PHE225     -0.0042
     33  CD2       14.4640    4.1760   48.2440 C.ar  225  PHE225     -0.0042
     34  CE1       15.5500    4.8320   50.7150 C.ar  225  PHE225     -0.0003
     35  CE2       13.6620    4.1430   49.3720 C.ar  225  PHE225     -0.0003
     36  CZ        14.1970    4.4690   50.6210 C.ar  225  PHE225     -0.0000
     37  N         20.0560    5.6010   46.0180 N.am  226  ALA226     -0.1966
     38  CA        20.8430    5.9620   44.8430 C.3   226  ALA226      0.1728
     39  C         21.3100    4.7890   43.9910 C.2   226  ALA226      0.2616
     40  O         21.3540    3.6400   44.4390 O.2   226  ALA226     -0.2715
     41  CB        22.0530    6.8340   45.2510 C.3   226  ALA226      0.0334
     42  N         21.6180    5.1040   42.7400 N.am  227  ASN227     -0.1972
     43  CA        22.4480    4.2540   41.9080 C.3   227  ASN227      0.1688
     44  C         23.8750    4.6230   42.2720 C.2   227  ASN227      0.2292
     45  O         24.1230    5.7550   42.7060 O.2   227  ASN227     -0.2864
     46  CB        22.1810    4.5470   40.4240 C.3   227  ASN227      0.1181
     47  CG        22.7870    3.4970   39.4980 C.2   227  ASN227      0.2629
     48  OD1       23.9810    3.5380   39.1950 O.2   227  ASN227     -0.2716
     49  ND2       21.9580    2.5620   39.0330 N.am  227  ASN227     -0.0877
     50  N         21.0020    8.0840   38.9050 N.3   232  GLY232     -0.1210
     51  CA        20.4370    6.9590   38.1740 C.3   232  GLY232      0.1956
     52  C         19.9750    7.3460   36.7750 C.2   232  GLY232      0.2612
     53  O         20.7440    7.9150   35.9970 O.2   232  GLY232     -0.2717
     54  N         18.7130    7.0650   36.4540 N.am  233  GLY233     -0.1956
     55  CA        18.1990    7.3630   35.1210 C.3   233  GLY233      0.1869
     56  C         17.5750    8.7410   34.9160 C.2   233  GLY233      0.2309
     57  O         16.7180    8.9090   34.0360 O.2   233  GLY233     -0.2863
     58  N         11.8030    6.3670   39.4790 N.3   240  VAL240     -0.1231
     59  CA        11.4770    5.8290   40.7970 C.3   240  VAL240      0.1692
     60  C         12.0340    6.7780   41.8840 C.2   240  VAL240      0.2592
     61  O         12.0660    7.9970   41.6660 O.2   240  VAL240     -0.2718
     62  CB        11.8980    4.3400   40.9260 C.3   240  VAL240      0.0266
     63  CG1       10.9870    3.4780   40.0150 C.3   240  VAL240      0.0020
     64  CG2       13.3710    4.1450   40.5180 C.3   240  VAL240      0.0020
     65  N         12.4580    6.2580   43.0360 N.am  241  GLN241     -0.1966
     66  CA        12.6870    7.1400   44.1930 C.3   241  GLN241      0.1733
     67  C         13.7120    8.2530   43.9410 C.2   241  GLN241      0.2616
     68  O         13.4540    9.4290   44.2270 O.2   241  GLN241     -0.2715
     69  CB        13.0380    6.3350   45.4580 C.3   241  GLN241      0.0408
     70  CG        12.8580    7.1030   46.7810 C.3   241  GLN241      0.0908
     71  CD        14.1610    7.7000   47.3020 C.2   241  GLN241      0.2608
     72  OE1       15.1950    7.6420   46.6300 O.2   241  GLN241     -0.2717
     73  NE2       14.1170    8.2680   48.5110 N.am  241  GLN241     -0.0878
     74  N         14.8720    7.8980   43.4100 N.am  242  GLU242     -0.1963
     75  CA        15.9280    8.8920   43.2380 C.3   242  GLU242      0.1733
     76  C         15.5610    9.8990   42.1530 C.2   242  GLU242      0.2616
     77  O         15.7160   11.1040   42.3380 O.2   242  GLU242     -0.2715
     78  CB        17.2800    8.2290   42.9120 C.3   242  GLU242      0.0429
     79  CG        18.3590    9.2350   42.5250 C.3   242  GLU242      0.1163
     80  CD        19.7620    8.6460   42.5310 C.2   242  GLU242      0.3649
     81  OE1       19.9740    7.5610   41.9480 O.co2 242  GLU242     -0.2457
     82  OE2       20.6560    9.2820   43.1250 O.co2 242  GLU242     -0.2457
     83  N         15.0500    9.4110   41.0310 N.am  243  GLU243     -0.1963
     84  CA        14.7930   10.2950   39.9040 C.3   243  GLU243      0.1733
     85  C         13.6990   11.2710   40.2820 C.2   243  GLU243      0.2616
     86  O         13.7570   12.4490   39.9400 O.2   243  GLU243     -0.2715
     87  CB        14.3980    9.5140   38.6460 C.3   243  GLU243      0.0429
     88  CG        15.5330    8.7120   38.0340 C.3   243  GLU243      0.1163
     89  CD        15.5900    7.2950   38.5530 C.2   243  GLU243      0.3649
     90  OE1       14.7940    6.9610   39.4480 O.co2 243  GLU243     -0.2457
     91  OE2       16.4250    6.5120   38.0590 O.co2 243  GLU243     -0.2457
     92  N         12.7060   10.7850   41.0070 N.am  244  ILE244     -0.1977
     93  CA        11.6450   11.6720   41.4610 C.3   244  ILE244      0.1596
     94  C         12.1880   12.7690   42.3880 C.2   244  ILE244      0.2287
     95  O         11.7950   13.9400   42.2920 O.2   244  ILE244     -0.2864
     96  CB        10.5090   10.8750   42.1590 C.3   244  ILE244      0.0276
     97  CG1        9.7010   10.0890   41.1110 C.3   244  ILE244      0.0022
     98  CG2        9.6070   11.8100   42.9340 C.3   244  ILE244      0.0022
     99  CD1        8.6610    9.1300   41.7070 C.3   244  ILE244      0.0001
    100  N          4.2820   16.6500   43.3970 N.3   280  TYR280     -0.1241
    101  CA         3.9660   15.5920   42.4450 C.3   280  TYR280      0.1605
    102  C          2.9230   14.6470   42.9940 C.2   280  TYR280      0.2264
    103  O          2.5870   14.6940   44.1710 O.2   280  TYR280     -0.2867
    104  CB         5.2130   14.7840   42.0800 C.3   280  TYR280      0.0534
    105  CG         5.7510   13.8800   43.1770 C.ar  280  TYR280     -0.0201
    106  CD1        5.5550   12.4980   43.1290 C.ar  280  TYR280     -0.0009
    107  CD2        6.4640   14.4070   44.2560 C.ar  280  TYR280     -0.0009
    108  CE1        6.0610   11.6600   44.1250 C.ar  280  TYR280      0.0417
    109  CE2        6.9770   13.5790   45.2620 C.ar  280  TYR280      0.0417
    110  CZ         6.7740   12.2050   45.1890 C.ar  280  TYR280      0.1957
    111  OH         7.2870   11.3840   46.1760 O.3   280  TYR280     -0.2866
    112  N          3.8810    7.7720   40.6400 N.3   283  TYR283     -0.1241
    113  CA         5.1510    7.0690   40.7350 C.3   283  TYR283      0.1605
    114  C          5.3950    6.3770   39.3990 C.2   283  TYR283      0.2264
    115  O          4.4570    5.8630   38.7940 O.2   283  TYR283     -0.2867
    116  CB         5.0360    6.0200   41.8460 C.3   283  TYR283      0.0534
    117  CG         6.3520    5.4240   42.2760 C.ar  283  TYR283     -0.0201
    118  CD1        7.2740    6.1870   42.9830 C.ar  283  TYR283     -0.0009
    119  CD2        6.6660    4.1010   41.9920 C.ar  283  TYR283     -0.0009
    120  CE1        8.4820    5.6530   43.3960 C.ar  283  TYR283      0.0417
    121  CE2        7.8790    3.5500   42.4000 C.ar  283  TYR283      0.0417
    122  CZ         8.7820    4.3400   43.0950 C.ar  283  TYR283      0.1957
    123  OH         9.9710    3.8250   43.5080 O.3   283  TYR283     -0.2866
    124  N         22.1960    0.9720   47.4080 N.3   313  ALA313     -0.1245
    125  CA        22.1040   -0.4090   47.8680 C.3   313  ALA313      0.1562
    126  C         22.6610   -1.3420   46.7830 C.2   313  ALA313      0.2260
    127  O         22.8720   -0.9330   45.6430 O.2   313  ALA313     -0.2867
    128  CB        20.6560   -0.7710   48.1950 C.3   313  ALA313      0.0290
    129  N         12.1570    1.7290   52.0970 N.3   352  LYS352     -0.1231
    130  CA        12.4400    0.4930   51.3750 C.3   352  LYS352      0.1693
    131  C         13.6700    0.6020   50.4600 C.2   352  LYS352      0.2592
    132  O         13.6240    0.2720   49.2720 O.2   352  LYS352     -0.2718
    133  CB        11.1910    0.0510   50.5990 C.3   352  LYS352      0.0285
    134  CG        10.0620   -0.3940   51.5180 C.3   352  LYS352      0.0035
    135  CD         8.8560   -0.8860   50.7130 C.3   352  LYS352      0.0206
    136  CE         7.8650   -1.6090   51.6180 C.3   352  LYS352      0.1093
    137  NZ         6.6660   -2.0950   50.8520 N.3   352  LYS352     -0.1314
    138  N         14.7770    1.0420   51.0570 N.am  353  TRP353     -0.1962
    139  CA        16.0540    1.2130   50.3740 C.3   353  TRP353      0.1771
    140  C         16.5230   -0.0870   49.7150 C.2   353  TRP353      0.2620
    141  O         16.6360   -1.1090   50.3840 O.2   353  TRP353     -0.2715
    142  CB        17.0900    1.6740   51.4020 C.3   353  TRP353      0.0590
    143  CG        18.4820    1.7960   50.8840 C.ar  353  TRP353      0.0006
    144  CD1       18.9030    2.5220   49.8100 C.ar  353  TRP353      0.0946
    145  CD2       19.6520    1.1920   51.4470 C.ar  353  TRP353      0.0152
    146  NE1       20.2670    2.4080   49.6670 N.ar  353  TRP353     -0.2442
    147  CE2       20.7480    1.5980   50.6570 C.ar  353  TRP353      0.0810
    148  CE3       19.8750    0.3540   52.5460 C.ar  353  TRP353      0.0012
    149  CZ2       22.0560    1.1750   50.9260 C.ar  353  TRP353      0.0191
    150  CZ3       21.1760   -0.0620   52.8150 C.ar  353  TRP353      0.0001
    151  CH2       22.2490    0.3540   52.0100 C.ar  353  TRP353      0.0015
    152  N         16.7730   -0.0290   48.4050 N.am  354  GLY354     -0.1940
    153  CA        17.2360   -1.1720   47.6360 C.3   354  GLY354      0.2014
    154  C         16.1880   -2.2450   47.4080 C.2   354  GLY354      0.2639
    155  O         16.4940   -3.2940   46.8580 O.2   354  GLY354     -0.2714
    156  N         14.9520   -1.9850   47.8230 N.am  355  CYS355     -0.1953
    157  CA        13.9180   -3.0180   47.7950 C.3   355  CYS355      0.1843
    158  C         12.8340   -2.7670   46.7600 C.2   355  CYS355      0.2626
    159  O         11.7270   -3.2840   46.8740 O.2   355  CYS355     -0.2714
    160  CB        13.3050   -3.2080   49.1830 C.3   355  CYS355      0.0997
    161  SG        14.5540   -3.7250   50.3870 S.3   355  CYS355     -0.0797
    162  N         13.1690   -1.9870   45.7410 N.am  356  GLY356     -0.1940
    163  CA        12.2580   -1.7650   44.6250 C.3   356  GLY356      0.2014
    164  C         12.9350   -2.2280   43.3550 C.2   356  GLY356      0.2639
    165  O         12.9760   -3.4180   43.0760 O.2   356  GLY356     -0.2714
    166  N         13.5000   -1.2850   42.6100 N.am  357  ALA357     -0.1963
    167  CA        14.2580   -1.6120   41.4070 C.3   357  ALA357      0.1728
    168  C         15.4170   -2.5690   41.6870 C.2   357  ALA357      0.2616
    169  O         15.7530   -3.3870   40.8390 O.2   357  ALA357     -0.2715
    170  CB        14.7710   -0.3310   40.7280 C.3   357  ALA357      0.0334
    171  N         16.0340   -2.4690   42.8650 N.am  358  PHE358     -0.1974
    172  CA        17.2120   -3.3030   43.1670 C.3   358  PHE358      0.1639
    173  C         16.8580   -4.6580   43.7870 C.2   358  PHE358      0.2290
    174  O         17.7400   -5.4380   44.1590 O.2   358  PHE358     -0.2864
    175  CB        18.2180   -2.5520   44.0440 C.3   358  PHE358      0.0560
    176  CG        19.0720   -1.5670   43.2810 C.ar  358  PHE358     -0.0200
    177  CD1       18.8890   -1.3740   41.9140 C.ar  358  PHE358     -0.0042
    178  CD2       20.0610   -0.8430   43.9320 C.ar  358  PHE358     -0.0042
    179  CE1       19.6870   -0.4690   41.2130 C.ar  358  PHE358     -0.0003
    180  CE2       20.8590    0.0570   43.2420 C.ar  358  PHE358     -0.0003
    181  CZ        20.6720    0.2420   41.8860 C.ar  358  PHE358     -0.0000
    182  N          9.4620    4.6990   56.2740 N.3   383  CYS383     -0.1235
    183  CA         8.2880    4.8000   55.4140 C.3   383  CYS383      0.1677
    184  C          8.0230    3.4590   54.7320 C.2   383  CYS383      0.2270
    185  O          8.9040    2.9020   54.0960 O.2   383  CYS383     -0.2867
    186  CB         8.5170    5.8680   54.3430 C.3   383  CYS383      0.0956
    187  SG         8.8890    7.5130   55.0150 S.3   383  CYS383     -0.0801
    188  N          5.5080    2.9940   52.4740 N.3   385  PHE385     -0.1241
    189  CA         4.9580    3.2340   51.1410 C.3   385  PHE385      0.1605
    190  C          3.6210    2.4950   50.9430 C.2   385  PHE385      0.2264
    191  O          3.4550    1.7390   49.9850 O.2   385  PHE385     -0.2867
    192  CB         5.9780    2.7980   50.0840 C.3   385  PHE385      0.0534
    193  CG         5.8430    3.5100   48.7600 C.ar  385  PHE385     -0.0203
    194  CD1        6.2880    4.8150   48.6110 C.ar  385  PHE385     -0.0042
    195  CD2        5.3140    2.8600   47.6580 C.ar  385  PHE385     -0.0042
    196  CE1        6.1830    5.4720   47.3850 C.ar  385  PHE385     -0.0003
    197  CE2        5.2040    3.5080   46.4330 C.ar  385  PHE385     -0.0003
    198  CZ         5.6490    4.8140   46.2980 C.ar  385  PHE385     -0.0000
@<TRIPOS>BOND
     1    57    56    2
     2    56    55    1
     3    55    54    1
     4    53    52    2
     5    54    52   am
     6    52    51    1
     7    88    89    1
     8    88    87    1
     9    91    89   ar
    10    51    50    1
    11    89    90   ar
    12    87    84    1
    13   115   114    2
    14    49    47   am
    15    48    47    2
    16   114   113    1
    17    58    59    1
    18    47    46    1
    19    84    85    1
    20    84    83    1
    21    86    85    2
    22    63    62    1
    23    85    92   am
    24    46    43    1
    25    64    62    1
    26   112   113    1
    27   170   167    1
    28   113   116    1
    29    59    62    1
    30    59    60    1
    31   169   168    2
    32    92    93    1
    33    83    76   am
    34    97    99    1
    35    97    96    1
    36   179   181   ar
    37   179   177   ar
    38   167   168    1
    39   167   166    1
    40    93    96    1
    41    93    94    1
    42    61    60    2
    43   168   171   am
    44   116   117    1
    45    60    65   am
    46   181   180   ar
    47    43    44    1
    48    43    42    1
    49   177   176   ar
    50    81    80   ar
    51   119   117   ar
    52   119   121   ar
    53   104   101    1
    54   104   105    1
    55    76    77    2
    56    76    75    1
    57    96    98    1
    58    44    45    2
    59   117   118   ar
    60    95    94    2
    61   121   122   ar
    62   101   102    1
    63   101   100    1
    64    79    80    1
    65    79    78    1
    66    80    82   ar
    67   166   164   am
    68    42    39   am
    69   171   172    1
    70    78    75    1
    71   118   120   ar
    72   102   103    2
    73    65    66    1
    74   165   164    2
    75   122   120   ar
    76   122   123    1
    77   106   105   ar
    78   106   108   ar
    79   172   173    1
    80   172   175    1
    81   105   107   ar
    82    75    74    1
    83   180   178   ar
    84   176   178   ar
    85   176   175    1
    86   164   163    1
    87    74    67   am
    88   173   174    2
    89    67    66    1
    90    67    68    2
    91    39    40    2
    92    39    38    1
    93   108   110   ar
    94    66    69    1
    95   107   109   ar
    96   163   162    1
    97    29    28    2
    98    38    41    1
    99    38    37    1
   100   110   109   ar
   101   110   111    1
   102    69    70    1
   103   127   126    2
   104   162   158   am
   105    28    37   am
   106    28    27    1
   107   198   197   ar
   108   198   196   ar
   109   197   195   ar
   110    72    71    2
   111   158   159    2
   112   158   157    1
   113    70    71    1
   114   126   125    1
   115   155   154    2
   116    30    27    1
   117    30    31    1
   118    27    26    1
   119    71    73   am
   120   196   194   ar
   121   154   153    1
   122   154   156   am
   123   124   125    1
   124   153   152    1
   125   195   193   ar
   126   157   156    1
   127   157   160    1
   128   125   128    1
   129    33    31   ar
   130    33    35   ar
   131    25    23   ar
   132    31    32   ar
   133   152   140   am
   134   194   193   ar
   135     7     6    1
   136   193   192    1
   137    23    24   ar
   138    23    22    1
   139   160   161    1
   140   132   131    2
   141    35    36   ar
   142    32    34   ar
   143   146   144   ar
   144   146   147   ar
   145   140   139    1
   146   140   141    2
   147    22    21    1
   148   144   143   ar
   149   191   190    2
   150   192   189    1
   151     8     6    1
   152     6     5    1
   153   139   138    1
   154   139   142    1
   155    21    18    1
   156   131   138   am
   157   131   130    1
   158   133   130    1
   159   133   134    1
   160    36    34   ar
   161   147   149   ar
   162   147   145   ar
   163   135   134    1
   164   135   136    1
   165     5     2    1
   166   137   136    1
   167   143   142    1
   168   143   145   ar
   169   149   151   ar
   170   190   189    1
   171   189   188    1
   172   130   129    1
   173   145   148   ar
   174    16    14    1
   175    18    17    1
   176    18    19    1
   177    17    11   am
   178   151   150   ar
   179    13    15    1
   180    13    14    1
   181    13    10    1
   182     2     3    1
   183     2     1    1
   184     9     3   am
   185     9    10    1
   186   148   150   ar
   187    19    20    2
   188     3     4    2
   189    10    11    1
   190    11    12    2
   191   185   184    2
   192   186   187    1
   193   186   183    1
   194   184   183    1
   195   183   182    1
