@<TRIPOS>MOLECULE
tmp/4epqA00.pdb
 173 168 0 0 0
SMALL
GASTEIGER

@<TRIPOS>ATOM
      1  N         -1.4180    6.2320   13.1790 N.3   210  ASP210     -0.1225
      2  CA        -1.5940    5.2420   12.1220 C.3   210  ASP210      0.1805
      3  C         -2.3180    5.7850   10.8900 C.2   210  ASP210      0.2597
      4  O         -2.0550    5.3840    9.7600 O.2   210  ASP210     -0.2718
      5  CB        -2.5250    4.1610   12.6780 C.3   210  ASP210      0.1424
      6  CG        -1.8250    2.8680   12.9360 C.2   210  ASP210      0.3668
      7  OD1       -2.4250    1.9940   13.6060 O.co2 210  ASP210     -0.2456
      8  OD2       -0.6770    2.7310   12.4630 O.co2 210  ASP210     -0.2456
      9  N         -3.2830    6.6610   11.1280 N.am  211  ASP211     -0.1974
     10  CA        -4.3450    6.8880   10.1620 C.3   211  ASP211      0.1709
     11  C         -4.6030    8.3540    9.8880 C.2   211  ASP211      0.2293
     12  O         -5.5460    8.7080    9.1670 O.2   211  ASP211     -0.2864
     13  CB        -5.6490    6.1770   10.5950 C.3   211  ASP211      0.1436
     14  CG        -6.0820    6.5190   12.0240 C.2   211  ASP211      0.3671
     15  OD1       -5.3430    7.2050   12.7760 O.co2 211  ASP211     -0.2456
     16  OD2       -7.1850    6.0770   12.4030 O.co2 211  ASP211     -0.2456
     17  N         -3.0400   12.2060    8.5990 N.3   213  LEU213     -0.1245
     18  CA        -2.0650   12.8410    7.7360 C.3   213  LEU213      0.1561
     19  C         -1.5070   14.0770    8.4180 C.2   213  LEU213      0.2260
     20  O         -2.0920   14.5830    9.3740 O.2   213  LEU213     -0.2867
     21  CB        -2.7320   13.2160    6.4220 C.3   213  LEU213      0.0270
     22  CG        -3.2430   11.9660    5.7090 C.3   213  LEU213      0.0019
     23  CD1       -4.1840   12.3260    4.5610 C.3   213  LEU213      0.0001
     24  CD2       -2.0650   11.1380    5.2090 C.3   213  LEU213      0.0001
     25  N         -1.4280   17.1660    7.6910 N.3   215  GLU215     -0.1245
     26  CA        -2.2590   18.3630    7.6920 C.3   215  GLU215      0.1567
     27  C         -3.4970   18.2170    8.5770 C.2   215  GLU215      0.2260
     28  O         -4.2440   19.1790    8.7710 O.2   215  GLU215     -0.2867
     29  CB        -2.6280   18.7710    6.2640 C.3   215  GLU215      0.0388
     30  CG        -3.5680   17.8350    5.5630 C.3   215  GLU215      0.1160
     31  CD        -2.8420   16.7290    4.8350 C.2   215  GLU215      0.3649
     32  OE1       -1.6300   16.5360    5.1010 O.co2 215  GLU215     -0.2457
     33  OE2       -3.4790   16.0590    3.9880 O.co2 215  GLU215     -0.2457
     34  N          7.8670   17.1760    2.9870 N.3   225  PHE225     -0.1241
     35  CA         9.0240   16.3510    2.6500 C.3   225  PHE225      0.1605
     36  C          9.5160   16.8290    1.2800 C.2   225  PHE225      0.2264
     37  O          9.1750   16.2490    0.2520 O.2   225  PHE225     -0.2867
     38  CB         8.5950   14.8860    2.5480 C.3   225  PHE225      0.0534
     39  CG         7.9960   14.3150    3.8140 C.ar  225  PHE225     -0.0203
     40  CD1        8.1950   14.9370    5.0500 C.ar  225  PHE225     -0.0042
     41  CD2        7.2520   13.1270    3.7680 C.ar  225  PHE225     -0.0042
     42  CE1        7.6560   14.3890    6.2170 C.ar  225  PHE225     -0.0003
     43  CE2        6.7030   12.5750    4.9270 C.ar  225  PHE225     -0.0003
     44  CZ         6.9110   13.2050    6.1520 C.ar  225  PHE225     -0.0000
     45  N          3.5260   12.6670   -4.9690 N.3   240  VAL240     -0.1231
     46  CA         3.6750   12.1020   -3.6420 C.3   240  VAL240      0.1692
     47  C          3.5860   13.2300   -2.5890 C.2   240  VAL240      0.2592
     48  O          2.9390   14.2610   -2.8450 O.2   240  VAL240     -0.2718
     49  CB         4.9170   11.1440   -3.5190 C.3   240  VAL240      0.0266
     50  CG1        4.6940    9.9290   -4.3740 C.3   240  VAL240      0.0020
     51  CG2        6.2590   11.8180   -3.9210 C.3   240  VAL240      0.0020
     52  N          4.1980   13.0450   -1.4190 N.am  241  GLN241     -0.1966
     53  CA         3.8470   13.8910   -0.2770 C.3   241  GLN241      0.1733
     54  C          3.9100   15.3910   -0.5850 C.2   241  GLN241      0.2616
     55  O          2.9310   16.1070   -0.3570 O.2   241  GLN241     -0.2715
     56  CB         4.6520   13.5240    0.9830 C.3   241  GLN241      0.0408
     57  CG         4.0270   14.0480    2.2970 C.3   241  GLN241      0.0908
     58  CD         4.6870   15.3380    2.8150 C.2   241  GLN241      0.2608
     59  OE1        5.3980   16.0400    2.0930 O.2   241  GLN241     -0.2717
     60  NE2        4.4590   15.6350    4.0720 N.am  241  GLN241     -0.0878
     61  N          5.0390   15.8620   -1.1180 N.am  242  GLU242     -0.1977
     62  CA         5.1810   17.2930   -1.4050 C.3   242  GLU242      0.1602
     63  C          4.1900   17.7960   -2.4400 C.2   242  GLU242      0.2287
     64  O          3.5570   18.8260   -2.2470 O.2   242  GLU242     -0.2864
     65  CB         6.6100   17.6840   -1.8290 C.3   242  GLU242      0.0415
     66  CG         6.6630   19.1110   -2.4610 C.3   242  GLU242      0.1163
     67  CD         8.0230   19.8230   -2.3320 C.2   242  GLU242      0.3649
     68  OE1        9.0370   19.3010   -2.8460 O.co2 242  GLU242     -0.2457
     69  OE2        8.0770   20.9160   -1.7090 O.co2 242  GLU242     -0.2457
     70  N          1.3750   16.5500   -3.4790 N.3   244  ILE244     -0.1245
     71  CA         0.0140   16.4300   -3.0090 C.3   244  ILE244      0.1561
     72  C         -0.3500   17.6680   -2.1970 C.2   244  ILE244      0.2260
     73  O         -1.4280   18.2450   -2.3760 O.2   244  ILE244     -0.2867
     74  CB        -0.1410   15.1540   -2.1700 C.3   244  ILE244      0.0252
     75  CG1       -0.2080   13.9360   -3.0920 C.3   244  ILE244      0.0019
     76  CG2       -1.3470   15.2460   -1.2340 C.3   244  ILE244      0.0019
     77  CD1       -0.2730   12.6330   -2.3220 C.3   244  ILE244      0.0001
     78  N         -8.7400   15.0490   -0.9120 N.3   280  TYR280     -0.1227
     79  CA        -8.2140   14.0670   -1.8330 C.3   280  TYR280      0.1736
     80  C         -8.2320   12.7100   -1.1860 C.2   280  TYR280      0.2595
     81  O         -8.3490   12.5810    0.0330 O.2   280  TYR280     -0.2718
     82  CB        -6.7660   14.4030   -2.2070 C.3   280  TYR280      0.0548
     83  CG        -5.7750   14.1670   -1.0830 C.ar  280  TYR280     -0.0200
     84  CD1       -5.0210   12.9900   -1.0240 C.ar  280  TYR280     -0.0009
     85  CD2       -5.6060   15.1070   -0.0620 C.ar  280  TYR280     -0.0009
     86  CE1       -4.1130   12.7660    0.0130 C.ar  280  TYR280      0.0417
     87  CE2       -4.7060   14.8830    0.9740 C.ar  280  TYR280      0.0417
     88  CZ        -3.9580   13.7200    0.9970 C.ar  280  TYR280      0.1957
     89  OH        -3.0580   13.5120    2.0100 O.3   280  TYR280     -0.2866
     90  N         -8.0970   11.6950   -2.0210 N.am  281  GLN281     -0.1965
     91  CA        -7.8070   10.3690   -1.5370 C.3   281  GLN281      0.1733
     92  C         -6.6320    9.8500   -2.3560 C.2   281  GLN281      0.2617
     93  O         -6.3780   10.3160   -3.4630 O.2   281  GLN281     -0.2715
     94  CB        -9.0260    9.4760   -1.7210 C.3   281  GLN281      0.0408
     95  CG        -9.3000    9.1270   -3.1700 C.3   281  GLN281      0.0908
     96  CD       -10.7310    8.6710   -3.3910 C.2   281  GLN281      0.2608
     97  OE1      -11.6630    9.2240   -2.8030 O.2   281  GLN281     -0.2717
     98  NE2      -10.9110    7.6540   -4.2350 N.am  281  GLN281     -0.0878
     99  N         -5.8980    8.8970   -1.8090 N.am  282  GLY282     -0.1940
    100  CA        -4.8900    8.2120   -2.5900 C.3   282  GLY282      0.2014
    101  C         -3.5420    8.8940   -2.6060 C.2   282  GLY282      0.2638
    102  O         -3.2430    9.7770   -1.7970 O.2   282  GLY282     -0.2714
    103  N         -2.7250    8.4850   -3.5580 N.am  283  TYR283     -0.1973
    104  CA        -1.3300    8.8140   -3.5120 C.3   283  TYR283      0.1639
    105  C         -0.7600    8.4030   -4.8450 C.2   283  TYR283      0.2290
    106  O         -1.0010    7.3050   -5.3140 O.2   283  TYR283     -0.2864
    107  CB        -0.7100    7.9940   -2.3840 C.3   283  TYR283      0.0560
    108  CG         0.7600    8.2120   -2.0850 C.ar  283  TYR283     -0.0198
    109  CD1        1.2060    9.3700   -1.4180 C.ar  283  TYR283     -0.0009
    110  CD2        1.7070    7.2270   -2.4150 C.ar  283  TYR283     -0.0009
    111  CE1        2.5780    9.5460   -1.1090 C.ar  283  TYR283      0.0417
    112  CE2        3.0670    7.3900   -2.1120 C.ar  283  TYR283      0.0417
    113  CZ         3.5060    8.5450   -1.4580 C.ar  283  TYR283      0.1957
    114  OH         4.8630    8.6800   -1.1670 O.3   283  TYR283     -0.2866
    115  N          7.1430    9.9880    7.4520 N.3   352  LYS352     -0.1245
    116  CA         8.1730    9.2260    6.7320 C.3   352  LYS352      0.1561
    117  C          9.0520   10.0850    5.8080 C.2   352  LYS352      0.2260
    118  O          9.1110    9.8590    4.5900 O.2   352  LYS352     -0.2867
    119  CB         7.5260    8.0770    5.9570 C.3   352  LYS352      0.0271
    120  CG         7.0400    6.9540    6.8570 C.3   352  LYS352      0.0035
    121  CD         6.6520    5.7360    6.0380 C.3   352  LYS352      0.0206
    122  CE         6.3340    4.5440    6.9310 C.3   352  LYS352      0.1093
    123  NZ         6.1200    3.2730    6.1720 N.3   352  LYS352     -0.1314
    124  N         11.6360   11.5210    3.5510 N.3   354  GLY354     -0.1210
    125  CA        12.6840   11.0210    2.6620 C.3   354  GLY354      0.1956
    126  C         12.7920    9.4970    2.5300 C.2   354  GLY354      0.2612
    127  O         13.8290    8.9690    2.1110 O.2   354  GLY354     -0.2717
    128  N         11.7140    8.7870    2.8550 N.am  355  CYS355     -0.1956
    129  CA        11.7320    7.3280    2.8670 C.3   355  CYS355      0.1843
    130  C         10.9320    6.7180    1.7370 C.2   355  CYS355      0.2626
    131  O         10.5890    5.5360    1.7860 O.2   355  CYS355     -0.2714
    132  CB        11.2060    6.8000    4.2130 C.3   355  CYS355      0.0997
    133  SG        12.1460    7.4680    5.5780 S.3   355  CYS355     -0.0797
    134  N         10.6030    7.5230    0.7350 N.am  356  GLY356     -0.1940
    135  CA         9.9050    7.0020   -0.4280 C.3   356  GLY356      0.2014
    136  C         10.9040    6.7710   -1.5400 C.2   356  GLY356      0.2639
    137  O         11.8320    5.9770   -1.3890 O.2   356  GLY356     -0.2714
    138  N         10.7170    7.4990   -2.6380 N.am  357  ALA357     -0.1963
    139  CA        11.6460    7.5210   -3.7660 C.3   357  ALA357      0.1728
    140  C         13.0570    7.9680   -3.3720 C.2   357  ALA357      0.2616
    141  O         13.9870    7.8190   -4.1620 O.2   357  ALA357     -0.2715
    142  CB        11.1080    8.4370   -4.8740 C.3   357  ALA357      0.0334
    143  N         13.2110    8.5480   -2.1800 N.am  358  PHE358     -0.1974
    144  CA        14.5160    9.0300   -1.7460 C.3   358  PHE358      0.1639
    145  C         15.2680    7.9120   -1.0540 C.2   358  PHE358      0.2290
    146  O         16.4290    8.0830   -0.6720 O.2   358  PHE358     -0.2864
    147  CB        14.3940   10.2560   -0.8300 C.3   358  PHE358      0.0560
    148  CG        14.4210   11.5730   -1.5650 C.ar  358  PHE358     -0.0200
    149  CD1       14.0370   11.6530   -2.8980 C.ar  358  PHE358     -0.0042
    150  CD2       14.8450   12.7230   -0.9290 C.ar  358  PHE358     -0.0042
    151  CE1       14.0670   12.8600   -3.5810 C.ar  358  PHE358     -0.0003
    152  CE2       14.8810   13.9340   -1.6020 C.ar  358  PHE358     -0.0003
    153  CZ        14.4900   14.0010   -2.9340 C.ar  358  PHE358     -0.0000
    154  N          1.3450    6.4090    8.3750 N.3   385  PHE385     -0.1227
    155  CA         0.5800    6.1040    7.1700 C.3   385  PHE385      0.1736
    156  C          0.2710    4.6030    7.1130 C.2   385  PHE385      0.2595
    157  O          0.6990    3.9120    6.1910 O.2   385  PHE385     -0.2718
    158  CB         1.3350    6.5170    5.8900 C.3   385  PHE385      0.0547
    159  CG         1.9200    7.9180    5.9170 C.ar  385  PHE385     -0.0202
    160  CD1        3.3060    8.1080    5.8370 C.ar  385  PHE385     -0.0042
    161  CD2        1.0930    9.0450    5.9810 C.ar  385  PHE385     -0.0042
    162  CE1        3.8570    9.3950    5.8470 C.ar  385  PHE385     -0.0003
    163  CE2        1.6350   10.3360    5.9910 C.ar  385  PHE385     -0.0003
    164  CZ         3.0220   10.5100    5.9210 C.ar  385  PHE385     -0.0000
    165  N         -0.4500    4.1010    8.1120 N.am  386  GLN386     -0.1979
    166  CA        -0.9230    2.7220    8.1110 C.3   386  GLN386      0.1601
    167  C          0.1990    1.6920    7.9850 C.2   386  GLN386      0.2287
    168  O          0.0090    0.6290    7.3940 O.2   386  GLN386     -0.2864
    169  CB        -1.9550    2.4980    6.9920 C.3   386  GLN386      0.0394
    170  CG        -3.1430    3.4730    6.9860 C.3   386  GLN386      0.0908
    171  CD        -4.2050    3.1820    8.0520 C.2   386  GLN386      0.2608
    172  OE1       -3.9850    2.4150    8.9870 O.2   386  GLN386     -0.2717
    173  NE2       -5.3600    3.8100    7.9040 N.am  386  GLN386     -0.0878
@<TRIPOS>BOND
     1   106   105    2
     2    45    46    1
     3   142   139    1
     4   105   104    1
     5    50    49    1
     6    98    96   am
     7   141   140    2
     8    51    49    1
     9   139   140    1
    10   139   138    1
    11    46    49    1
    12    46    47    1
    13   151   153   ar
    14   151   149   ar
    15   103   104    1
    16   103   101   am
    17   104   107    1
    18    70    71    1
    19    93    92    2
    20    96    95    1
    21    96    97    2
    22   140   143   am
    23    95    94    1
    24    75    77    1
    25    75    74    1
    26    71    72    1
    27    71    74    1
    28   153   152   ar
    29   149   148   ar
    30    68    67   ar
    31    48    47    2
    32   138   136   am
    33   101   100    1
    34   101   102    2
    35   100    99    1
    36    47    52   am
    37    66    67    1
    38    66    65    1
    39    63    64    2
    40    63    62    1
    41   110   112   ar
    42   110   108   ar
    43   107   108    1
    44    73    72    2
    45    92    99   am
    46    92    91    1
    47    67    69   ar
    48    82    79    1
    49    82    83    1
    50   143   144    1
    51    74    76    1
    52   112   113   ar
    53   108   109   ar
    54    90    91    1
    55    90    80   am
    56    79    80    1
    57    79    78    1
    58    65    62    1
    59   144   145    1
    60   144   147    1
    61    94    91    1
    62   152   150   ar
    63   148   150   ar
    64   148   147    1
    65   136   137    2
    66   136   135    1
    67   113   114    1
    68   113   111   ar
    69    52    53    1
    70   109   111   ar
    71    62    61    1
    72    80    81    2
    73    61    54   am
    74    83    84   ar
    75    83    85   ar
    76   145   146    2
    77    84    86   ar
    78    54    55    2
    79    54    53    1
    80   135   134    1
    81    53    56    1
    82    85    87   ar
    83    86    88   ar
    84    37    36    2
    85   134   130   am
    86    87    88   ar
    87    56    57    1
    88    88    89    1
    89    36    35    1
    90   130   131    2
    91   130   129    1
    92    59    58    2
    93   127   126    2
    94    57    58    1
    95   126   125    1
    96   126   128   am
    97    38    35    1
    98    38    39    1
    99    35    34    1
   100   125   124    1
   101    58    60   am
   102   128   129    1
   103   129   132    1
   104    41    39   ar
   105    41    43   ar
   106    39    40   ar
   107    33    31   ar
   108   132   133    1
   109    23    22    1
   110   118   117    2
   111    31    32   ar
   112    31    30    1
   113    43    44   ar
   114    40    42   ar
   115    24    22    1
   116    30    29    1
   117    22    21    1
   118   117   116    1
   119   160   162   ar
   120   160   159   ar
   121   162   164   ar
   122   158   159    1
   123   158   155    1
   124   159   161   ar
   125   164   163   ar
   126   119   116    1
   127   119   120    1
   128   161   163   ar
   129   121   120    1
   130   121   122    1
   131    44    42   ar
   132   123   122    1
   133   157   156    2
   134    29    26    1
   135    21    18    1
   136   116   115    1
   137   170   169    1
   138   170   171    1
   139   169   166    1
   140   156   155    1
   141   156   165   am
   142   155   154    1
   143   168   167    2
   144    25    26    1
   145    26    27    1
   146    18    19    1
   147    18    17    1
   148   173   171   am
   149   167   166    1
   150   171   172    2
   151   166   165    1
   152    19    20    2
   153    27    28    2
   154    12    11    2
   155     4     3    2
   156    11    10    1
   157    10    13    1
   158    10     9    1
   159    13    14    1
   160     3     9   am
   161     3     2    1
   162    14    16   ar
   163    14    15   ar
   164     2     5    1
   165     2     1    1
   166     8     6   ar
   167     5     6    1
   168     6     7   ar
