@<TRIPOS>MOLECULE
tmp/4eptA01.pdb
 106 100 0 0 0
SMALL
GASTEIGER

@<TRIPOS>ATOM
      1  N         25.4130   50.3080   17.0490 N.3     5  LYS5       -0.1231
      2  CA        25.8960   49.0410   16.5380 C.3     5  LYS5        0.1693
      3  C         27.4260   49.0840   16.6670 C.2     5  LYS5        0.2592
      4  O         28.1030   49.9140   16.0690 O.2     5  LYS5       -0.2718
      5  CB        25.4490   48.8900   15.0840 C.3     5  LYS5        0.0285
      6  CG        23.9400   48.5060   14.8350 C.3     5  LYS5        0.0035
      7  CD        23.7460   47.0140   14.8740 C.3     5  LYS5        0.0206
      8  CE        22.5280   46.5340   13.9710 C.3     5  LYS5        0.1093
      9  NZ        21.1780   46.4110   14.6830 N.3     5  LYS5       -0.1314
     10  N         27.9550   48.2930   17.5750 N.am    6  LEU6       -0.1966
     11  CA        29.3960   48.2740   17.8030 C.3     6  LEU6        0.1728
     12  C         29.9240   46.9390   17.2900 C.2     6  LEU6        0.2616
     13  O         29.2590   45.8980   17.4350 O.2     6  LEU6       -0.2715
     14  CB        29.6730   48.3800   19.3230 C.3     6  LEU6        0.0311
     15  CG        29.2210   49.7600   19.8730 C.3     6  LEU6        0.0022
     16  CD1       29.6510   49.8320   21.3270 C.3     6  LEU6        0.0001
     17  CD2       29.7710   50.9730   19.0370 C.3     6  LEU6        0.0001
     18  N         31.1360   46.9660   16.7390 N.am    7  VAL7       -0.1977
     19  CA        31.7760   45.7640   16.2580 C.3     7  VAL7        0.1596
     20  C         33.1390   45.6680   16.9020 C.2     7  VAL7        0.2287
     21  O         33.8930   46.6380   16.8600 O.2     7  VAL7       -0.2864
     22  CB        31.9170   45.8350   14.6760 C.3     7  VAL7        0.0276
     23  CG1       32.7260   44.7240   14.2140 C.3     7  VAL7        0.0022
     24  CG2       30.5590   45.7250   14.0210 C.3     7  VAL7        0.0022
     25  N         30.7770   33.3610   17.1000 N.3    37  GLU37      -0.1231
     26  CA        30.4450   34.7420   16.7140 C.3    37  GLU37       0.1699
     27  C         28.9760   35.0710   17.0660 C.2    37  GLU37       0.2592
     28  O         28.0500   34.4050   16.6100 O.2    37  GLU37      -0.2718
     29  CB        30.6150   34.9130   15.2060 C.3    37  GLU37       0.0402
     30  CG        30.3310   36.4080   14.7000 C.3    37  GLU37       0.1161
     31  CD        30.9570   36.6850   13.3590 C.2    37  GLU37       0.3649
     32  OE1       30.2890   36.5710   12.2850 O.co2  37  GLU37      -0.2457
     33  OE2       32.1640   36.9520   13.3590 O.co2  37  GLU37      -0.2457
     34  N         28.7560   36.1270   17.8370 N.am   38  ASP38      -0.1960
     35  CA        27.3970   36.5350   18.1780 C.3    38  ASP38       0.1840
     36  C         27.4140   38.0330   18.5500 C.2    38  ASP38       0.2622
     37  O         28.5030   38.6030   18.7520 O.2    38  ASP38      -0.2715
     38  CB        26.8840   35.7130   19.3690 C.3    38  ASP38       0.1450
     39  CG        25.3230   35.5210   19.3350 C.2    38  ASP38       0.3671
     40  OD1       24.5870   36.0790   18.4420 O.co2  38  ASP38      -0.2456
     41  OD2       24.8640   34.7960   20.2470 O.co2  38  ASP38      -0.2456
     42  N         26.2170   38.6270   18.5960 N.am   39  SER39      -0.1950
     43  CA        25.9910   39.9760   19.0910 C.3    39  SER39       0.1924
     44  C         25.3730   39.9420   20.4870 C.2    39  SER39       0.2314
     45  O         24.6830   38.9980   20.8590 O.2    39  SER39      -0.2863
     46  CB        25.0620   40.7400   18.1440 C.3    39  SER39       0.2116
     47  OG        23.8070   40.0850   18.0960 O.3    39  SER39      -0.2180
     48  N         23.3670   42.4500   23.3870 N.3    41  ARG41      -0.1245
     49  CA        22.7400   43.7520   23.6390 C.3    41  ARG41       0.1563
     50  C         22.8450   44.1430   25.0860 C.2    41  ARG41       0.2260
     51  O         22.7910   43.2770   25.9430 O.2    41  ARG41      -0.2867
     52  CB        21.2960   43.7510   23.1390 C.3    41  ARG41       0.0307
     53  CG        21.2960   43.8370   21.5990 C.3    41  ARG41       0.0489
     54  CD        19.9080   43.7900   20.9750 C.3    41  ARG41       0.2205
     55  NE        19.9790   43.1290   19.6630 N.pl3  41  ARG41      -0.0865
     56  CZ        19.7710   43.7140   18.4790 C.cat  41  ARG41       0.5346
     57  NH1       19.4270   45.0030   18.3830 N.pl3  41  ARG41       0.1354
     58  NH2       19.8910   42.9940   17.3770 N.pl3  41  ARG41       0.1354
     59  N         24.4270   47.3390   20.8760 N.3    54  ASP54      -0.1239
     60  CA        24.2950   46.1210   20.0870 C.3    54  ASP54       0.1674
     61  C         25.7100   45.7680   19.5620 C.2    54  ASP54       0.2266
     62  O         26.2160   46.3630   18.6140 O.2    54  ASP54      -0.2867
     63  CB        23.2840   46.3040   18.9220 C.3    54  ASP54       0.1410
     64  CG        23.1280   45.0380   18.0610 C.2    54  ASP54       0.3668
     65  OD1       23.8600   44.0640   18.2300 O.co2  54  ASP54      -0.2456
     66  OD2       22.3150   45.0410   17.1320 O.co2  54  ASP54      -0.2456
     67  N         28.7230   43.3120   18.3020 N.3    56  LEU56      -0.1245
     68  CA        29.1560   42.1010   17.6140 C.3    56  LEU56       0.1561
     69  C         30.5540   41.7160   18.0270 C.2    56  LEU56       0.2260
     70  O         31.4950   42.5230   17.9160 O.2    56  LEU56      -0.2867
     71  CB        29.1670   42.2710   16.1130 C.3    56  LEU56       0.0270
     72  CG        29.6280   41.0820   15.2790 C.3    56  LEU56       0.0019
     73  CD1       28.7880   39.9180   15.4600 C.3    56  LEU56       0.0001
     74  CD2       29.6150   41.4390   13.8480 C.3    56  LEU56       0.0001
     75  N         29.2080   42.9450    5.4230 N.3    70  GLN70      -0.1231
     76  CA        27.8850   43.4110    5.7680 C.3    70  GLN70       0.1698
     77  C         27.8090   43.8990    7.2220 C.2    70  GLN70       0.2592
     78  O         27.2320   44.9280    7.5150 O.2    70  GLN70      -0.2718
     79  CB        26.9340   42.2620    5.5740 C.3    70  GLN70       0.0381
     80  CG        25.5370   42.4100    6.1640 C.3    70  GLN70       0.0905
     81  CD        24.7750   41.0770    6.1540 C.2    70  GLN70       0.2608
     82  OE1       24.8500   40.3090    5.1800 O.2    70  GLN70      -0.2717
     83  NE2       24.0210   40.7950    7.2450 N.am   70  GLN70      -0.0878
     84  N         28.3800   43.1350    8.1370 N.am   71  TYR71      -0.1976
     85  CA        28.4600   43.5610    9.5200 C.3    71  TYR71       0.1639
     86  C         29.3150   44.8320    9.6950 C.2    71  TYR71       0.2290
     87  O         28.9120   45.7140   10.4480 O.2    71  TYR71      -0.2864
     88  CB        29.0310   42.4160   10.3870 C.3    71  TYR71       0.0560
     89  CG        28.1520   41.1920   10.4760 C.ar   71  TYR71      -0.0198
     90  CD1       26.7530   41.2830   10.3140 C.ar   71  TYR71      -0.0009
     91  CD2       28.7040   39.9530   10.7680 C.ar   71  TYR71      -0.0009
     92  CE1       25.9440   40.1450   10.3980 C.ar   71  TYR71       0.0417
     93  CE2       27.9010   38.8330   10.8900 C.ar   71  TYR71       0.0417
     94  CZ        26.5320   38.9270   10.7090 C.ar   71  TYR71       0.1957
     95  OH        25.7780   37.7690   10.8120 O.3    71  TYR71      -0.2866
     96  N         27.3720   47.8210    8.8120 N.3    74  THR74      -0.1203
     97  CA        26.3480   48.1670    9.7880 C.3    74  THR74       0.1994
     98  C         26.9950   48.8240   10.9730 C.2    74  THR74       0.2618
     99  O         26.3560   49.6130   11.6280 O.2    74  THR74      -0.2717
    100  CB        25.5470   46.9220   10.2970 C.3    74  THR74       0.1784
    101  OG1       24.9620   46.2570    9.1810 O.3    74  THR74      -0.2211
    102  CG2       24.3980   47.3580   11.1970 C.3    74  THR74       0.0376
    103  N         28.2470   48.4570   11.2750 N.am   75  GLY75      -0.1956
    104  CA        28.9010   48.9210   12.5040 C.3    75  GLY75       0.1869
    105  C         28.9030   50.4300   12.5180 C.2    75  GLY75       0.2309
    106  O         29.0850   51.0340   11.4840 O.2    75  GLY75      -0.2863
@<TRIPOS>BOND
     1    82    81    2
     2    75    76    1
     3    79    76    1
     4    79    80    1
     5    76    77    1
     6    81    80    1
     7    81    83   am
     8    77    78    2
     9    77    84   am
    10    84    85    1
    11    96    97    1
    12   101   100    1
    13    85    86    1
    14    85    88    1
    15    86    87    2
    16    97   100    1
    17    97    98    1
    18   100   102    1
    19    90    92   ar
    20    90    89   ar
    21    88    89    1
    22    92    94   ar
    23    89    91   ar
    24    94    95    1
    25    94    93   ar
    26    91    93   ar
    27    98   103   am
    28    98    99    2
    29   103   104    1
    30   106   105    2
    31    32    31   ar
    32   104   105    1
    33    31    33   ar
    34    31    30    1
    35    74    72    1
    36     8     9    1
    37     8     7    1
    38    24    22    1
    39    23    22    1
    40    22    19    1
    41    30    29    1
    42     6     7    1
    43     6     5    1
    44     5     2    1
    45    29    26    1
    46    72    73    1
    47    72    71    1
    48     4     3    2
    49    71    68    1
    50    19    18    1
    51    19    20    1
    52     2     3    1
    53     2     1    1
    54    28    27    2
    55     3    10   am
    56    26    27    1
    57    26    25    1
    58    18    12   am
    59    21    20    2
    60    27    34   am
    61    66    64   ar
    62    12    13    2
    63    12    11    1
    64    58    56    1
    65    10    11    1
    66    68    69    1
    67    68    67    1
    68    11    14    1
    69    34    35    1
    70    70    69    2
    71    64    65   ar
    72    64    63    1
    73    47    46    1
    74    46    43    1
    75    35    36    1
    76    35    38    1
    77    57    56    1
    78    40    39   ar
    79    56    55    2
    80    36    42   am
    81    36    37    2
    82    42    43    1
    83    62    61    2
    84    63    60    1
    85    17    15    1
    86    43    44    1
    87    14    15    1
    88    39    38    1
    89    39    41   ar
    90    61    60    1
    91    55    54    1
    92    15    16    1
    93    60    59    1
    94    44    45    2
    95    54    53    1
    96    53    52    1
    97    52    49    1
    98    48    49    1
    99    49    50    1
   100    50    51    2
