@<TRIPOS>MOLECULE
tmp/4epvA01.pdb
 112 105 0 0 0
SMALL
GASTEIGER

@<TRIPOS>ATOM
      1  N         40.1940   24.9700    3.9110 N.3     6  LYS6       -0.1231
      2  CA        40.3530   24.2190    5.1640 C.3     6  LYS6        0.1693
      3  C         39.1520   24.4450    6.0600 C.2     6  LYS6        0.2592
      4  O         38.9810   25.5640    6.6370 O.2     6  LYS6       -0.2718
      5  CB        41.6210   24.6100    5.9020 C.3     6  LYS6        0.0285
      6  CG        42.8160   24.1280    5.0830 C.3     6  LYS6        0.0035
      7  CD        44.0790   24.8600    5.5420 C.3     6  LYS6        0.0206
      8  CE        45.4460   24.3740    4.8220 C.3     6  LYS6        0.1093
      9  NZ        45.3740   24.6260    3.2820 N.3     6  LYS6       -0.1314
     10  N         38.3090   23.4140    6.2010 N.am    7  LEU7       -0.1966
     11  CA        37.0700   23.5730    6.9730 C.3     7  LEU7        0.1728
     12  C         37.2430   22.7060    8.1850 C.2     7  LEU7        0.2616
     13  O         37.7720   21.5460    8.1070 O.2     7  LEU7       -0.2715
     14  CB        35.8570   23.0920    6.1030 C.3     7  LEU7        0.0311
     15  CG        35.7690   23.5770    4.6390 C.3     7  LEU7        0.0022
     16  CD1       34.5240   22.9990    4.0180 C.3     7  LEU7        0.0001
     17  CD2       35.7800   25.1010    4.6880 C.3     7  LEU7        0.0001
     18  N         36.6830   23.1790    9.3020 N.am    8  VAL8       -0.1977
     19  CA        36.6830   22.4330   10.5520 C.3     8  VAL8        0.1596
     20  C         35.2510   22.2280   11.0570 C.2     8  VAL8        0.2287
     21  O         34.4980   23.2070   11.1660 O.2     8  VAL8       -0.2864
     22  CB        37.4850   23.1960   11.5840 C.3     8  VAL8        0.0276
     23  CG1       37.5800   22.4230   12.8810 C.3     8  VAL8        0.0022
     24  CG2       38.9120   23.4250   11.1050 C.3     8  VAL8        0.0022
     25  N         39.1730   11.2830   15.3030 N.3    38  GLU38      -0.1231
     26  CA        39.3150   12.6310   14.6530 C.3    38  GLU38       0.1699
     27  C         40.1990   12.4220   13.4650 C.2    38  GLU38       0.2592
     28  O         41.3970   12.0720   13.6170 O.2    38  GLU38      -0.2718
     29  CB        39.9300   13.5930   15.6090 C.3    38  GLU38       0.0402
     30  CG        40.3100   14.9870   15.0250 C.3    38  GLU38       0.1161
     31  CD        40.5860   15.9450   16.1490 C.2    38  GLU38       0.3649
     32  OE1       39.7070   16.3940   16.9260 O.co2  38  GLU38      -0.2457
     33  OE2       41.7620   16.3540   16.2830 O.co2  38  GLU38      -0.2457
     34  N         39.7200   12.7780   12.2950 N.am   39  ASP39      -0.1960
     35  CA        40.5000   12.5570   11.0300 C.3    39  ASP39       0.1840
     36  C         40.0990   13.7070   10.0750 C.2    39  ASP39       0.2622
     37  O         38.9940   14.3250   10.1860 O.2    39  ASP39      -0.2715
     38  CB        40.1000   11.2160   10.3190 C.3    39  ASP39       0.1450
     39  CG        40.4740    9.8460   11.0540 C.2    39  ASP39       0.3671
     40  OD1       41.4010    9.7360   11.8960 O.co2  39  ASP39      -0.2456
     41  OD2       39.8260    8.8340   10.6540 O.co2  39  ASP39      -0.2456
     42  N         40.9710   13.9170    9.0920 N.am   40  SER40      -0.1950
     43  CA        40.6490   14.8390    7.9720 C.3    40  SER40       0.1924
     44  C         40.2810   14.0720    6.6950 C.2    40  SER40       0.2314
     45  O         40.6800   12.8880    6.4980 O.2    40  SER40      -0.2863
     46  CB        41.7530   15.8080    7.6940 C.3    40  SER40       0.2116
     47  OG        42.9350   15.0940    7.2670 O.3    40  SER40      -0.2180
     48  N         39.0690   20.4500    2.3360 N.3    55  ASP55      -0.1239
     49  CA        39.9440   19.6710    3.2580 C.3    55  ASP55       0.1674
     50  C         39.3420   19.8220    4.6310 C.2    55  ASP55       0.2266
     51  O         39.4070   20.9540    5.1800 O.2    55  ASP55      -0.2867
     52  CB        41.3190   20.3130    3.2030 C.3    55  ASP55       0.1410
     53  CG        42.3620   19.5070    3.9100 C.2    55  ASP55       0.3668
     54  OD1       41.9530   18.5880    4.6090 O.co2  55  ASP55      -0.2456
     55  OD2       43.5560   19.9570    3.8640 O.co2  55  ASP55      -0.2456
     56  N         38.3700   18.8080    8.4990 N.3    57  LEU57      -0.1245
     57  CA        38.7260   18.1640    9.7980 C.3    57  LEU57       0.1561
     58  C         37.4610   17.8430   10.5560 C.2    57  LEU57       0.2260
     59  O         36.7440   18.7660   10.9860 O.2    57  LEU57      -0.2867
     60  CB        39.6380   19.0400   10.5810 C.3    57  LEU57       0.0270
     61  CG        40.1110   18.4000   11.9260 C.3    57  LEU57       0.0019
     62  CD1       40.8720   17.1240   11.6970 C.3    57  LEU57       0.0001
     63  CD2       40.8800   19.4000   12.7900 C.3    57  LEU57       0.0001
     64  N         42.1010   17.0220   22.9270 N.3    63  GLU63      -0.1245
     65  CA        43.2670   16.5150   22.2330 C.3    63  GLU63       0.1567
     66  C         44.2670   15.9710   23.2470 C.2    63  GLU63       0.2260
     67  O         44.1840   16.3940   24.4040 O.2    63  GLU63      -0.2867
     68  CB        43.9140   17.6660   21.4230 C.3    63  GLU63       0.0388
     69  CG        43.0810   18.1980   20.2910 C.3    63  GLU63       0.1160
     70  CD        42.9880   17.3450   19.2110 C.2    63  GLU63       0.3649
     71  OE1       43.5090   16.2620   19.0970 O.co2  63  GLU63      -0.2457
     72  OE2       42.2880   17.7930   18.2500 O.co2  63  GLU63      -0.2457
     73  N         47.4100   21.1300   20.2070 N.3    68  MET68      -0.1245
     74  CA        46.8620   20.5510   18.9860 C.3    68  MET68       0.1570
     75  C         45.5090   21.1560   18.5770 C.2    68  MET68       0.2261
     76  O         45.2530   21.2980   17.3870 O.2    68  MET68      -0.2867
     77  CB        46.6520   19.0560   19.1820 C.3    68  MET68       0.0387
     78  CG        48.0720   18.3570   19.3190 C.3    68  MET68       0.0595
     79  SD        47.9870   16.7390   20.1160 S.3    68  MET68      -0.1393
     80  CE        47.1560   15.7160   18.9780 C.3    68  MET68       0.0692
     81  N         46.3010   24.5680   17.2610 N.3    71  GLN71      -0.1231
     82  CA        46.8620   24.4600   15.9830 C.3    71  GLN71       0.1698
     83  C         45.8120   24.2980   14.8690 C.2    71  GLN71       0.2592
     84  O         45.8530   24.9390   13.8000 O.2    71  GLN71      -0.2718
     85  CB        47.9190   23.3150   15.9670 C.3    71  GLN71       0.0381
     86  CG        48.4560   23.1020   14.6070 C.3    71  GLN71       0.0905
     87  CD        49.6710   23.9550   14.3130 C.2    71  GLN71       0.2608
     88  OE1       50.1420   24.7450   15.1600 O.2    71  GLN71      -0.2717
     89  NE2       50.1310   23.8630   13.1080 N.am   71  GLN71      -0.0878
     90  N         44.8500   23.3750   15.0800 N.am   72  TYR72      -0.1976
     91  CA        43.8430   23.1660   13.9710 C.3    72  TYR72       0.1639
     92  C         42.8860   24.3510   13.9120 C.2    72  TYR72       0.2290
     93  O         42.3730   24.6250   12.8170 O.2    72  TYR72      -0.2864
     94  CB        43.0750   21.8890   14.0870 C.3    72  TYR72       0.0560
     95  CG        42.0010   21.7250   15.1760 C.ar   72  TYR72      -0.0198
     96  CD1       40.8130   22.4600   15.0810 C.ar   72  TYR72      -0.0009
     97  CD2       42.1130   20.7450   16.1430 C.ar   72  TYR72      -0.0009
     98  CE1       39.7940   22.2870   16.0500 C.ar   72  TYR72       0.0417
     99  CE2       41.1010   20.5130   17.0420 C.ar   72  TYR72       0.0417
    100  CZ        39.9600   21.2630   16.9760 C.ar   72  TYR72       0.1957
    101  OH        38.9050   21.0240   17.8590 O.3    72  TYR72      -0.2866
    102  N         44.8620   26.8630   11.8260 N.3    75  THR75      -0.1203
    103  CA        44.9410   26.3790   10.4600 C.3    75  THR75       0.1994
    104  C         43.5920   26.5300    9.7220 C.2    75  THR75       0.2618
    105  O         43.5200   26.8380    8.5380 O.2    75  THR75      -0.2717
    106  CB        45.4070   24.8600   10.4770 C.3    75  THR75       0.1784
    107  OG1       46.7710   24.8820   11.0040 O.3    75  THR75      -0.2211
    108  CG2       45.4780   24.2190    9.0700 C.3    75  THR75       0.0376
    109  N         42.5170   26.2300   10.4010 N.am   76  GLY76      -0.1956
    110  CA        41.1970   26.1910    9.7760 C.3    76  GLY76       0.1869
    111  C         40.7710   27.5810    9.3430 C.2    76  GLY76       0.2309
    112  O         40.9380   28.6000   10.0380 O.2    76  GLY76      -0.2863
@<TRIPOS>BOND
     1    48    49    1
     2    52    49    1
     3    52    53    1
     4    49    50    1
     5     9     8    1
     6    55    53   ar
     7    53    54   ar
     8     1     2    1
     9    16    15    1
    10    50    51    2
    11    15    17    1
    12    15    14    1
    13     8     7    1
    14     6     7    1
    15     6     5    1
    16     2     5    1
    17     2     3    1
    18     3    10   am
    19     3     4    2
    20    14    11    1
    21    10    11    1
    22    45    44    2
    23    44    43    1
    24    11    12    1
    25    47    46    1
    26    46    43    1
    27    43    42    1
    28    13    12    2
    29    12    18   am
    30    56    57    1
    31   105   104    2
    32   108   106    1
    33    42    36   am
    34    18    19    1
    35   111   110    1
    36   111   112    2
    37   104   109   am
    38   104   103    1
    39   110   109    1
    40    57    58    1
    41    57    60    1
    42    36    37    2
    43    36    35    1
    44    38    35    1
    45    38    39    1
    46   103   106    1
    47   103   102    1
    48   106   107    1
    49    19    20    1
    50    19    22    1
    51    58    59    2
    52    60    61    1
    53    41    39   ar
    54    35    34    1
    55    39    40   ar
    56    20    21    2
    57    24    22    1
    58    22    23    1
    59    62    61    1
    60    61    63    1
    61    34    27   am
    62    93    92    2
    63    89    87   am
    64    27    28    2
    65    27    26    1
    66    84    83    2
    67    92    91    1
    68    91    94    1
    69    91    90    1
    70    94    95    1
    71    87    86    1
    72    87    88    2
    73    86    85    1
    74    26    25    1
    75    26    29    1
    76    83    90   am
    77    83    82    1
    78    30    29    1
    79    30    31    1
    80    96    95   ar
    81    96    98   ar
    82    95    97   ar
    83    85    82    1
    84    82    81    1
    85    98   100   ar
    86    97    99   ar
    87    31    33   ar
    88    31    32   ar
    89   100    99   ar
    90   100   101    1
    91    76    75    2
    92    72    70   ar
    93    75    74    1
    94    80    79    1
    95    74    77    1
    96    74    73    1
    97    71    70   ar
    98    77    78    1
    99    70    69    1
   100    78    79    1
   101    69    68    1
   102    68    65    1
   103    65    64    1
   104    65    66    1
   105    66    67    2
