@<TRIPOS>MOLECULE
tmp/4epwA01.pdb
 115 106 0 0 0
SMALL
GASTEIGER

@<TRIPOS>ATOM
      1  N        -20.8460    4.6750   -3.9900 N.3     6  LYS6       -0.1231
      2  CA       -20.9410    3.8710   -5.2260 C.3     6  LYS6        0.1693
      3  C        -19.7510    4.0930   -6.1350 C.2     6  LYS6        0.2592
      4  O        -19.5330    5.1880   -6.6870 O.2     6  LYS6       -0.2718
      5  CB       -22.2660    4.1200   -5.9280 C.3     6  LYS6        0.0285
      6  CG       -23.4410    3.6380   -5.1090 C.3     6  LYS6        0.0035
      7  CD       -24.7470    4.0520   -5.7750 C.3     6  LYS6        0.0206
      8  CE       -25.9040    3.4850   -4.9800 C.3     6  LYS6        0.1093
      9  NZ       -25.6150    2.0130   -4.9400 N.3     6  LYS6       -0.1314
     10  N        -18.9220    3.0630   -6.2480 N.am    7  LEU7       -0.1966
     11  CA       -17.6650    3.1770   -6.9450 C.3     7  LEU7        0.1728
     12  C        -17.6970    2.2980   -8.1770 C.2     7  LEU7        0.2616
     13  O        -18.2090    1.1420   -8.1420 O.2     7  LEU7       -0.2715
     14  CB       -16.5330    2.6650   -6.0380 C.3     7  LEU7        0.0311
     15  CG       -16.3830    3.2310   -4.6190 C.3     7  LEU7        0.0022
     16  CD1      -15.0660    2.7270   -3.9960 C.3     7  LEU7        0.0001
     17  CD2      -16.3810    4.8300   -4.6180 C.3     7  LEU7        0.0001
     18  N        -17.1600    2.8350   -9.2700 N.am    8  VAL8       -0.1977
     19  CA       -17.1520    2.1110  -10.5350 C.3     8  VAL8        0.1596
     20  C        -15.7440    1.9460  -11.0450 C.2     8  VAL8        0.2287
     21  O        -15.0000    2.9150  -11.1370 O.2     8  VAL8       -0.2864
     22  CB       -18.0590    2.7590  -11.5860 C.3     8  VAL8        0.0276
     23  CG1      -18.0840    1.9320  -12.8450 C.3     8  VAL8        0.0022
     24  CG2      -19.5670    2.8440  -11.0670 C.3     8  VAL8        0.0022
     25  N        -19.8460   -9.1480  -15.3330 N.3    38  GLU38      -0.1245
     26  CA       -19.9340   -7.8010  -14.7140 C.3    38  GLU38       0.1567
     27  C        -20.8260   -7.9040  -13.4430 C.2    38  GLU38       0.2260
     28  O        -22.0840   -8.0710  -13.5720 O.2    38  GLU38      -0.2867
     29  CB       -20.5820   -6.8260  -15.6480 C.3    38  GLU38       0.0388
     30  CG       -20.9670   -5.4070  -15.0120 C.3    38  GLU38       0.1160
     31  CD       -21.2270   -4.3960  -16.1130 C.2    38  GLU38       0.3649
     32  OE1      -20.3250   -4.0440  -16.8970 O.co2  38  GLU38      -0.2457
     33  OE2      -22.3870   -3.9630  -16.2600 O.co2  38  GLU38      -0.2457
     34  N        -21.4190   -6.4750   -9.0800 N.3    40  SER40      -0.1217
     35  CA       -21.0650   -5.5410   -8.0270 C.3    40  SER40       0.1889
     36  C        -20.9540   -6.2420   -6.6530 C.2    40  SER40       0.2288
     37  O        -21.5030   -7.3470   -6.4400 O.2    40  SER40      -0.2866
     38  CB       -21.9890   -4.2900   -7.9970 C.3    40  SER40       0.2089
     39  OG       -23.3540   -4.6140   -7.7260 O.3    40  SER40      -0.2183
     40  N        -20.4380   -5.5210   -2.1420 N.3    42  ARG42      -0.1245
     41  CA       -20.4680   -4.6230   -0.9580 C.3    42  ARG42       0.1563
     42  C        -19.4180   -5.0650    0.0670 C.2    42  ARG42       0.2260
     43  O        -19.1400   -6.2850    0.2500 O.2    42  ARG42      -0.2867
     44  CB       -21.8580   -4.5720   -0.2730 C.3    42  ARG42       0.0307
     45  CG       -22.9290   -3.8010   -0.9740 C.3    42  ARG42       0.0489
     46  CD       -23.8890   -4.8340   -1.6710 C.3    42  ARG42       0.2205
     47  NE       -23.8280   -4.4690   -3.0550 N.pl3  42  ARG42      -0.0865
     48  CZ       -24.0790   -5.2170   -4.1300 C.cat  42  ARG42       0.5346
     49  NH1      -24.5210   -6.5020   -4.0810 N.pl3  42  ARG42       0.1354
     50  NH2      -23.8870   -4.6030   -5.2900 N.pl3  42  ARG42       0.1354
     51  N        -19.9660    0.1670   -2.3950 N.3    55  ASP55      -0.1239
     52  CA       -20.7390   -0.6260   -3.3710 C.3    55  ASP55       0.1674
     53  C        -19.9460   -0.4880   -4.6460 C.2    55  ASP55       0.2266
     54  O        -19.9130    0.5970   -5.1960 O.2    55  ASP55      -0.2867
     55  CB       -22.1130   -0.0140   -3.5620 C.3    55  ASP55       0.1410
     56  CG       -23.0130   -0.8480   -4.4400 C.2    55  ASP55       0.3668
     57  OD1      -22.6060   -1.9310   -4.9230 O.co2  55  ASP55      -0.2456
     58  OD2      -24.1560   -0.4340   -4.5780 O.co2  55  ASP55      -0.2456
     59  N        -18.9500   -1.5900   -8.5200 N.3    57  LEU57      -0.1245
     60  CA       -19.2680   -2.2260   -9.8240 C.3    57  LEU57       0.1561
     61  C        -17.9470   -2.5870  -10.5900 C.2    57  LEU57       0.2260
     62  O        -17.1850   -1.7050  -10.9910 O.2    57  LEU57      -0.2867
     63  CB       -20.1420   -1.2440  -10.6450 C.3    57  LEU57       0.0270
     64  CG       -20.5840   -1.8230  -12.0100 C.3    57  LEU57       0.0019
     65  CD1      -21.3830   -3.1720  -11.7710 C.3    57  LEU57       0.0001
     66  CD2      -21.3410   -0.8170  -12.9200 C.3    57  LEU57       0.0001
     67  N        -22.6420   -3.5790  -22.8460 N.3    63  GLU63      -0.1245
     68  CA       -23.8070   -4.0670  -22.1160 C.3    63  GLU63       0.1567
     69  C        -24.8450   -4.5940  -23.1300 C.2    63  GLU63       0.2260
     70  O        -24.7950   -4.2420  -24.3440 O.2    63  GLU63      -0.2867
     71  CB       -24.4620   -2.9100  -21.3350 C.3    63  GLU63       0.0388
     72  CG       -23.5950   -2.2780  -20.3080 C.3    63  GLU63       0.1160
     73  CD       -23.4710   -3.0650  -19.0920 C.2    63  GLU63       0.3649
     74  OE1      -23.8790   -4.2910  -19.0260 O.co2  63  GLU63      -0.2457
     75  OE2      -22.9620   -2.4920  -18.0890 O.co2  63  GLU63      -0.2457
     76  N        -27.9150    0.5850  -20.2640 N.3    68  MET68      -0.1301
     77  CA       -27.3880    0.1250  -18.9760 C.3    68  MET68       0.1256
     78  C        -26.0460    0.7900  -18.5490 C.3    68  MET68       0.2010
     79  O        -25.7870    1.0050  -17.3080 O.3    68  MET68      -0.2188
     80  CB       -27.2060   -1.3840  -19.0150 C.3    68  MET68       0.0333
     81  CG       -28.5700   -1.9720  -19.2870 C.3    68  MET68       0.0592
     82  SD       -28.5370   -3.7590  -19.8660 S.3    68  MET68      -0.1393
     83  CE       -27.5830   -4.5520  -18.6020 C.3    68  MET68       0.0692
     84  N        -26.8010    4.0410  -17.2230 N.3    71  GLN71      -0.1231
     85  CA       -27.4100    3.9570  -15.9130 C.3    71  GLN71       0.1698
     86  C        -26.3350    3.8570  -14.8200 C.2    71  GLN71       0.2592
     87  O        -26.4290    4.5800  -13.8260 O.2    71  GLN71      -0.2718
     88  CB       -28.3520    2.7090  -15.8520 C.3    71  GLN71       0.0381
     89  CG       -29.0430    2.4750  -14.5260 C.3    71  GLN71       0.0905
     90  CD       -30.1990    3.4590  -14.2630 C.2    71  GLN71       0.2608
     91  OE1      -30.6520    4.2280  -15.1520 O.2    71  GLN71      -0.2717
     92  NE2      -30.6250    3.4800  -13.0430 N.am   71  GLN71      -0.0878
     93  N        -25.3300    2.9710  -15.0050 N.am   72  TYR72      -0.1976
     94  CA       -24.2630    2.8640  -13.9860 C.3    72  TYR72       0.1639
     95  C        -23.3950    4.1020  -13.9290 C.2    72  TYR72       0.2290
     96  O        -22.8840    4.4530  -12.8970 O.2    72  TYR72      -0.2864
     97  CB       -23.4410    1.5870  -14.0690 C.3    72  TYR72       0.0560
     98  CG       -22.4000    1.4210  -15.1300 C.ar   72  TYR72      -0.0198
     99  CD1      -21.2110    2.1610  -15.1230 C.ar   72  TYR72      -0.0009
    100  CD2      -22.5460    0.4200  -16.0880 C.ar   72  TYR72      -0.0009
    101  CE1      -20.1850    1.9460  -16.0810 C.ar   72  TYR72       0.0417
    102  CE2      -21.5130    0.1600  -17.0340 C.ar   72  TYR72       0.0417
    103  CZ       -20.3380    0.8920  -17.0080 C.ar   72  TYR72       0.1957
    104  OH       -19.4030    0.6590  -18.0160 O.3    72  TYR72      -0.2866
    105  N        -25.2100    6.5980  -11.9120 N.3    75  THR75      -0.1203
    106  CA       -25.4670    6.2490  -10.5290 C.3    75  THR75       0.1994
    107  C        -24.1560    6.3110   -9.7590 C.2    75  THR75       0.2618
    108  O        -24.1080    6.6520   -8.5610 O.2    75  THR75      -0.2717
    109  CB       -26.0750    4.7700  -10.4720 C.3    75  THR75       0.1784
    110  OG1      -27.3080    4.7160  -11.2440 O.3    75  THR75      -0.2211
    111  CG2      -26.2980    4.2660   -9.0400 C.3    75  THR75       0.0376
    112  N        -23.0890    5.9100  -10.4370 N.am   76  GLY76      -0.1956
    113  CA       -21.8220    5.7910   -9.7270 C.3    76  GLY76       0.1869
    114  C        -21.3570    7.1560   -9.3270 C.2    76  GLY76       0.2309
    115  O        -21.5400    8.1030  -10.0570 O.2    76  GLY76      -0.2863
@<TRIPOS>BOND
     1    70    69    2
     2    69    68    1
     3    67    68    1
     4    68    71    1
     5    71    72    1
     6    72    73    1
     7    76    77    1
     8    82    81    1
     9    82    83    1
    10    81    80    1
    11    73    74   ar
    12    73    75   ar
    13    80    77    1
    14    77    78    1
    15    78    79    1
    16   104   103    1
    17    84    85    1
    18   102   103   ar
    19   102   100   ar
    20   103   101   ar
    21    32    31   ar
    22    33    31   ar
    23    31    30    1
    24   100    98   ar
    25   101    99   ar
    26    85    88    1
    27    85    86    1
    28    88    89    1
    29    29    30    1
    30    29    26    1
    31    25    26    1
    32    91    90    2
    33    98    99   ar
    34    98    97    1
    35    93    86   am
    36    93    94    1
    37    86    87    2
    38    26    27    1
    39    89    90    1
    40    90    92   am
    41    97    94    1
    42    94    95    1
    43    95    96    2
    44    28    27    2
    45    66    64    1
    46    23    22    1
    47    64    65    1
    48    64    63    1
    49   105   106    1
    50    22    24    1
    51    22    19    1
    52   110   109    1
    53    21    20    2
    54    20    19    1
    55    62    61    2
    56    63    60    1
    57    61    60    1
    58    19    18    1
    59   106   109    1
    60   106   107    1
    61   109   111    1
    62   112   107   am
    63   112   113    1
    64   115   114    2
    65    60    59    1
    66   107   108    2
    67   113   114    1
    68    18    12   am
    69    34    35    1
    70    12    13    2
    71    12    11    1
    72    35    38    1
    73    35    36    1
    74    38    39    1
    75    11    10    1
    76    11    14    1
    77     4     3    2
    78    36    37    2
    79    10     3   am
    80     3     2    1
    81    14    15    1
    82     5     2    1
    83     5     6    1
    84     7     6    1
    85     7     8    1
    86    50    48    1
    87     2     1    1
    88    54    53    2
    89     8     9    1
    90    57    56   ar
    91    53    52    1
    92    15    17    1
    93    15    16    1
    94    58    56   ar
    95    56    55    1
    96    48    49    1
    97    48    47    2
    98    55    52    1
    99    52    51    1
   100    47    46    1
   101    40    41    1
   102    46    45    1
   103    45    44    1
   104    41    44    1
   105    41    42    1
   106    42    43    2
