@<TRIPOS>MOLECULE
tmp/4epxA01.pdb
 123 115 0 0 0
SMALL
GASTEIGER

@<TRIPOS>ATOM
      1  N         20.7970    4.5120    3.9640 N.3     6  LYS6       -0.1231
      2  CA        20.9170    3.7060    5.2090 C.3     6  LYS6        0.1693
      3  C         19.7400    3.9750    6.1090 C.2     6  LYS6        0.2592
      4  O         19.5960    5.0970    6.6400 O.2     6  LYS6       -0.2718
      5  CB        22.2220    4.0280    5.9150 C.3     6  LYS6        0.0285
      6  CG        23.4330    3.6170    4.9970 C.3     6  LYS6        0.0035
      7  CD        24.7750    3.7130    5.7620 C.3     6  LYS6        0.0206
      8  CE        26.0160    3.5310    4.8520 C.3     6  LYS6        0.1093
      9  NZ        25.8650    4.0250    3.4230 N.3     6  LYS6       -0.1314
     10  N         18.8670    2.9790    6.2180 N.am    7  LEU7       -0.1966
     11  CA        17.6030    3.1390    6.9760 C.3     7  LEU7        0.1728
     12  C         17.7530    2.2760    8.2210 C.2     7  LEU7        0.2616
     13  O         18.4540    1.2250    8.1860 O.2     7  LEU7       -0.2715
     14  CB        16.4600    2.5750    6.1870 C.3     7  LEU7        0.0311
     15  CG        16.3500    3.1610    4.7480 C.3     7  LEU7        0.0022
     16  CD1       15.1000    2.6220    4.0650 C.3     7  LEU7        0.0001
     17  CD2       16.3100    4.6700    4.7510 C.3     7  LEU7        0.0001
     18  N         17.0860    2.6630    9.2960 N.am    8  VAL8       -0.1977
     19  CA        17.1500    1.9000   10.5470 C.3     8  VAL8        0.1596
     20  C         15.7190    1.7600   11.0070 C.2     8  VAL8        0.2287
     21  O         14.9750    2.7520   11.0740 O.2     8  VAL8       -0.2864
     22  CB        17.9130    2.6810   11.6170 C.3     8  VAL8        0.0276
     23  CG1       17.9510    1.9010   12.9160 C.3     8  VAL8        0.0022
     24  CG2       19.4240    2.9090   11.1800 C.3     8  VAL8        0.0022
     25  N         19.6790   -9.2000   15.2730 N.3    38  GLU38      -0.1245
     26  CA        19.7570   -7.8800   14.6490 C.3    38  GLU38       0.1567
     27  C         20.6560   -7.9970   13.4550 C.2    38  GLU38       0.2260
     28  O         21.8190   -8.4070   13.5790 O.2    38  GLU38      -0.2867
     29  CB        20.3540   -6.8670   15.6280 C.3    38  GLU38       0.0388
     30  CG        20.7620   -5.4910   15.0250 C.3    38  GLU38       0.1160
     31  CD        21.0900   -4.5260   16.1100 C.2    38  GLU38       0.3649
     32  OE1       20.1800   -4.1330   16.8920 O.co2  38  GLU38      -0.2457
     33  OE2       22.2720   -4.0980   16.2390 O.co2  38  GLU38      -0.2457
     34  N         21.4110   -6.4300    9.1800 N.3    40  SER40      -0.1217
     35  CA        21.0530   -5.5490    8.0540 C.3    40  SER40       0.1889
     36  C         20.8170   -6.2940    6.7180 C.2    40  SER40       0.2288
     37  O         21.3340   -7.4250    6.5010 O.2    40  SER40      -0.2866
     38  CB        22.0110   -4.3470    7.9670 C.3    40  SER40       0.2089
     39  OG        23.3270   -4.7740    7.7290 O.3    40  SER40      -0.2183
     40  N         19.8930   -5.7230    2.2930 N.3    42  ARG42      -0.1245
     41  CA        19.9930   -4.7920    1.1580 C.3    42  ARG42       0.1563
     42  C         19.0530   -5.1850    0.0650 C.2    42  ARG42       0.2260
     43  O         18.8360   -6.3950   -0.1920 O.2    42  ARG42      -0.2867
     44  CB        21.3480   -4.8950    0.4790 C.3    42  ARG42       0.0307
     45  CG        22.4720   -4.1250    1.0940 C.3    42  ARG42       0.0489
     46  CD        23.4370   -5.0950    1.6830 C.3    42  ARG42       0.2205
     47  NE        23.7020   -4.4950    2.9540 N.pl3  42  ARG42      -0.0865
     48  CZ        24.1200   -5.0910    4.0560 C.cat  42  ARG42       0.5346
     49  NH1       24.3920   -6.4090    4.1130 N.pl3  42  ARG42       0.1354
     50  NH2       24.2630   -4.3070    5.1140 N.pl3  42  ARG42       0.1354
     51  N         19.6810   -0.0420    2.3740 N.3    55  ASP55      -0.1225
     52  CA        20.4480   -0.8420    3.3120 C.3    55  ASP55       0.1805
     53  C         19.7790   -0.6860    4.6570 C.2    55  ASP55       0.2598
     54  O         19.8530    0.3640    5.2500 O.2    55  ASP55      -0.2718
     55  CB        21.8420   -0.2960    3.2820 C.3    55  ASP55       0.1424
     56  CG        22.7630   -0.9330    4.2850 C.2    55  ASP55       0.3668
     57  OD1       22.3640   -1.8250    5.0490 O.co2  55  ASP55      -0.2456
     58  OD2       23.9080   -0.4680    4.2580 O.co2  55  ASP55      -0.2456
     59  N         19.0140   -1.6910    5.0450 N.am   56  ILE56      -0.1966
     60  CA        18.1290   -1.5640    6.1950 C.3    56  ILE56       0.1727
     61  C         18.6770   -2.3290    7.3810 C.2    56  ILE56       0.2616
     62  O         18.8380   -3.5520    7.3440 O.2    56  ILE56      -0.2715
     63  CB        16.7370   -2.0980    5.7950 C.3    56  ILE56       0.0290
     64  CG1       16.2670   -1.2880    4.5540 C.3    56  ILE56       0.0022
     65  CG2       15.7710   -2.0130    6.9490 C.3    56  ILE56       0.0023
     66  CD1       14.9580   -1.8270    4.0240 C.3    56  ILE56       0.0001
     67  N         18.8610   -1.6140    8.4920 N.am   57  LEU57      -0.1977
     68  CA        19.1870   -2.2690    9.7850 C.3    57  LEU57       0.1596
     69  C         17.8850   -2.5600   10.5690 C.2    57  LEU57       0.2287
     70  O         17.1430   -1.6440   10.9460 O.2    57  LEU57      -0.2864
     71  CB        20.0610   -1.3700   10.6850 C.3    57  LEU57       0.0297
     72  CG        20.5130   -1.9960   12.0530 C.3    57  LEU57       0.0022
     73  CD1       21.3830   -3.2310   11.7720 C.3    57  LEU57       0.0001
     74  CD2       21.3320   -0.9230   12.8510 C.3    57  LEU57       0.0001
     75  N         22.5190   -3.4920   22.9280 N.3    63  GLU63      -0.1245
     76  CA        23.7160   -4.0180   22.2550 C.3    63  GLU63       0.1567
     77  C         24.7260   -4.4970   23.2750 C.2    63  GLU63       0.2260
     78  O         24.6710   -4.0940   24.4390 O.2    63  GLU63      -0.2867
     79  CB        24.4270   -2.8890   21.4910 C.3    63  GLU63       0.0388
     80  CG        23.6180   -2.3220   20.3920 C.3    63  GLU63       0.1160
     81  CD        23.3920   -3.2210   19.2430 C.2    63  GLU63       0.3649
     82  OE1       23.9390   -4.3760   19.0630 O.co2  63  GLU63      -0.2457
     83  OE2       22.6590   -2.7500   18.3420 O.co2  63  GLU63      -0.2457
     84  N         27.8480    0.6800   20.2520 N.3    68  MET68      -0.1245
     85  CA        27.3070    0.0570   19.0230 C.3    68  MET68       0.1570
     86  C         26.0080    0.7470   18.6170 C.2    68  MET68       0.2261
     87  O         25.7490    0.9360   17.4000 O.2    68  MET68      -0.2867
     88  CB        27.1170   -1.4460   19.1900 C.3    68  MET68       0.0387
     89  CG        28.4970   -2.1280   19.2610 C.3    68  MET68       0.0595
     90  SD        28.3280   -3.7660   20.0450 S.3    68  MET68      -0.1393
     91  CE        27.5460   -4.6570   18.7280 C.3    68  MET68       0.0692
     92  N         26.7500    4.0970   17.3340 N.3    71  GLN71      -0.1231
     93  CA        27.3380    4.0120   16.0210 C.3    71  GLN71       0.1698
     94  C         26.2910    3.8470   14.8910 C.2    71  GLN71       0.2592
     95  O         26.3870    4.5140   13.8250 O.2    71  GLN71      -0.2718
     96  CB        28.3850    2.8430   15.9900 C.3    71  GLN71       0.0381
     97  CG        29.0090    2.6250   14.5810 C.3    71  GLN71       0.0905
     98  CD        30.1760    3.6040   14.3370 C.2    71  GLN71       0.2608
     99  OE1       30.5970    4.3360   15.2510 O.2    71  GLN71      -0.2717
    100  NE2       30.6540    3.6410   13.1240 N.am   71  GLN71      -0.0878
    101  N         25.3000    2.9730   15.1010 N.am   72  TYR72      -0.1976
    102  CA        24.2690    2.8400   14.0300 C.3    72  TYR72       0.1639
    103  C         23.3520    4.0360   13.9670 C.2    72  TYR72       0.2290
    104  O         22.8330    4.3140   12.9360 O.2    72  TYR72      -0.2864
    105  CB        23.5310    1.5250   14.1610 C.3    72  TYR72       0.0560
    106  CG        22.4310    1.3450   15.2120 C.ar   72  TYR72      -0.0198
    107  CD1       21.2040    2.0910   15.1620 C.ar   72  TYR72      -0.0009
    108  CD2       22.5520    0.3080   16.1320 C.ar   72  TYR72      -0.0009
    109  CE1       20.1590    1.8150   16.0940 C.ar   72  TYR72       0.0417
    110  CE2       21.5250    0.0290   17.0730 C.ar   72  TYR72       0.0417
    111  CZ        20.3370    0.7890   17.0220 C.ar   72  TYR72       0.1957
    112  OH        19.3540    0.5460   17.9130 O.3    72  TYR72      -0.2866
    113  N         25.3230    6.5410   11.9390 N.3    75  THR75      -0.1203
    114  CA        25.5000    6.0890   10.5440 C.3    75  THR75       0.1994
    115  C         24.1450    6.1310    9.7860 C.2    75  THR75       0.2618
    116  O         24.1150    6.4740    8.5880 O.2    75  THR75      -0.2717
    117  CB        26.0980    4.6680   10.5460 C.3    75  THR75       0.1784
    118  OG1       27.4330    4.7660   11.0920 O.3    75  THR75      -0.2211
    119  CG2       26.1610    4.0430    9.1230 C.3    75  THR75       0.0376
    120  N         23.0710    5.8160   10.5200 N.am   76  GLY76      -0.1956
    121  CA        21.7330    5.7930    9.8950 C.3    76  GLY76       0.1869
    122  C         21.2950    7.1380    9.3750 C.2    76  GLY76       0.2309
    123  O         21.4380    8.1540   10.0560 O.2    76  GLY76      -0.2863
@<TRIPOS>BOND
     1    43    42    2
     2    42    41    1
     3    44    45    1
     4    44    41    1
     5    45    46    1
     6    41    40    1
     7    46    47    1
     8    51    52    1
     9    47    48    2
    10    55    52    1
    11    55    56    1
    12    52    53    1
    13     9     8    1
    14     1     2    1
    15    66    64    1
    16    48    49    1
    17    48    50    1
    18    16    15    1
    19    58    56   ar
    20    56    57   ar
    21    64    63    1
    22    53    59   am
    23    53    54    2
    24    15    17    1
    25    15    14    1
    26     8     7    1
    27     6     7    1
    28     6     5    1
    29    59    60    1
    30     2     5    1
    31     2     3    1
    32    63    60    1
    33    63    65    1
    34     3    10   am
    35     3     4    2
    36    14    11    1
    37    60    61    1
    38    10    11    1
    39    37    36    2
    40    36    35    1
    41    11    12    1
    42    62    61    2
    43    61    67   am
    44    39    38    1
    45    38    35    1
    46    35    34    1
    47    13    12    2
    48    12    18   am
    49    67    68    1
    50   116   115    2
    51   119   117    1
    52    18    19    1
    53   122   121    1
    54   122   123    2
    55    68    69    1
    56    68    71    1
    57   115   120   am
    58   115   114    1
    59   121   120    1
    60   114   117    1
    61   114   113    1
    62   117   118    1
    63    19    20    1
    64    19    22    1
    65    69    70    2
    66    71    72    1
    67    20    21    2
    68    24    22    1
    69    22    23    1
    70    73    72    1
    71    72    74    1
    72   104   103    2
    73   100    98   am
    74    27    28    2
    75    27    26    1
    76    95    94    2
    77   103   102    1
    78   102   105    1
    79   102   101    1
    80   105   106    1
    81    98    97    1
    82    98    99    2
    83    97    96    1
    84    26    25    1
    85    26    29    1
    86    94   101   am
    87    94    93    1
    88    30    29    1
    89    30    31    1
    90   107   106   ar
    91   107   109   ar
    92   106   108   ar
    93    96    93    1
    94    93    92    1
    95   109   111   ar
    96    31    33   ar
    97    31    32   ar
    98   108   110   ar
    99   111   110   ar
   100   111   112    1
   101    87    86    2
   102    83    81   ar
   103    86    85    1
   104    91    90    1
   105    85    88    1
   106    85    84    1
   107    82    81   ar
   108    88    89    1
   109    81    80    1
   110    89    90    1
   111    80    79    1
   112    79    76    1
   113    76    75    1
   114    76    77    1
   115    77    78    2
